MODEL 1
REMARK VINA RESULT:    -9.775      0.000      0.000
REMARK INTER + INTRA:         -12.226
REMARK INTER:                 -11.267
REMARK INTRA:                  -0.960
REMARK CONF_INDEPENDENT:        1.492
REMARK UNBOUND:                -0.960
REMARK  5 active torsions:
REMARK  status: ('A' for Active; 'I' for Inactive)
REMARK    1  A    between atoms: C_2  and  C_3 
REMARK    2  A    between atoms: C_3  and  N_4 
REMARK    3  A    between atoms: C_3  and  C_18 
REMARK       I    between atoms: N_4  and  C_5 
REMARK    4  A    between atoms: C_5  and  C_7 
REMARK    5  A    between atoms: C_12  and  N_13 
REMARK       I    between atoms: N_13  and  C_14 
ROOT
ATOM      1  N   UNL d   1      24.838 -15.414  -3.001  0.00  0.00    -0.247 NA
ATOM      2  C   UNL d   1      25.457 -14.391  -3.754  0.00  0.00     0.231 C 
ATOM      3  O   UNL d   1      24.785 -13.380  -4.036  0.00  0.00    -0.274 OA
ATOM      4  H   UNL d   1      23.838 -15.321  -3.145  0.00  0.00     0.131 HD
ENDROOT
BRANCH   1   5
ATOM      5  C   UNL d   1      25.006 -15.611  -1.501  0.00  0.00     0.132 C 
BRANCH   5   6
ATOM      6  C   UNL d   1      26.438 -15.858  -1.145  0.00  0.00     0.023 C 
ATOM      7  C   UNL d   1      26.850 -15.446   0.243  0.00  0.00     0.007 C 
ENDBRANCH   5   6
BRANCH   5   8
ATOM      8  C   UNL d   1      24.300 -16.890  -1.045  0.00  0.00     0.122 A 
ATOM      9  N   UNL d   1      22.994 -17.011  -0.919  0.00  0.00    -0.232 NA
ATOM     10  C   UNL d   1      22.777 -18.214  -0.298  0.00  0.00     0.084 A 
ATOM     11  C   UNL d   1      21.468 -18.791  -0.137  0.00  0.00    -0.006 A 
ATOM     12  C   UNL d   1      23.963 -18.847  -0.017  0.00  0.00     0.122 A 
ATOM     13  C   UNL d   1      21.030 -19.300   1.087  0.00  0.00     0.014 A 
ATOM     14  C   UNL d   1      20.654 -18.896  -1.270  0.00  0.00     0.014 A 
ATOM     15  C   UNL d   1      19.813 -19.980   1.156  0.00  0.00     0.001 A 
ATOM     16  C   UNL d   1      19.005 -20.083   0.022  0.00  0.00     0.000 A 
ATOM     17  C   UNL d   1      19.423 -19.540  -1.191  0.00  0.00     0.001 A 
ATOM     18  N   UNL d   1      24.929 -17.978  -0.452  0.00  0.00    -0.351 N 
ATOM     19  H   UNL d   1      25.925 -18.106  -0.329  0.00  0.00     0.166 HD
ENDBRANCH   5   8
ENDBRANCH   1   5
BRANCH   2  20
ATOM     20  C   UNL d   1      26.924 -14.499  -4.252  0.00  0.00     0.028 C 
ATOM     21  C   UNL d   1      27.731 -15.575  -3.849  0.00  0.00     0.017 C 
ATOM     22  C   UNL d   1      28.891 -15.879  -4.588  0.00  0.00     0.010 C 
ATOM     23  C   UNL d   1      29.205 -15.201  -5.802  0.00  0.00    -0.035 C 
ATOM     24  C   UNL d   1      30.443 -15.617  -6.559  0.00  0.00     0.050 C 
ATOM     25  C   UNL d   1      28.374 -14.153  -6.267  0.00  0.00     0.041 C 
ATOM     26  C   UNL d   1      27.369 -13.720  -5.356  0.00  0.00     0.046 C 
BRANCH  25  27
ATOM     27  N   UNL d   1      28.526 -13.715  -7.664  0.00  0.00    -0.327 N 
ATOM     28  C   UNL d   1      28.440 -12.511  -8.376  0.00  0.00     0.218 C 
ATOM     29  C   UNL d   1      28.117 -11.253  -7.673  0.00  0.00     0.117 C 
ATOM     30  O   UNL d   1      28.537 -12.483  -9.598  0.00  0.00    -0.274 OA
ATOM     31  H   UNL d   1      28.530 -14.458  -8.355  0.00  0.00     0.169 HD
ENDBRANCH  25  27
ENDBRANCH   2  20
TORSDOF 5
ENDMDL
MODEL 2
REMARK VINA RESULT:    -9.348      2.206      3.027
REMARK INTER + INTRA:         -11.949
REMARK INTER:                 -10.840
REMARK INTRA:                  -1.109
REMARK CONF_INDEPENDENT:        1.492
REMARK UNBOUND:                -1.109
REMARK  5 active torsions:
REMARK  status: ('A' for Active; 'I' for Inactive)
REMARK    1  A    between atoms: C_2  and  C_3 
REMARK    2  A    between atoms: C_3  and  N_4 
REMARK    3  A    between atoms: C_3  and  C_18 
REMARK       I    between atoms: N_4  and  C_5 
REMARK    4  A    between atoms: C_5  and  C_7 
REMARK    5  A    between atoms: C_12  and  N_13 
REMARK       I    between atoms: N_13  and  C_14 
ROOT
ATOM      1  N   UNL d   1      25.873 -16.009  -3.142  0.00  0.00    -0.247 NA
ATOM      2  C   UNL d   1      25.859 -15.400  -4.418  0.00  0.00     0.231 C 
ATOM      3  O   UNL d   1      25.199 -15.947  -5.323  0.00  0.00    -0.274 OA
ATOM      4  H   UNL d   1      25.655 -16.990  -3.283  0.00  0.00     0.131 HD
ENDROOT
BRANCH   1   5
ATOM      5  C   UNL d   1      25.012 -15.576  -1.964  0.00  0.00     0.132 C 
BRANCH   5   6
ATOM      6  C   UNL d   1      25.849 -15.004  -0.864  0.00  0.00     0.023 C 
ATOM      7  C   UNL d   1      27.322 -14.887  -1.154  0.00  0.00     0.007 C 
ENDBRANCH   5   6
BRANCH   5   8
ATOM      8  C   UNL d   1      24.347 -16.790  -1.311  0.00  0.00     0.122 A 
ATOM      9  N   UNL d   1      23.043 -16.949  -1.196  0.00  0.00    -0.232 NA
ATOM     10  C   UNL d   1      22.859 -18.036  -0.382  0.00  0.00     0.084 A 
ATOM     11  C   UNL d   1      21.571 -18.638  -0.153  0.00  0.00    -0.006 A 
ATOM     12  C   UNL d   1      24.062 -18.557   0.030  0.00  0.00     0.122 A 
ATOM     13  C   UNL d   1      21.119 -18.950   1.130  0.00  0.00     0.014 A 
ATOM     14  C   UNL d   1      20.796 -18.972  -1.269  0.00  0.00     0.014 A 
ATOM     15  C   UNL d   1      19.930 -19.665   1.288  0.00  0.00     0.001 A 
ATOM     16  C   UNL d   1      19.160 -19.997   0.171  0.00  0.00     0.000 A 
ATOM     17  C   UNL d   1      19.591 -19.649  -1.107  0.00  0.00     0.001 A 
ATOM     18  N   UNL d   1      25.003 -17.731  -0.526  0.00  0.00    -0.351 N 
ATOM     19  H   UNL d   1      25.999 -17.789  -0.361  0.00  0.00     0.166 HD
ENDBRANCH   5   8
ENDBRANCH   1   5
BRANCH   2  20
ATOM     20  C   UNL d   1      26.649 -14.099  -4.725  0.00  0.00     0.028 C 
ATOM     21  C   UNL d   1      27.653 -14.096  -5.706  0.00  0.00     0.017 C 
ATOM     22  C   UNL d   1      28.083 -12.868  -6.246  0.00  0.00     0.010 C 
ATOM     23  C   UNL d   1      27.445 -11.638  -5.912  0.00  0.00    -0.035 C 
ATOM     24  C   UNL d   1      27.935 -10.370  -6.569  0.00  0.00     0.050 C 
ATOM     25  C   UNL d   1      26.386 -11.619  -4.971  0.00  0.00     0.041 C 
ATOM     26  C   UNL d   1      26.168 -12.840  -4.271  0.00  0.00     0.046 C 
BRANCH  25  27
ATOM     27  N   UNL d   1      25.538 -10.417  -4.906  0.00  0.00    -0.327 N 
ATOM     28  C   UNL d   1      25.413  -9.295  -4.077  0.00  0.00     0.218 C 
ATOM     29  C   UNL d   1      26.303  -9.129  -2.910  0.00  0.00     0.117 C 
ATOM     30  O   UNL d   1      24.514  -8.477  -4.239  0.00  0.00    -0.274 OA
ATOM     31  H   UNL d   1      24.706 -10.440  -5.487  0.00  0.00     0.169 HD
ENDBRANCH  25  27
ENDBRANCH   2  20
TORSDOF 5
ENDMDL
MODEL 3
REMARK VINA RESULT:    -9.220      1.693      2.296
REMARK INTER + INTRA:         -12.035
REMARK INTER:                 -10.712
REMARK INTRA:                  -1.323
REMARK CONF_INDEPENDENT:        1.492
REMARK UNBOUND:                -1.323
REMARK  5 active torsions:
REMARK  status: ('A' for Active; 'I' for Inactive)
REMARK    1  A    between atoms: C_2  and  C_3 
REMARK    2  A    between atoms: C_3  and  N_4 
REMARK    3  A    between atoms: C_3  and  C_18 
REMARK       I    between atoms: N_4  and  C_5 
REMARK    4  A    between atoms: C_5  and  C_7 
REMARK    5  A    between atoms: C_12  and  N_13 
REMARK       I    between atoms: N_13  and  C_14 
ROOT
ATOM      1  N   UNL d   1      25.367 -15.756  -3.304  0.00  0.00    -0.247 NA
ATOM      2  C   UNL d   1      25.505 -14.654  -4.177  0.00  0.00     0.231 C 
ATOM      3  O   UNL d   1      24.469 -14.141  -4.644  0.00  0.00    -0.274 OA
ATOM      4  H   UNL d   1      24.468 -16.181  -3.507  0.00  0.00     0.131 HD
ENDROOT
BRANCH   1   5
ATOM      5  C   UNL d   1      25.433 -15.675  -1.785  0.00  0.00     0.132 C 
BRANCH   5   6
ATOM      6  C   UNL d   1      26.840 -15.817  -1.297  0.00  0.00     0.023 C 
ATOM      7  C   UNL d   1      27.838 -16.317  -2.308  0.00  0.00     0.007 C 
ENDBRANCH   5   6
BRANCH   5   8
ATOM      8  C   UNL d   1      24.714 -16.869  -1.152  0.00  0.00     0.122 A 
ATOM      9  N   UNL d   1      23.404 -17.013  -1.118  0.00  0.00    -0.232 NA
ATOM     10  C   UNL d   1      23.156 -18.082  -0.297  0.00  0.00     0.084 A 
ATOM     11  C   UNL d   1      21.850 -18.667  -0.140  0.00  0.00    -0.006 A 
ATOM     12  C   UNL d   1      24.324 -18.604   0.203  0.00  0.00     0.122 A 
ATOM     13  C   UNL d   1      21.312 -18.948   1.118  0.00  0.00     0.014 A 
ATOM     14  C   UNL d   1      21.146 -19.017  -1.296  0.00  0.00     0.014 A 
ATOM     15  C   UNL d   1      20.108 -19.648   1.212  0.00  0.00     0.001 A 
ATOM     16  C   UNL d   1      19.409 -19.996   0.054  0.00  0.00     0.000 A 
ATOM     17  C   UNL d   1      19.926 -19.679  -1.200  0.00  0.00     0.001 A 
ATOM     18  N   UNL d   1      25.308 -17.799  -0.307  0.00  0.00    -0.351 N 
ATOM     19  H   UNL d   1      26.291 -17.863  -0.076  0.00  0.00     0.166 HD
ENDBRANCH   5   8
ENDBRANCH   1   5
BRANCH   2  20
ATOM     20  C   UNL d   1      26.892 -14.086  -4.583  0.00  0.00     0.028 C 
ATOM     21  C   UNL d   1      27.664 -13.370  -3.655  0.00  0.00     0.017 C 
ATOM     22  C   UNL d   1      29.043 -13.203  -3.889  0.00  0.00     0.010 C 
ATOM     23  C   UNL d   1      29.699 -13.842  -4.981  0.00  0.00    -0.035 C 
ATOM     24  C   UNL d   1      31.188 -13.650  -5.139  0.00  0.00     0.050 C 
ATOM     25  C   UNL d   1      28.956 -14.623  -5.901  0.00  0.00     0.041 C 
ATOM     26  C   UNL d   1      27.540 -14.546  -5.763  0.00  0.00     0.046 C 
BRANCH  25  27
ATOM     27  N   UNL d   1      29.693 -15.530  -6.796  0.00  0.00    -0.327 N 
ATOM     28  C   UNL d   1      30.383 -16.744  -6.683  0.00  0.00     0.218 C 
ATOM     29  C   UNL d   1      30.485 -17.422  -5.376  0.00  0.00     0.117 C 
ATOM     30  O   UNL d   1      30.991 -17.224  -7.633  0.00  0.00    -0.274 OA
ATOM     31  H   UNL d   1      29.937 -15.143  -7.701  0.00  0.00     0.169 HD
ENDBRANCH  25  27
ENDBRANCH   2  20
TORSDOF 5
ENDMDL
MODEL 4
REMARK VINA RESULT:    -8.538      1.933      2.660
REMARK INTER + INTRA:         -11.533
REMARK INTER:                 -10.029
REMARK INTRA:                  -1.504
REMARK CONF_INDEPENDENT:        1.492
REMARK UNBOUND:                -1.504
REMARK  5 active torsions:
REMARK  status: ('A' for Active; 'I' for Inactive)
REMARK    1  A    between atoms: C_2  and  C_3 
REMARK    2  A    between atoms: C_3  and  N_4 
REMARK    3  A    between atoms: C_3  and  C_18 
REMARK       I    between atoms: N_4  and  C_5 
REMARK    4  A    between atoms: C_5  and  C_7 
REMARK    5  A    between atoms: C_12  and  N_13 
REMARK       I    between atoms: N_13  and  C_14 
ROOT
ATOM      1  N   UNL d   1      24.866 -15.292  -3.128  0.00  0.00    -0.247 NA
ATOM      2  C   UNL d   1      25.175 -14.145  -3.893  0.00  0.00     0.231 C 
ATOM      3  O   UNL d   1      24.311 -13.252  -3.989  0.00  0.00    -0.274 OA
ATOM      4  H   UNL d   1      23.854 -15.365  -3.104  0.00  0.00     0.131 HD
ENDROOT
BRANCH   1   5
ATOM      5  C   UNL d   1      25.316 -15.526  -1.693  0.00  0.00     0.132 C 
BRANCH   5   6
ATOM      6  C   UNL d   1      26.765 -15.893  -1.634  0.00  0.00     0.023 C 
ATOM      7  C   UNL d   1      27.663 -14.909  -0.932  0.00  0.00     0.007 C 
ENDBRANCH   5   6
BRANCH   5   8
ATOM      8  C   UNL d   1      24.613 -16.752  -1.104  0.00  0.00     0.122 A 
ATOM      9  N   UNL d   1      23.305 -16.902  -1.047  0.00  0.00    -0.232 NA
ATOM     10  C   UNL d   1      23.078 -18.010  -0.274  0.00  0.00     0.084 A 
ATOM     11  C   UNL d   1      21.777 -18.606  -0.116  0.00  0.00    -0.006 A 
ATOM     12  C   UNL d   1      24.258 -18.555   0.171  0.00  0.00     0.122 A 
ATOM     13  C   UNL d   1      21.269 -18.951   1.138  0.00  0.00     0.014 A 
ATOM     14  C   UNL d   1      21.045 -18.899  -1.272  0.00  0.00     0.014 A 
ATOM     15  C   UNL d   1      20.068 -19.658   1.225  0.00  0.00     0.001 A 
ATOM     16  C   UNL d   1      19.343 -19.949   0.068  0.00  0.00     0.000 A 
ATOM     17  C   UNL d   1      19.829 -19.568  -1.180  0.00  0.00     0.001 A 
ATOM     18  N   UNL d   1      25.228 -17.722  -0.321  0.00  0.00    -0.351 N 
ATOM     19  H   UNL d   1      26.217 -17.796  -0.118  0.00  0.00     0.166 HD
ENDBRANCH   5   8
ENDBRANCH   1   5
BRANCH   2  20
ATOM     20  C   UNL d   1      26.534 -13.978  -4.626  0.00  0.00     0.028 C 
ATOM     21  C   UNL d   1      27.321 -12.836  -4.407  0.00  0.00     0.017 C 
ATOM     22  C   UNL d   1      28.687 -12.865  -4.750  0.00  0.00     0.010 C 
ATOM     23  C   UNL d   1      29.320 -14.059  -5.202  0.00  0.00    -0.035 C 
ATOM     24  C   UNL d   1      30.798 -14.020  -5.507  0.00  0.00     0.050 C 
ATOM     25  C   UNL d   1      28.564 -15.245  -5.373  0.00  0.00     0.041 C 
ATOM     26  C   UNL d   1      27.152 -15.091  -5.259  0.00  0.00     0.046 C 
BRANCH  25  27
ATOM     27  N   UNL d   1      29.290 -16.519  -5.505  0.00  0.00    -0.327 N 
ATOM     28  C   UNL d   1      30.154 -17.292  -4.719  0.00  0.00     0.218 C 
ATOM     29  C   UNL d   1      30.533 -16.839  -3.366  0.00  0.00     0.117 C 
ATOM     30  O   UNL d   1      30.687 -18.304  -5.161  0.00  0.00    -0.274 OA
ATOM     31  H   UNL d   1      29.348 -16.890  -6.447  0.00  0.00     0.169 HD
ENDBRANCH  25  27
ENDBRANCH   2  20
TORSDOF 5
ENDMDL
MODEL 5
REMARK VINA RESULT:    -8.281      2.524      8.349
REMARK INTER + INTRA:         -11.542
REMARK INTER:                  -9.773
REMARK INTRA:                  -1.770
REMARK CONF_INDEPENDENT:        1.492
REMARK UNBOUND:                -1.770
REMARK  5 active torsions:
REMARK  status: ('A' for Active; 'I' for Inactive)
REMARK    1  A    between atoms: C_2  and  C_3 
REMARK    2  A    between atoms: C_3  and  N_4 
REMARK    3  A    between atoms: C_3  and  C_18 
REMARK       I    between atoms: N_4  and  C_5 
REMARK    4  A    between atoms: C_5  and  C_7 
REMARK    5  A    between atoms: C_12  and  N_13 
REMARK       I    between atoms: N_13  and  C_14 
ROOT
ATOM      1  N   UNL d   1      25.556 -12.412  -3.585  0.00  0.00    -0.247 NA
ATOM      2  C   UNL d   1      25.074 -13.741  -3.568  0.00  0.00     0.231 C 
ATOM      3  O   UNL d   1      24.091 -14.018  -4.281  0.00  0.00    -0.274 OA
ATOM      4  H   UNL d   1      24.784 -11.824  -3.882  0.00  0.00     0.131 HD
ENDROOT
BRANCH   1   5
ATOM      5  C   UNL d   1      26.754 -11.933  -4.392  0.00  0.00     0.132 C 
BRANCH   5   6
ATOM      6  C   UNL d   1      26.442 -11.900  -5.855  0.00  0.00     0.023 C 
ATOM      7  C   UNL d   1      25.862 -10.611  -6.373  0.00  0.00     0.007 C 
ENDBRANCH   5   6
BRANCH   5   8
ATOM      8  C   UNL d   1      27.903 -12.940  -4.295  0.00  0.00     0.122 A 
ATOM      9  N   UNL d   1      28.027 -14.000  -5.068  0.00  0.00    -0.232 NA
ATOM     10  C   UNL d   1      29.047 -14.746  -4.538  0.00  0.00     0.084 A 
ATOM     11  C   UNL d   1      29.604 -15.898  -5.197  0.00  0.00    -0.006 A 
ATOM     12  C   UNL d   1      29.560 -14.153  -3.410  0.00  0.00     0.122 A 
ATOM     13  C   UNL d   1      29.812 -17.106  -4.526  0.00  0.00     0.014 A 
ATOM     14  C   UNL d   1      30.004 -15.761  -6.531  0.00  0.00     0.014 A 
ATOM     15  C   UNL d   1      30.488 -18.144  -5.169  0.00  0.00     0.001 A 
ATOM     16  C   UNL d   1      30.886 -18.001  -6.499  0.00  0.00     0.000 A 
ATOM     17  C   UNL d   1      30.643 -16.811  -7.182  0.00  0.00     0.001 A 
ATOM     18  N   UNL d   1      28.796 -13.029  -3.234  0.00  0.00    -0.351 N 
ATOM     19  H   UNL d   1      28.863 -12.397  -2.447  0.00  0.00     0.166 HD
ENDBRANCH   5   8
ENDBRANCH   1   5
BRANCH   2  20
ATOM     20  C   UNL d   1      25.713 -14.844  -2.680  0.00  0.00     0.028 C 
ATOM     21  C   UNL d   1      26.586 -14.496  -1.637  0.00  0.00     0.017 C 
ATOM     22  C   UNL d   1      26.845 -15.431  -0.616  0.00  0.00     0.010 C 
ATOM     23  C   UNL d   1      26.153 -16.675  -0.548  0.00  0.00    -0.035 C 
ATOM     24  C   UNL d   1      26.455 -17.604   0.603  0.00  0.00     0.050 C 
ATOM     25  C   UNL d   1      25.219 -17.027  -1.553  0.00  0.00     0.041 C 
ATOM     26  C   UNL d   1      25.189 -16.166  -2.687  0.00  0.00     0.046 C 
BRANCH  25  27
ATOM     27  N   UNL d   1      24.290 -18.136  -1.279  0.00  0.00    -0.327 N 
ATOM     28  C   UNL d   1      22.968 -18.280  -0.840  0.00  0.00     0.218 C 
ATOM     29  C   UNL d   1      22.155 -17.087  -0.525  0.00  0.00     0.117 C 
ATOM     30  O   UNL d   1      22.484 -19.384  -0.618  0.00  0.00    -0.274 OA
ATOM     31  H   UNL d   1      24.715 -19.055  -1.217  0.00  0.00     0.169 HD
ENDBRANCH  25  27
ENDBRANCH   2  20
TORSDOF 5
ENDMDL
MODEL 6
REMARK VINA RESULT:    -8.195      3.474      5.463
REMARK INTER + INTRA:         -11.563
REMARK INTER:                  -9.686
REMARK INTRA:                  -1.877
REMARK CONF_INDEPENDENT:        1.492
REMARK UNBOUND:                -1.877
REMARK  5 active torsions:
REMARK  status: ('A' for Active; 'I' for Inactive)
REMARK    1  A    between atoms: C_2  and  C_3 
REMARK    2  A    between atoms: C_3  and  N_4 
REMARK    3  A    between atoms: C_3  and  C_18 
REMARK       I    between atoms: N_4  and  C_5 
REMARK    4  A    between atoms: C_5  and  C_7 
REMARK    5  A    between atoms: C_12  and  N_13 
REMARK       I    between atoms: N_13  and  C_14 
ROOT
ATOM      1  N   UNL d   1      25.803 -16.698  -1.538  0.00  0.00    -0.247 NA
ATOM      2  C   UNL d   1      25.599 -15.415  -2.093  0.00  0.00     0.231 C 
ATOM      3  O   UNL d   1      24.689 -15.276  -2.933  0.00  0.00    -0.274 OA
ATOM      4  H   UNL d   1      25.424 -17.368  -2.200  0.00  0.00     0.131 HD
ENDROOT
BRANCH   1   5
ATOM      5  C   UNL d   1      25.287 -17.149  -0.178  0.00  0.00     0.132 C 
BRANCH   5   6
ATOM      6  C   UNL d   1      25.789 -18.516   0.164  0.00  0.00     0.023 C 
ATOM      7  C   UNL d   1      27.267 -18.626   0.429  0.00  0.00     0.007 C 
ENDBRANCH   5   6
BRANCH   5   8
ATOM      8  C   UNL d   1      23.767 -17.324  -0.212  0.00  0.00     0.122 A 
ATOM      9  N   UNL d   1      23.133 -18.384   0.247  0.00  0.00    -0.232 NA
ATOM     10  C   UNL d   1      21.828 -18.255  -0.152  0.00  0.00     0.084 A 
ATOM     11  C   UNL d   1      20.777 -19.127   0.301  0.00  0.00    -0.006 A 
ATOM     12  C   UNL d   1      21.646 -17.106  -0.884  0.00  0.00     0.122 A 
ATOM     13  C   UNL d   1      19.865 -19.708  -0.583  0.00  0.00     0.014 A 
ATOM     14  C   UNL d   1      20.643 -19.332   1.678  0.00  0.00     0.014 A 
ATOM     15  C   UNL d   1      18.778 -20.426  -0.081  0.00  0.00     0.001 A 
ATOM     16  C   UNL d   1      18.649 -20.626   1.295  0.00  0.00     0.000 A 
ATOM     17  C   UNL d   1      19.581 -20.082   2.175  0.00  0.00     0.001 A 
ATOM     18  N   UNL d   1      22.892 -16.544  -0.958  0.00  0.00    -0.351 N 
ATOM     19  H   UNL d   1      23.127 -15.718  -1.493  0.00  0.00     0.166 HD
ENDBRANCH   5   8
ENDBRANCH   1   5
BRANCH   2  20
ATOM     20  C   UNL d   1      26.480 -14.195  -1.708  0.00  0.00     0.028 C 
ATOM     21  C   UNL d   1      26.556 -13.080  -2.558  0.00  0.00     0.017 C 
ATOM     22  C   UNL d   1      27.021 -11.854  -2.044  0.00  0.00     0.010 C 
ATOM     23  C   UNL d   1      27.303 -11.682  -0.657  0.00  0.00    -0.035 C 
ATOM     24  C   UNL d   1      27.753 -10.323  -0.177  0.00  0.00     0.050 C 
ATOM     25  C   UNL d   1      27.175 -12.774   0.236  0.00  0.00     0.041 C 
ATOM     26  C   UNL d   1      26.953 -14.041  -0.376  0.00  0.00     0.046 C 
BRANCH  25  27
ATOM     27  N   UNL d   1      27.139 -12.489   1.680  0.00  0.00    -0.327 N 
ATOM     28  C   UNL d   1      27.862 -12.870   2.818  0.00  0.00     0.218 C 
ATOM     29  C   UNL d   1      28.998 -13.806   2.698  0.00  0.00     0.117 C 
ATOM     30  O   UNL d   1      27.520 -12.515   3.940  0.00  0.00    -0.274 OA
ATOM     31  H   UNL d   1      26.293 -12.039   2.014  0.00  0.00     0.169 HD
ENDBRANCH  25  27
ENDBRANCH   2  20
TORSDOF 5
ENDMDL
MODEL 7
REMARK VINA RESULT:    -8.057      5.497      8.794
REMARK INTER + INTRA:         -11.421
REMARK INTER:                  -9.549
REMARK INTRA:                  -1.872
REMARK CONF_INDEPENDENT:        1.492
REMARK UNBOUND:                -1.872
REMARK  5 active torsions:
REMARK  status: ('A' for Active; 'I' for Inactive)
REMARK    1  A    between atoms: C_2  and  C_3 
REMARK    2  A    between atoms: C_3  and  N_4 
REMARK    3  A    between atoms: C_3  and  C_18 
REMARK       I    between atoms: N_4  and  C_5 
REMARK    4  A    between atoms: C_5  and  C_7 
REMARK    5  A    between atoms: C_12  and  N_13 
REMARK       I    between atoms: N_13  and  C_14 
ROOT
ATOM      1  N   UNL d   1      28.084 -13.607   1.350  0.00  0.00    -0.247 NA
ATOM      2  C   UNL d   1      28.515 -14.896   0.963  0.00  0.00     0.231 C 
ATOM      3  O   UNL d   1      29.675 -15.242   1.258  0.00  0.00    -0.274 OA
ATOM      4  H   UNL d   1      28.919 -13.042   1.466  0.00  0.00     0.131 HD
ENDROOT
BRANCH   1   5
ATOM      5  C   UNL d   1      27.228 -13.308   2.573  0.00  0.00     0.132 C 
BRANCH   5   6
ATOM      6  C   UNL d   1      27.030 -11.835   2.746  0.00  0.00     0.023 C 
ATOM      7  C   UNL d   1      27.184 -11.002   1.502  0.00  0.00     0.007 C 
ENDBRANCH   5   6
BRANCH   5   8
ATOM      8  C   UNL d   1      27.958 -13.722   3.853  0.00  0.00     0.122 A 
ATOM      9  N   UNL d   1      28.092 -12.951   4.913  0.00  0.00    -0.232 NA
ATOM     10  C   UNL d   1      28.971 -13.591   5.747  0.00  0.00     0.084 A 
ATOM     11  C   UNL d   1      29.244 -13.151   7.089  0.00  0.00    -0.006 A 
ATOM     12  C   UNL d   1      29.407 -14.772   5.195  0.00  0.00     0.122 A 
ATOM     13  C   UNL d   1      30.548 -13.022   7.575  0.00  0.00     0.014 A 
ATOM     14  C   UNL d   1      28.156 -12.917   7.937  0.00  0.00     0.014 A 
ATOM     15  C   UNL d   1      30.756 -12.734   8.925  0.00  0.00     0.001 A 
ATOM     16  C   UNL d   1      29.666 -12.502   9.766  0.00  0.00     0.000 A 
ATOM     17  C   UNL d   1      28.366 -12.591   9.273  0.00  0.00     0.001 A 
ATOM     18  N   UNL d   1      28.796 -14.826   3.970  0.00  0.00    -0.351 N 
ATOM     19  H   UNL d   1      28.958 -15.537   3.269  0.00  0.00     0.166 HD
ENDBRANCH   5   8
ENDBRANCH   1   5
BRANCH   2  20
ATOM     20  C   UNL d   1      27.603 -15.872   0.170  0.00  0.00     0.028 C 
ATOM     21  C   UNL d   1      27.030 -16.983   0.810  0.00  0.00     0.017 C 
ATOM     22  C   UNL d   1      25.924 -17.623   0.218  0.00  0.00     0.010 C 
ATOM     23  C   UNL d   1      25.295 -17.103  -0.951  0.00  0.00    -0.035 C 
ATOM     24  C   UNL d   1      24.086 -17.823  -1.499  0.00  0.00     0.050 C 
ATOM     25  C   UNL d   1      25.813 -15.946  -1.583  0.00  0.00     0.041 C 
ATOM     26  C   UNL d   1      27.073 -15.496  -1.095  0.00  0.00     0.046 C 
BRANCH  25  27
ATOM     27  N   UNL d   1      24.961 -15.250  -2.561  0.00  0.00    -0.327 N 
ATOM     28  C   UNL d   1      25.148 -14.450  -3.696  0.00  0.00     0.218 C 
ATOM     29  C   UNL d   1      26.511 -14.129  -4.163  0.00  0.00     0.117 C 
ATOM     30  O   UNL d   1      24.201 -13.924  -4.270  0.00  0.00    -0.274 OA
ATOM     31  H   UNL d   1      23.987 -15.154  -2.299  0.00  0.00     0.169 HD
ENDBRANCH  25  27
ENDBRANCH   2  20
TORSDOF 5
ENDMDL
MODEL 8
REMARK VINA RESULT:    -7.907      3.737      7.233
REMARK INTER + INTRA:         -11.504
REMARK INTER:                  -9.398
REMARK INTRA:                  -2.106
REMARK CONF_INDEPENDENT:        1.492
REMARK UNBOUND:                -2.106
REMARK  5 active torsions:
REMARK  status: ('A' for Active; 'I' for Inactive)
REMARK    1  A    between atoms: C_2  and  C_3 
REMARK    2  A    between atoms: C_3  and  N_4 
REMARK    3  A    between atoms: C_3  and  C_18 
REMARK       I    between atoms: N_4  and  C_5 
REMARK    4  A    between atoms: C_5  and  C_7 
REMARK    5  A    between atoms: C_12  and  N_13 
REMARK       I    between atoms: N_13  and  C_14 
ROOT
ATOM      1  N   UNL d   1      24.780 -14.114  -4.270  0.00  0.00    -0.247 NA
ATOM      2  C   UNL d   1      25.569 -15.250  -3.981  0.00  0.00     0.231 C 
ATOM      3  O   UNL d   1      26.101 -15.853  -4.932  0.00  0.00    -0.274 OA
ATOM      4  H   UNL d   1      24.470 -14.208  -5.232  0.00  0.00     0.131 HD
ENDROOT
BRANCH   1   5
ATOM      5  C   UNL d   1      25.254 -12.673  -4.146  0.00  0.00     0.132 C 
BRANCH   5   6
ATOM      6  C   UNL d   1      26.053 -12.262  -5.342  0.00  0.00     0.023 C 
ATOM      7  C   UNL d   1      25.918 -10.821  -5.758  0.00  0.00     0.007 C 
ENDBRANCH   5   6
BRANCH   5   8
ATOM      8  C   UNL d   1      26.246 -12.532  -2.989  0.00  0.00     0.122 A 
ATOM      9  N   UNL d   1      25.986 -12.873  -1.743  0.00  0.00    -0.232 NA
ATOM     10  C   UNL d   1      27.030 -12.404  -0.989  0.00  0.00     0.084 A 
ATOM     11  C   UNL d   1      27.202 -12.728   0.403  0.00  0.00    -0.006 A 
ATOM     12  C   UNL d   1      27.950 -11.748  -1.771  0.00  0.00     0.122 A 
ATOM     13  C   UNL d   1      27.478 -11.749   1.361  0.00  0.00     0.014 A 
ATOM     14  C   UNL d   1      27.155 -14.075   0.774  0.00  0.00     0.014 A 
ATOM     15  C   UNL d   1      27.781 -12.130   2.669  0.00  0.00     0.001 A 
ATOM     16  C   UNL d   1      27.734 -13.477   3.034  0.00  0.00     0.000 A 
ATOM     17  C   UNL d   1      27.419 -14.450   2.088  0.00  0.00     0.001 A 
ATOM     18  N   UNL d   1      27.422 -11.792  -3.034  0.00  0.00    -0.351 N 
ATOM     19  H   UNL d   1      27.816 -11.334  -3.846  0.00  0.00     0.166 HD
ENDBRANCH   5   8
ENDBRANCH   1   5
BRANCH   2  20
ATOM     20  C   UNL d   1      25.770 -15.773  -2.533  0.00  0.00     0.028 C 
ATOM     21  C   UNL d   1      24.744 -16.482  -1.887  0.00  0.00     0.017 C 
ATOM     22  C   UNL d   1      25.055 -17.274  -0.765  0.00  0.00     0.010 C 
ATOM     23  C   UNL d   1      26.400 -17.471  -0.338  0.00  0.00    -0.035 C 
ATOM     24  C   UNL d   1      26.655 -18.371   0.848  0.00  0.00     0.050 C 
ATOM     25  C   UNL d   1      27.464 -16.818  -1.009  0.00  0.00     0.041 C 
ATOM     26  C   UNL d   1      27.072 -15.837  -1.964  0.00  0.00     0.046 C 
BRANCH  25  27
ATOM     27  N   UNL d   1      28.834 -17.300  -0.771  0.00  0.00    -0.327 N 
ATOM     28  C   UNL d   1      30.011 -17.450  -1.515  0.00  0.00     0.218 C 
ATOM     29  C   UNL d   1      30.044 -17.065  -2.940  0.00  0.00     0.117 C 
ATOM     30  O   UNL d   1      31.006 -17.984  -1.038  0.00  0.00    -0.274 OA
ATOM     31  H   UNL d   1      28.968 -17.822   0.089  0.00  0.00     0.169 HD
ENDBRANCH  25  27
ENDBRANCH   2  20
TORSDOF 5
ENDMDL
MODEL 9
REMARK VINA RESULT:    -7.809      2.863      7.739
REMARK INTER + INTRA:         -11.468
REMARK INTER:                  -9.301
REMARK INTRA:                  -2.168
REMARK CONF_INDEPENDENT:        1.492
REMARK UNBOUND:                -2.168
REMARK  5 active torsions:
REMARK  status: ('A' for Active; 'I' for Inactive)
REMARK    1  A    between atoms: C_2  and  C_3 
REMARK    2  A    between atoms: C_3  and  N_4 
REMARK    3  A    between atoms: C_3  and  C_18 
REMARK       I    between atoms: N_4  and  C_5 
REMARK    4  A    between atoms: C_5  and  C_7 
REMARK    5  A    between atoms: C_12  and  N_13 
REMARK       I    between atoms: N_13  and  C_14 
ROOT
ATOM      1  N   UNL d   1      24.907 -13.985  -4.394  0.00  0.00    -0.247 NA
ATOM      2  C   UNL d   1      25.806 -15.070  -4.502  0.00  0.00     0.231 C 
ATOM      3  O   UNL d   1      26.281 -15.330  -5.625  0.00  0.00    -0.274 OA
ATOM      4  H   UNL d   1      24.507 -13.843  -5.316  0.00  0.00     0.131 HD
ENDROOT
BRANCH   1   5
ATOM      5  C   UNL d   1      25.280 -12.593  -3.903  0.00  0.00     0.132 C 
BRANCH   5   6
ATOM      6  C   UNL d   1      25.895 -11.781  -4.999  0.00  0.00     0.023 C 
ATOM      7  C   UNL d   1      26.135 -10.328  -4.683  0.00  0.00     0.007 C 
ENDBRANCH   5   6
BRANCH   5   8
ATOM      8  C   UNL d   1      26.390 -12.675  -2.853  0.00  0.00     0.122 A 
ATOM      9  N   UNL d   1      26.179 -12.711  -1.552  0.00  0.00    -0.232 NA
ATOM     10  C   UNL d   1      27.407 -12.569  -0.959  0.00  0.00     0.084 A 
ATOM     11  C   UNL d   1      27.621 -12.732   0.455  0.00  0.00    -0.006 A 
ATOM     12  C   UNL d   1      28.398 -12.427  -1.900  0.00  0.00     0.122 A 
ATOM     13  C   UNL d   1      28.347 -11.804   1.205  0.00  0.00     0.014 A 
ATOM     14  C   UNL d   1      27.135 -13.895   1.062  0.00  0.00     0.014 A 
ATOM     15  C   UNL d   1      28.651 -12.081   2.538  0.00  0.00     0.001 A 
ATOM     16  C   UNL d   1      28.165 -13.244   3.139  0.00  0.00     0.000 A 
ATOM     17  C   UNL d   1      27.405 -14.151   2.402  0.00  0.00     0.001 A 
ATOM     18  N   UNL d   1      27.739 -12.447  -3.101  0.00  0.00    -0.351 N 
ATOM     19  H   UNL d   1      28.168 -12.292  -4.004  0.00  0.00     0.166 HD
ENDBRANCH   5   8
ENDBRANCH   1   5
BRANCH   2  20
ATOM     20  C   UNL d   1      26.196 -15.949  -3.283  0.00  0.00     0.028 C 
ATOM     21  C   UNL d   1      27.446 -15.788  -2.665  0.00  0.00     0.017 C 
ATOM     22  C   UNL d   1      27.640 -16.287  -1.362  0.00  0.00     0.010 C 
ATOM     23  C   UNL d   1      26.567 -16.845  -0.608  0.00  0.00    -0.035 C 
ATOM     24  C   UNL d   1      26.845 -17.317   0.799  0.00  0.00     0.050 C 
ATOM     25  C   UNL d   1      25.277 -16.964  -1.183  0.00  0.00     0.041 C 
ATOM     26  C   UNL d   1      25.203 -16.683  -2.578  0.00  0.00     0.046 C 
BRANCH  25  27
ATOM     27  N   UNL d   1      24.138 -17.218  -0.287  0.00  0.00    -0.327 N 
ATOM     28  C   UNL d   1      23.002 -18.037  -0.281  0.00  0.00     0.218 C 
ATOM     29  C   UNL d   1      22.737 -18.949  -1.412  0.00  0.00     0.117 C 
ATOM     30  O   UNL d   1      22.158 -17.954   0.605  0.00  0.00    -0.274 OA
ATOM     31  H   UNL d   1      24.003 -16.534   0.450  0.00  0.00     0.169 HD
ENDBRANCH  25  27
ENDBRANCH   2  20
TORSDOF 5
ENDMDL
