MODEL 1
REMARK VINA RESULT:    -7.588      0.000      0.000
REMARK INTER + INTRA:         -11.369
REMARK INTER:                  -9.677
REMARK INTRA:                  -1.693
REMARK CONF_INDEPENDENT:        2.088
REMARK UNBOUND:                -1.693
REMARK  7 active torsions:
REMARK  status: ('A' for Active; 'I' for Inactive)
REMARK    1  A    between atoms: O_2  and  C_3 
REMARK    2  A    between atoms: C_6  and  O_7 
REMARK    3  A    between atoms: O_7  and  C_8 
REMARK    4  A    between atoms: C_8  and  C_9 
REMARK       I    between atoms: C_9  and  N_11 
REMARK    5  A    between atoms: N_11  and  N_12 
REMARK       I    between atoms: N_12  and  C_13 
REMARK       I    between atoms: C_13  and  N_15 
REMARK    6  A    between atoms: N_15  and  C_16 
REMARK    7  A    between atoms: C_16  and  C_17 
ROOT
ATOM      1  C   UNL d   1      27.369 -16.010  -0.170  0.00  0.00     0.260 C 
ATOM      2  O   UNL d   1      28.036 -17.047  -0.126  0.00  0.00    -0.269 OA
ATOM      3  N   UNL d   1      27.598 -14.978   0.739  0.00  0.00    -0.264 N 
ATOM      4  H   UNL d   1      27.100 -14.089   0.756  0.00  0.00     0.190 HD
ENDROOT
BRANCH   3   5
ATOM      5  N   UNL d   1      28.633 -15.118   1.725  0.00  0.00    -0.249 N 
ATOM      6  C   UNL d   1      28.730 -14.176   2.733  0.00  0.00     0.334 C 
ATOM      7  O   UNL d   1      27.940 -13.230   2.807  0.00  0.00    -0.246 OA
ATOM      8  N   UNL d   1      29.747 -14.386   3.638  0.00  0.00    -0.341 N 
ATOM      9  H   UNL d   1      30.310 -15.221   3.560  0.00  0.00     0.164 HD
ATOM     10  H   UNL d   1      29.272 -15.899   1.604  0.00  0.00     0.192 HD
BRANCH   8  11
ATOM     11  C   UNL d   1      29.887 -13.603   4.877  0.00  0.00     0.133 C 
BRANCH  11  12
ATOM     12  C   UNL d   1      28.698 -13.800   5.864  0.00  0.00    -0.028 C 
ATOM     13  C   UNL d   1      28.061 -15.173   5.617  0.00  0.00     0.016 C 
ATOM     14  C   UNL d   1      29.131 -13.657   7.341  0.00  0.00     0.011 C 
ATOM     15  C   UNL d   1      29.278 -12.156   7.566  0.00  0.00     0.001 C 
ATOM     16  C   UNL d   1      28.335 -11.497   6.558  0.00  0.00     0.001 C 
ATOM     17  C   UNL d   1      27.695 -12.640   5.764  0.00  0.00     0.011 C 
ENDBRANCH  11  12
ENDBRANCH   8  11
ENDBRANCH   3   5
BRANCH   1  18
ATOM     18  C   UNL d   1      26.238 -15.772  -1.219  0.00  0.00     0.280 C 
BRANCH  18  19
ATOM     19  O   UNL d   1      24.941 -15.674  -0.604  0.00  0.00    -0.342 OA
BRANCH  19  20
ATOM     20  C   UNL d   1      24.088 -16.748  -0.667  0.00  0.00     0.069 A 
ATOM     21  C   UNL d   1      22.730 -16.456  -0.872  0.00  0.00     0.039 A 
ATOM     22  C   UNL d   1      21.761 -17.475  -0.877  0.00  0.00     0.039 A 
ATOM     23  C   UNL d   1      22.143 -18.810  -0.741  0.00  0.00     0.068 A 
ATOM     24  C   UNL d   1      23.495 -19.108  -0.589  0.00  0.00     0.039 A 
ATOM     25  C   UNL d   1      24.459 -18.085  -0.545  0.00  0.00     0.039 A 
BRANCH  23  26
ATOM     26  O   UNL d   1      21.150 -19.743  -0.877  0.00  0.00    -0.356 OA
ATOM     27  C   UNL d   1      19.829 -19.295  -0.587  0.00  0.00     0.210 C 
ENDBRANCH  23  26
ENDBRANCH  19  20
ENDBRANCH  18  19
ENDBRANCH   1  18
TORSDOF 7
ENDMDL
MODEL 2
REMARK VINA RESULT:    -7.513      1.966      3.322
REMARK INTER + INTRA:         -10.678
REMARK INTER:                  -9.601
REMARK INTRA:                  -1.077
REMARK CONF_INDEPENDENT:        2.088
REMARK UNBOUND:                -1.077
REMARK  7 active torsions:
REMARK  status: ('A' for Active; 'I' for Inactive)
REMARK    1  A    between atoms: O_2  and  C_3 
REMARK    2  A    between atoms: C_6  and  O_7 
REMARK    3  A    between atoms: O_7  and  C_8 
REMARK    4  A    between atoms: C_8  and  C_9 
REMARK       I    between atoms: C_9  and  N_11 
REMARK    5  A    between atoms: N_11  and  N_12 
REMARK       I    between atoms: N_12  and  C_13 
REMARK       I    between atoms: C_13  and  N_15 
REMARK    6  A    between atoms: N_15  and  C_16 
REMARK    7  A    between atoms: C_16  and  C_17 
ROOT
ATOM      1  C   UNL d   1      27.470 -13.984   2.468  0.00  0.00     0.260 C 
ATOM      2  O   UNL d   1      26.654 -13.444   3.219  0.00  0.00    -0.269 OA
ATOM      3  N   UNL d   1      28.459 -14.824   2.979  0.00  0.00    -0.264 N 
ATOM      4  H   UNL d   1      29.157 -15.316   2.422  0.00  0.00     0.190 HD
ENDROOT
BRANCH   3   5
ATOM      5  N   UNL d   1      28.517 -15.075   4.392  0.00  0.00    -0.249 N 
ATOM      6  C   UNL d   1      28.597 -14.002   5.260  0.00  0.00     0.334 C 
ATOM      7  O   UNL d   1      28.608 -12.839   4.846  0.00  0.00    -0.246 OA
ATOM      8  N   UNL d   1      28.646 -14.330   6.597  0.00  0.00    -0.341 N 
ATOM      9  H   UNL d   1      28.558 -15.299   6.870  0.00  0.00     0.164 HD
ATOM     10  H   UNL d   1      28.531 -16.050   4.679  0.00  0.00     0.192 HD
BRANCH   8  11
ATOM     11  C   UNL d   1      28.541 -13.326   7.670  0.00  0.00     0.133 C 
BRANCH  11  12
ATOM     12  C   UNL d   1      29.459 -13.635   8.890  0.00  0.00    -0.028 C 
ATOM     13  C   UNL d   1      30.896 -13.846   8.398  0.00  0.00     0.016 C 
ATOM     14  C   UNL d   1      29.406 -12.522   9.961  0.00  0.00     0.011 C 
ATOM     15  C   UNL d   1      28.086 -12.742  10.694  0.00  0.00     0.001 C 
ATOM     16  C   UNL d   1      27.780 -14.232  10.545  0.00  0.00     0.001 C 
ATOM     17  C   UNL d   1      28.918 -14.819   9.706  0.00  0.00     0.011 C 
ENDBRANCH  11  12
ENDBRANCH   8  11
ENDBRANCH   3   5
BRANCH   1  18
ATOM     18  C   UNL d   1      27.467 -13.777   0.921  0.00  0.00     0.280 C 
BRANCH  18  19
ATOM     19  O   UNL d   1      27.857 -14.968   0.215  0.00  0.00    -0.342 OA
BRANCH  19  20
ATOM     20  C   UNL d   1      26.942 -15.978   0.049  0.00  0.00     0.069 A 
ATOM     21  C   UNL d   1      25.827 -15.686  -0.752  0.00  0.00     0.039 A 
ATOM     22  C   UNL d   1      24.793 -16.623  -0.926  0.00  0.00     0.039 A 
ATOM     23  C   UNL d   1      24.888 -17.891  -0.352  0.00  0.00     0.068 A 
ATOM     24  C   UNL d   1      26.017 -18.203   0.402  0.00  0.00     0.039 A 
ATOM     25  C   UNL d   1      27.032 -17.251   0.606  0.00  0.00     0.039 A 
BRANCH  23  26
ATOM     26  O   UNL d   1      23.895 -18.779  -0.671  0.00  0.00    -0.356 OA
ATOM     27  C   UNL d   1      22.569 -18.376  -0.341  0.00  0.00     0.210 C 
ENDBRANCH  23  26
ENDBRANCH  19  20
ENDBRANCH  18  19
ENDBRANCH   1  18
TORSDOF 7
ENDMDL
MODEL 3
REMARK VINA RESULT:    -7.374      5.487      9.348
REMARK INTER + INTRA:         -11.273
REMARK INTER:                  -9.462
REMARK INTRA:                  -1.811
REMARK CONF_INDEPENDENT:        2.088
REMARK UNBOUND:                -1.811
REMARK  7 active torsions:
REMARK  status: ('A' for Active; 'I' for Inactive)
REMARK    1  A    between atoms: O_2  and  C_3 
REMARK    2  A    between atoms: C_6  and  O_7 
REMARK    3  A    between atoms: O_7  and  C_8 
REMARK    4  A    between atoms: C_8  and  C_9 
REMARK       I    between atoms: C_9  and  N_11 
REMARK    5  A    between atoms: N_11  and  N_12 
REMARK       I    between atoms: N_12  and  C_13 
REMARK       I    between atoms: C_13  and  N_15 
REMARK    6  A    between atoms: N_15  and  C_16 
REMARK    7  A    between atoms: C_16  and  C_17 
ROOT
ATOM      1  C   UNL d   1      25.819 -17.235  -0.681  0.00  0.00     0.260 C 
ATOM      2  O   UNL d   1      26.268 -17.612   0.405  0.00  0.00    -0.269 OA
ATOM      3  N   UNL d   1      24.478 -17.438  -1.006  0.00  0.00    -0.264 N 
ATOM      4  H   UNL d   1      24.033 -17.143  -1.873  0.00  0.00     0.190 HD
ENDROOT
BRANCH   3   5
ATOM      5  N   UNL d   1      23.608 -18.078  -0.058  0.00  0.00    -0.249 N 
ATOM      6  C   UNL d   1      22.539 -18.820  -0.524  0.00  0.00     0.334 C 
ATOM      7  O   UNL d   1      22.328 -18.953  -1.733  0.00  0.00    -0.246 OA
ATOM      8  N   UNL d   1      21.757 -19.402   0.449  0.00  0.00    -0.341 N 
ATOM      9  H   UNL d   1      22.031 -19.313   1.418  0.00  0.00     0.164 HD
ATOM     10  H   UNL d   1      23.811 -17.916   0.925  0.00  0.00     0.192 HD
BRANCH   8  11
ATOM     11  C   UNL d   1      20.697 -20.377   0.144  0.00  0.00     0.133 C 
BRANCH  11  12
ATOM     12  C   UNL d   1      19.267 -19.761   0.185  0.00  0.00    -0.028 C 
ATOM     13  C   UNL d   1      19.155 -18.677  -0.894  0.00  0.00     0.016 C 
ATOM     14  C   UNL d   1      18.162 -20.827   0.005  0.00  0.00     0.011 C 
ATOM     15  C   UNL d   1      18.071 -21.532   1.355  0.00  0.00     0.001 C 
ATOM     16  C   UNL d   1      18.545 -20.506   2.385  0.00  0.00     0.001 C 
ATOM     17  C   UNL d   1      18.922 -19.251   1.593  0.00  0.00     0.011 C 
ENDBRANCH  11  12
ENDBRANCH   8  11
ENDBRANCH   3   5
BRANCH   1  18
ATOM     18  C   UNL d   1      26.692 -16.519  -1.759  0.00  0.00     0.280 C 
BRANCH  18  19
ATOM     19  O   UNL d   1      25.953 -16.246  -2.961  0.00  0.00    -0.342 OA
BRANCH  19  20
ATOM     20  C   UNL d   1      26.137 -15.046  -3.602  0.00  0.00     0.069 A 
ATOM     21  C   UNL d   1      25.426 -13.949  -3.092  0.00  0.00     0.039 A 
ATOM     22  C   UNL d   1      25.483 -12.692  -3.719  0.00  0.00     0.039 A 
ATOM     23  C   UNL d   1      26.303 -12.496  -4.830  0.00  0.00     0.068 A 
ATOM     24  C   UNL d   1      27.050 -13.569  -5.309  0.00  0.00     0.039 A 
ATOM     25  C   UNL d   1      26.962 -14.836  -4.704  0.00  0.00     0.039 A 
BRANCH  23  26
ATOM     26  O   UNL d   1      26.391 -11.214  -5.303  0.00  0.00    -0.356 OA
ATOM     27  C   UNL d   1      26.125 -11.043  -6.693  0.00  0.00     0.210 C 
ENDBRANCH  23  26
ENDBRANCH  19  20
ENDBRANCH  18  19
ENDBRANCH   1  18
TORSDOF 7
ENDMDL
MODEL 4
REMARK VINA RESULT:    -7.167      0.806      1.888
REMARK INTER + INTRA:         -11.107
REMARK INTER:                  -9.255
REMARK INTRA:                  -1.852
REMARK CONF_INDEPENDENT:        2.088
REMARK UNBOUND:                -1.852
REMARK  7 active torsions:
REMARK  status: ('A' for Active; 'I' for Inactive)
REMARK    1  A    between atoms: O_2  and  C_3 
REMARK    2  A    between atoms: C_6  and  O_7 
REMARK    3  A    between atoms: O_7  and  C_8 
REMARK    4  A    between atoms: C_8  and  C_9 
REMARK       I    between atoms: C_9  and  N_11 
REMARK    5  A    between atoms: N_11  and  N_12 
REMARK       I    between atoms: N_12  and  C_13 
REMARK       I    between atoms: C_13  and  N_15 
REMARK    6  A    between atoms: N_15  and  C_16 
REMARK    7  A    between atoms: C_16  and  C_17 
ROOT
ATOM      1  C   UNL d   1      27.666 -16.328  -0.475  0.00  0.00     0.260 C 
ATOM      2  O   UNL d   1      28.721 -16.960  -0.571  0.00  0.00    -0.269 OA
ATOM      3  N   UNL d   1      27.473 -15.419   0.564  0.00  0.00    -0.264 N 
ATOM      4  H   UNL d   1      26.638 -14.851   0.701  0.00  0.00     0.190 HD
ENDROOT
BRANCH   3   5
ATOM      5  N   UNL d   1      28.522 -15.204   1.523  0.00  0.00    -0.249 N 
ATOM      6  C   UNL d   1      28.569 -14.004   2.207  0.00  0.00     0.334 C 
ATOM      7  O   UNL d   1      27.724 -13.123   2.019  0.00  0.00    -0.246 OA
ATOM      8  N   UNL d   1      29.603 -13.881   3.109  0.00  0.00    -0.341 N 
ATOM      9  H   UNL d   1      30.215 -14.670   3.266  0.00  0.00     0.164 HD
ATOM     10  H   UNL d   1      29.206 -15.950   1.620  0.00  0.00     0.192 HD
BRANCH   8  11
ATOM     11  C   UNL d   1      29.704 -12.761   4.059  0.00  0.00     0.133 C 
BRANCH  11  12
ATOM     12  C   UNL d   1      29.300 -13.153   5.512  0.00  0.00    -0.028 C 
ATOM     13  C   UNL d   1      30.169 -12.369   6.504  0.00  0.00     0.016 C 
ATOM     14  C   UNL d   1      27.799 -12.909   5.790  0.00  0.00     0.011 C 
ATOM     15  C   UNL d   1      27.079 -14.067   5.106  0.00  0.00     0.001 C 
ATOM     16  C   UNL d   1      28.088 -15.215   5.076  0.00  0.00     0.001 C 
ATOM     17  C   UNL d   1      29.369 -14.674   5.717  0.00  0.00     0.011 C 
ENDBRANCH  11  12
ENDBRANCH   8  11
ENDBRANCH   3   5
BRANCH   1  18
ATOM     18  C   UNL d   1      26.484 -16.490  -1.482  0.00  0.00     0.280 C 
BRANCH  18  19
ATOM     19  O   UNL d   1      25.245 -15.993  -0.948  0.00  0.00    -0.342 OA
BRANCH  19  20
ATOM     20  C   UNL d   1      24.152 -16.822  -0.909  0.00  0.00     0.069 A 
ATOM     21  C   UNL d   1      24.414 -18.201  -0.880  0.00  0.00     0.039 A 
ATOM     22  C   UNL d   1      23.367 -19.139  -0.915  0.00  0.00     0.039 A 
ATOM     23  C   UNL d   1      22.039 -18.713  -0.917  0.00  0.00     0.068 A 
ATOM     24  C   UNL d   1      21.774 -17.346  -0.895  0.00  0.00     0.039 A 
ATOM     25  C   UNL d   1      22.822 -16.408  -0.898  0.00  0.00     0.039 A 
BRANCH  23  26
ATOM     26  O   UNL d   1      21.086 -19.693  -0.831  0.00  0.00    -0.356 OA
ATOM     27  C   UNL d   1      20.162 -19.571   0.247  0.00  0.00     0.210 C 
ENDBRANCH  23  26
ENDBRANCH  19  20
ENDBRANCH  18  19
ENDBRANCH   1  18
TORSDOF 7
ENDMDL
MODEL 5
REMARK VINA RESULT:    -7.088      1.626      2.413
REMARK INTER + INTRA:         -10.735
REMARK INTER:                  -9.177
REMARK INTRA:                  -1.559
REMARK CONF_INDEPENDENT:        2.088
REMARK UNBOUND:                -1.559
REMARK  7 active torsions:
REMARK  status: ('A' for Active; 'I' for Inactive)
REMARK    1  A    between atoms: O_2  and  C_3 
REMARK    2  A    between atoms: C_6  and  O_7 
REMARK    3  A    between atoms: O_7  and  C_8 
REMARK    4  A    between atoms: C_8  and  C_9 
REMARK       I    between atoms: C_9  and  N_11 
REMARK    5  A    between atoms: N_11  and  N_12 
REMARK       I    between atoms: N_12  and  C_13 
REMARK       I    between atoms: C_13  and  N_15 
REMARK    6  A    between atoms: N_15  and  C_16 
REMARK    7  A    between atoms: C_16  and  C_17 
ROOT
ATOM      1  C   UNL d   1      27.618 -15.056   1.309  0.00  0.00     0.260 C 
ATOM      2  O   UNL d   1      27.347 -14.006   0.722  0.00  0.00    -0.269 OA
ATOM      3  N   UNL d   1      27.952 -15.049   2.662  0.00  0.00    -0.264 N 
ATOM      4  H   UNL d   1      28.173 -15.874   3.218  0.00  0.00     0.190 HD
ENDROOT
BRANCH   3   5
ATOM      5  N   UNL d   1      27.964 -13.806   3.383  0.00  0.00    -0.249 N 
ATOM      6  C   UNL d   1      27.766 -13.823   4.751  0.00  0.00     0.334 C 
ATOM      7  O   UNL d   1      27.593 -14.882   5.363  0.00  0.00    -0.246 OA
ATOM      8  N   UNL d   1      27.795 -12.591   5.366  0.00  0.00    -0.341 N 
ATOM      9  H   UNL d   1      28.016 -11.772   4.815  0.00  0.00     0.164 HD
ATOM     10  H   UNL d   1      28.085 -12.962   2.830  0.00  0.00     0.192 HD
BRANCH   8  11
ATOM     11  C   UNL d   1      27.795 -12.428   6.829  0.00  0.00     0.133 C 
BRANCH  11  12
ATOM     12  C   UNL d   1      29.223 -12.461   7.450  0.00  0.00    -0.028 C 
ATOM     13  C   UNL d   1      30.210 -11.805   6.477  0.00  0.00     0.016 C 
ATOM     14  C   UNL d   1      29.279 -11.771   8.832  0.00  0.00     0.011 C 
ATOM     15  C   UNL d   1      28.661 -12.776   9.799  0.00  0.00     0.001 C 
ATOM     16  C   UNL d   1      28.900 -14.149   9.171  0.00  0.00     0.001 C 
ATOM     17  C   UNL d   1      29.623 -13.891   7.846  0.00  0.00     0.011 C 
ENDBRANCH  11  12
ENDBRANCH   8  11
ENDBRANCH   3   5
BRANCH   1  18
ATOM     18  C   UNL d   1      27.613 -16.449   0.604  0.00  0.00     0.280 C 
BRANCH  18  19
ATOM     19  O   UNL d   1      26.837 -16.441  -0.607  0.00  0.00    -0.342 OA
BRANCH  19  20
ATOM     20  C   UNL d   1      25.554 -16.928  -0.583  0.00  0.00     0.069 A 
ATOM     21  C   UNL d   1      24.543 -16.048  -1.000  0.00  0.00     0.039 A 
ATOM     22  C   UNL d   1      23.188 -16.420  -0.943  0.00  0.00     0.039 A 
ATOM     23  C   UNL d   1      22.827 -17.701  -0.527  0.00  0.00     0.068 A 
ATOM     24  C   UNL d   1      23.830 -18.595  -0.161  0.00  0.00     0.039 A 
ATOM     25  C   UNL d   1      25.182 -18.209  -0.182  0.00  0.00     0.039 A 
BRANCH  23  26
ATOM     26  O   UNL d   1      21.497 -18.017  -0.617  0.00  0.00    -0.356 OA
ATOM     27  C   UNL d   1      21.137 -19.327  -0.186  0.00  0.00     0.210 C 
ENDBRANCH  23  26
ENDBRANCH  19  20
ENDBRANCH  18  19
ENDBRANCH   1  18
TORSDOF 7
ENDMDL
MODEL 6
REMARK VINA RESULT:    -6.965      5.709      7.993
REMARK INTER + INTRA:         -10.623
REMARK INTER:                  -9.053
REMARK INTRA:                  -1.570
REMARK CONF_INDEPENDENT:        2.088
REMARK UNBOUND:                -1.570
REMARK  7 active torsions:
REMARK  status: ('A' for Active; 'I' for Inactive)
REMARK    1  A    between atoms: O_2  and  C_3 
REMARK    2  A    between atoms: C_6  and  O_7 
REMARK    3  A    between atoms: O_7  and  C_8 
REMARK    4  A    between atoms: C_8  and  C_9 
REMARK       I    between atoms: C_9  and  N_11 
REMARK    5  A    between atoms: N_11  and  N_12 
REMARK       I    between atoms: N_12  and  C_13 
REMARK       I    between atoms: C_13  and  N_15 
REMARK    6  A    between atoms: N_15  and  C_16 
REMARK    7  A    between atoms: C_16  and  C_17 
ROOT
ATOM      1  C   UNL d   1      24.830 -17.125  -0.831  0.00  0.00     0.260 C 
ATOM      2  O   UNL d   1      25.904 -17.544  -0.391  0.00  0.00    -0.269 OA
ATOM      3  N   UNL d   1      24.795 -16.311  -1.963  0.00  0.00    -0.264 N 
ATOM      4  H   UNL d   1      23.949 -15.940  -2.393  0.00  0.00     0.190 HD
ENDROOT
BRANCH   3   5
ATOM      5  N   UNL d   1      26.020 -15.972  -2.632  0.00  0.00    -0.249 N 
ATOM      6  C   UNL d   1      25.974 -15.138  -3.733  0.00  0.00     0.334 C 
ATOM      7  O   UNL d   1      24.906 -14.673  -4.143  0.00  0.00    -0.246 OA
ATOM      8  N   UNL d   1      27.192 -14.861  -4.313  0.00  0.00    -0.341 N 
ATOM      9  H   UNL d   1      28.035 -15.216  -3.881  0.00  0.00     0.164 HD
ATOM     10  H   UNL d   1      26.867 -16.402  -2.270  0.00  0.00     0.192 HD
BRANCH   8  11
ATOM     11  C   UNL d   1      27.362 -13.849  -5.369  0.00  0.00     0.133 C 
BRANCH  11  12
ATOM     12  C   UNL d   1      28.696 -14.005  -6.159  0.00  0.00    -0.028 C 
ATOM     13  C   UNL d   1      29.232 -15.429  -5.964  0.00  0.00     0.016 C 
ATOM     14  C   UNL d   1      28.531 -13.685  -7.662  0.00  0.00     0.011 C 
ATOM     15  C   UNL d   1      28.477 -12.162  -7.736  0.00  0.00     0.001 C 
ATOM     16  C   UNL d   1      29.254 -11.665  -6.517  0.00  0.00     0.001 C 
ATOM     17  C   UNL d   1      29.707 -12.918  -5.761  0.00  0.00     0.011 C 
ENDBRANCH  11  12
ENDBRANCH   8  11
ENDBRANCH   3   5
BRANCH   1  18
ATOM     18  C   UNL d   1      23.454 -17.459  -0.174  0.00  0.00     0.280 C 
BRANCH  18  19
ATOM     19  O   UNL d   1      22.640 -18.292  -1.017  0.00  0.00    -0.342 OA
BRANCH  19  20
ATOM     20  C   UNL d   1      21.478 -18.822  -0.513  0.00  0.00     0.069 A 
ATOM     21  C   UNL d   1      21.403 -18.949   0.882  0.00  0.00     0.039 A 
ATOM     22  C   UNL d   1      20.289 -19.549   1.498  0.00  0.00     0.039 A 
ATOM     23  C   UNL d   1      19.205 -19.973   0.730  0.00  0.00     0.068 A 
ATOM     24  C   UNL d   1      19.253 -19.802  -0.651  0.00  0.00     0.039 A 
ATOM     25  C   UNL d   1      20.384 -19.237  -1.268  0.00  0.00     0.039 A 
BRANCH  23  26
ATOM     26  O   UNL d   1      18.115 -20.434   1.420  0.00  0.00    -0.356 OA
ATOM     27  C   UNL d   1      17.881 -21.838   1.349  0.00  0.00     0.210 C 
ENDBRANCH  23  26
ENDBRANCH  19  20
ENDBRANCH  18  19
ENDBRANCH   1  18
TORSDOF 7
ENDMDL
MODEL 7
REMARK VINA RESULT:    -6.913      6.049      8.424
REMARK INTER + INTRA:         -10.672
REMARK INTER:                  -9.002
REMARK INTRA:                  -1.670
REMARK CONF_INDEPENDENT:        2.088
REMARK UNBOUND:                -1.670
REMARK  7 active torsions:
REMARK  status: ('A' for Active; 'I' for Inactive)
REMARK    1  A    between atoms: O_2  and  C_3 
REMARK    2  A    between atoms: C_6  and  O_7 
REMARK    3  A    between atoms: O_7  and  C_8 
REMARK    4  A    between atoms: C_8  and  C_9 
REMARK       I    between atoms: C_9  and  N_11 
REMARK    5  A    between atoms: N_11  and  N_12 
REMARK       I    between atoms: N_12  and  C_13 
REMARK       I    between atoms: C_13  and  N_15 
REMARK    6  A    between atoms: N_15  and  C_16 
REMARK    7  A    between atoms: C_16  and  C_17 
ROOT
ATOM      1  C   UNL d   1      25.320 -14.221  -2.960  0.00  0.00     0.260 C 
ATOM      2  O   UNL d   1      24.269 -14.450  -3.564  0.00  0.00    -0.269 OA
ATOM      3  N   UNL d   1      25.936 -12.973  -3.051  0.00  0.00    -0.264 N 
ATOM      4  H   UNL d   1      26.793 -12.704  -2.571  0.00  0.00     0.190 HD
ENDROOT
BRANCH   3   5
ATOM      5  N   UNL d   1      25.329 -11.939  -3.844  0.00  0.00    -0.249 N 
ATOM      6  C   UNL d   1      25.937 -10.699  -3.906  0.00  0.00     0.334 C 
ATOM      7  O   UNL d   1      26.991 -10.468  -3.306  0.00  0.00    -0.246 OA
ATOM      8  N   UNL d   1      25.293  -9.767  -4.689  0.00  0.00    -0.341 N 
ATOM      9  H   UNL d   1      24.474 -10.045  -5.212  0.00  0.00     0.164 HD
ATOM     10  H   UNL d   1      24.450 -12.173  -4.296  0.00  0.00     0.192 HD
BRANCH   8  11
ATOM     11  C   UNL d   1      25.885  -8.462  -5.027  0.00  0.00     0.133 C 
BRANCH  11  12
ATOM     12  C   UNL d   1      24.913  -7.267  -4.790  0.00  0.00    -0.028 C 
ATOM     13  C   UNL d   1      25.162  -6.685  -3.394  0.00  0.00     0.016 C 
ATOM     14  C   UNL d   1      25.053  -6.173  -5.872  0.00  0.00     0.011 C 
ATOM     15  C   UNL d   1      24.329  -6.730  -7.094  0.00  0.00     0.001 C 
ATOM     16  C   UNL d   1      23.280  -7.695  -6.542  0.00  0.00     0.001 C 
ATOM     17  C   UNL d   1      23.452  -7.687  -5.020  0.00  0.00     0.011 C 
ENDBRANCH  11  12
ENDBRANCH   8  11
ENDBRANCH   3   5
BRANCH   1  18
ATOM     18  C   UNL d   1      26.035 -15.282  -2.066  0.00  0.00     0.280 C 
BRANCH  18  19
ATOM     19  O   UNL d   1      25.313 -15.540  -0.849  0.00  0.00    -0.342 OA
BRANCH  19  20
ATOM     20  C   UNL d   1      24.455 -16.610  -0.793  0.00  0.00     0.069 A 
ATOM     21  C   UNL d   1      23.090 -16.325  -0.948  0.00  0.00     0.039 A 
ATOM     22  C   UNL d   1      22.120 -17.337  -0.832  0.00  0.00     0.039 A 
ATOM     23  C   UNL d   1      22.506 -18.661  -0.623  0.00  0.00     0.068 A 
ATOM     24  C   UNL d   1      23.863 -18.956  -0.520  0.00  0.00     0.039 A 
ATOM     25  C   UNL d   1      24.830 -17.937  -0.597  0.00  0.00     0.039 A 
BRANCH  23  26
ATOM     26  O   UNL d   1      21.505 -19.596  -0.642  0.00  0.00    -0.356 OA
ATOM     27  C   UNL d   1      20.181 -19.090  -0.786  0.00  0.00     0.210 C 
ENDBRANCH  23  26
ENDBRANCH  19  20
ENDBRANCH  18  19
ENDBRANCH   1  18
TORSDOF 7
ENDMDL
MODEL 8
REMARK VINA RESULT:    -6.671      5.630      7.204
REMARK INTER + INTRA:         -10.634
REMARK INTER:                  -8.759
REMARK INTRA:                  -1.876
REMARK CONF_INDEPENDENT:        2.088
REMARK UNBOUND:                -1.876
REMARK  7 active torsions:
REMARK  status: ('A' for Active; 'I' for Inactive)
REMARK    1  A    between atoms: O_2  and  C_3 
REMARK    2  A    between atoms: C_6  and  O_7 
REMARK    3  A    between atoms: O_7  and  C_8 
REMARK    4  A    between atoms: C_8  and  C_9 
REMARK       I    between atoms: C_9  and  N_11 
REMARK    5  A    between atoms: N_11  and  N_12 
REMARK       I    between atoms: N_12  and  C_13 
REMARK       I    between atoms: C_13  and  N_15 
REMARK    6  A    between atoms: N_15  and  C_16 
REMARK    7  A    between atoms: C_16  and  C_17 
ROOT
ATOM      1  C   UNL d   1      24.866 -17.498  -1.108  0.00  0.00     0.260 C 
ATOM      2  O   UNL d   1      26.028 -17.607  -0.708  0.00  0.00    -0.269 OA
ATOM      3  N   UNL d   1      24.473 -16.391  -1.859  0.00  0.00    -0.264 N 
ATOM      4  H   UNL d   1      23.539 -16.238  -2.235  0.00  0.00     0.190 HD
ENDROOT
BRANCH   3   5
ATOM      5  N   UNL d   1      25.437 -15.376  -2.184  0.00  0.00    -0.249 N 
ATOM      6  C   UNL d   1      25.121 -14.434  -3.145  0.00  0.00     0.334 C 
ATOM      7  O   UNL d   1      24.026 -14.442  -3.716  0.00  0.00    -0.246 OA
ATOM      8  N   UNL d   1      26.098 -13.497  -3.395  0.00  0.00    -0.341 N 
ATOM      9  H   UNL d   1      26.941 -13.505  -2.838  0.00  0.00     0.164 HD
ATOM     10  H   UNL d   1      26.332 -15.431  -1.704  0.00  0.00     0.192 HD
BRANCH   8  11
ATOM     11  C   UNL d   1      25.871 -12.312  -4.239  0.00  0.00     0.133 C 
BRANCH  11  12
ATOM     12  C   UNL d   1      26.565 -11.028  -3.694  0.00  0.00    -0.028 C 
ATOM     13  C   UNL d   1      27.288 -11.365  -2.384  0.00  0.00     0.016 C 
ATOM     14  C   UNL d   1      27.546 -10.411  -4.716  0.00  0.00     0.011 C 
ATOM     15  C   UNL d   1      26.659  -9.695  -5.731  0.00  0.00     0.001 C 
ATOM     16  C   UNL d   1      25.383  -9.330  -4.972  0.00  0.00     0.001 C 
ATOM     17  C   UNL d   1      25.562  -9.873  -3.551  0.00  0.00     0.011 C 
ENDBRANCH  11  12
ENDBRANCH   8  11
ENDBRANCH   3   5
BRANCH   1  18
ATOM     18  C   UNL d   1      23.762 -18.561  -0.812  0.00  0.00     0.280 C 
BRANCH  18  19
ATOM     19  O   UNL d   1      22.443 -18.069  -1.105  0.00  0.00    -0.342 OA
BRANCH  19  20
ATOM     20  C   UNL d   1      21.355 -18.708  -0.565  0.00  0.00     0.069 A 
ATOM     21  C   UNL d   1      21.395 -18.950   0.817  0.00  0.00     0.039 A 
ATOM     22  C   UNL d   1      20.367 -19.664   1.459  0.00  0.00     0.039 A 
ATOM     23  C   UNL d   1      19.251 -20.091   0.739  0.00  0.00     0.068 A 
ATOM     24  C   UNL d   1      19.183 -19.808  -0.623  0.00  0.00     0.039 A 
ATOM     25  C   UNL d   1      20.230 -19.128  -1.271  0.00  0.00     0.039 A 
BRANCH  23  26
ATOM     26  O   UNL d   1      18.246 -20.672   1.465  0.00  0.00    -0.356 OA
ATOM     27  C   UNL d   1      17.807 -21.950   1.012  0.00  0.00     0.210 C 
ENDBRANCH  23  26
ENDBRANCH  19  20
ENDBRANCH  18  19
ENDBRANCH   1  18
TORSDOF 7
ENDMDL
MODEL 9
REMARK VINA RESULT:    -6.593      4.510      7.550
REMARK INTER + INTRA:         -10.846
REMARK INTER:                  -8.681
REMARK INTRA:                  -2.165
REMARK CONF_INDEPENDENT:        2.088
REMARK UNBOUND:                -2.165
REMARK  7 active torsions:
REMARK  status: ('A' for Active; 'I' for Inactive)
REMARK    1  A    between atoms: O_2  and  C_3 
REMARK    2  A    between atoms: C_6  and  O_7 
REMARK    3  A    between atoms: O_7  and  C_8 
REMARK    4  A    between atoms: C_8  and  C_9 
REMARK       I    between atoms: C_9  and  N_11 
REMARK    5  A    between atoms: N_11  and  N_12 
REMARK       I    between atoms: N_12  and  C_13 
REMARK       I    between atoms: C_13  and  N_15 
REMARK    6  A    between atoms: N_15  and  C_16 
REMARK    7  A    between atoms: C_16  and  C_17 
ROOT
ATOM      1  C   UNL d   1      26.511 -15.726  -0.157  0.00  0.00     0.260 C 
ATOM      2  O   UNL d   1      26.883 -14.799   0.568  0.00  0.00    -0.269 OA
ATOM      3  N   UNL d   1      26.223 -15.505  -1.503  0.00  0.00    -0.264 N 
ATOM      4  H   UNL d   1      25.926 -16.220  -2.166  0.00  0.00     0.190 HD
ENDROOT
BRANCH   3   5
ATOM      5  N   UNL d   1      26.376 -14.187  -2.055  0.00  0.00    -0.249 N 
ATOM      6  C   UNL d   1      25.932 -13.943  -3.341  0.00  0.00     0.334 C 
ATOM      7  O   UNL d   1      25.398 -14.828  -4.016  0.00  0.00    -0.246 OA
ATOM      8  N   UNL d   1      26.114 -12.654  -3.791  0.00  0.00    -0.341 N 
ATOM      9  H   UNL d   1      26.490 -11.961  -3.159  0.00  0.00     0.164 HD
ATOM     10  H   UNL d   1      26.845 -13.502  -1.467  0.00  0.00     0.192 HD
BRANCH   8  11
ATOM     11  C   UNL d   1      25.537 -12.160  -5.053  0.00  0.00     0.133 C 
BRANCH  11  12
ATOM     12  C   UNL d   1      26.270 -10.904  -5.612  0.00  0.00    -0.028 C 
ATOM     13  C   UNL d   1      25.435  -9.656  -5.304  0.00  0.00     0.016 C 
ATOM     14  C   UNL d   1      27.701 -10.758  -5.045  0.00  0.00     0.011 C 
ATOM     15  C   UNL d   1      28.534 -11.784  -5.808  0.00  0.00     0.001 C 
ATOM     16  C   UNL d   1      27.824 -11.969  -7.150  0.00  0.00     0.001 C 
ATOM     17  C   UNL d   1      26.588 -11.067  -7.107  0.00  0.00     0.011 C 
ENDBRANCH  11  12
ENDBRANCH   8  11
ENDBRANCH   3   5
BRANCH   1  18
ATOM     18  C   UNL d   1      26.335 -17.189   0.358  0.00  0.00     0.280 C 
BRANCH  18  19
ATOM     19  O   UNL d   1      25.659 -18.023  -0.599  0.00  0.00    -0.342 OA
BRANCH  19  20
ATOM     20  C   UNL d   1      24.288 -17.991  -0.664  0.00  0.00     0.069 A 
ATOM     21  C   UNL d   1      23.631 -19.228  -0.584  0.00  0.00     0.039 A 
ATOM     22  C   UNL d   1      22.233 -19.317  -0.716  0.00  0.00     0.039 A 
ATOM     23  C   UNL d   1      21.465 -18.162  -0.867  0.00  0.00     0.068 A 
ATOM     24  C   UNL d   1      22.110 -16.928  -0.896  0.00  0.00     0.039 A 
ATOM     25  C   UNL d   1      23.511 -16.844  -0.802  0.00  0.00     0.039 A 
BRANCH  23  26
ATOM     26  O   UNL d   1      20.106 -18.331  -0.868  0.00  0.00    -0.356 OA
ATOM     27  C   UNL d   1      19.615 -19.435  -0.113  0.00  0.00     0.210 C 
ENDBRANCH  23  26
ENDBRANCH  19  20
ENDBRANCH  18  19
ENDBRANCH   1  18
TORSDOF 7
ENDMDL
