MODEL 1
REMARK VINA RESULT:    -8.448      0.000      0.000
REMARK INTER + INTRA:         -11.488
REMARK INTER:                 -10.536
REMARK INTRA:                  -0.951
REMARK CONF_INDEPENDENT:        2.088
REMARK UNBOUND:                -0.951
REMARK  7 active torsions:
REMARK  status: ('A' for Active; 'I' for Inactive)
REMARK    1  A    between atoms: C_5  and  C_6 
REMARK       I    between atoms: C_6  and  N_8 
REMARK    2  A    between atoms: N_8  and  C_9 
REMARK    3  A    between atoms: C_9  and  C_10 
REMARK    4  A    between atoms: C_10  and  N_11 
REMARK       I    between atoms: N_11  and  C_12 
REMARK       I    between atoms: C_12  and  N_14 
REMARK    5  A    between atoms: N_14  and  O_15 
REMARK    6  A    between atoms: O_15  and  C_16 
REMARK    7  A    between atoms: C_16  and  C_17 
ROOT
ATOM      1  C   UNL d   1      25.813 -18.522   0.095  0.00  0.00     0.144 C 
ENDROOT
BRANCH   1   2
ATOM      2  C   UNL d   1      26.894 -17.443   0.296  0.00  0.00     0.142 C 
BRANCH   2   3
ATOM      3  N   UNL d   1      27.019 -16.515  -0.828  0.00  0.00    -0.355 N 
ATOM      4  C   UNL d   1      25.981 -15.669  -1.192  0.00  0.00     0.251 C 
ATOM      5  O   UNL d   1      24.910 -15.661  -0.587  0.00  0.00    -0.268 OA
ATOM      6  H   UNL d   1      27.887 -16.517  -1.340  0.00  0.00     0.162 HD
BRANCH   4   7
ATOM      7  C   UNL d   1      26.178 -14.751  -2.367  0.00  0.00     0.035 A 
ATOM      8  C   UNL d   1      26.095 -13.355  -2.263  0.00  0.00     0.018 A 
ATOM      9  C   UNL d   1      26.327 -12.534  -3.377  0.00  0.00     0.011 A 
ATOM     10  C   UNL d   1      26.632 -13.089  -4.622  0.00  0.00    -0.023 A 
ATOM     11  C   UNL d   1      26.893 -12.217  -5.814  0.00  0.00     0.051 C 
ATOM     12  C   UNL d   1      26.695 -14.479  -4.728  0.00  0.00     0.123 A 
ATOM     13  C   UNL d   1      26.473 -15.307  -3.624  0.00  0.00     0.059 A 
ATOM     14  F   UNL d   1      26.980 -15.037  -5.914  0.00  0.00    -0.206 F 
ENDBRANCH   4   7
ENDBRANCH   2   3
ENDBRANCH   1   2
BRANCH   1  15
ATOM     15  N   UNL d   1      24.457 -18.090   0.433  0.00  0.00    -0.340 N 
ATOM     16  C   UNL d   1      23.442 -18.146  -0.504  0.00  0.00     0.340 C 
ATOM     17  O   UNL d   1      23.635 -18.555  -1.646  0.00  0.00    -0.245 OA
ATOM     18  N   UNL d   1      22.226 -17.710  -0.025  0.00  0.00    -0.216 N 
ATOM     19  H   UNL d   1      22.063 -17.369   0.909  0.00  0.00     0.199 HD
ATOM     20  H   UNL d   1      24.261 -17.751   1.361  0.00  0.00     0.164 HD
BRANCH  18  21
ATOM     21  O   UNL d   1      21.145 -17.762  -0.946  0.00  0.00    -0.272 OA
BRANCH  21  22
ATOM     22  C   UNL d   1      20.709 -19.110  -1.175  0.00  0.00     0.240 C 
BRANCH  22  23
ATOM     23  C   UNL d   1      19.897 -19.649  -0.012  0.00  0.00    -0.032 A 
ATOM     24  C   UNL d   1      20.298 -19.468   1.320  0.00  0.00     0.009 A 
ATOM     25  C   UNL d   1      19.618 -20.099   2.364  0.00  0.00     0.001 A 
ATOM     26  C   UNL d   1      18.472 -20.846   2.103  0.00  0.00     0.000 A 
ATOM     27  C   UNL d   1      18.028 -20.996   0.792  0.00  0.00     0.001 A 
ATOM     28  C   UNL d   1      18.740 -20.407  -0.260  0.00  0.00     0.009 A 
ENDBRANCH  22  23
ENDBRANCH  21  22
ENDBRANCH  18  21
ENDBRANCH   1  15
TORSDOF 7
ENDMDL
MODEL 2
REMARK VINA RESULT:    -8.268      4.414      5.685
REMARK INTER + INTRA:         -11.009
REMARK INTER:                 -10.356
REMARK INTRA:                  -0.653
REMARK CONF_INDEPENDENT:        2.088
REMARK UNBOUND:                -0.653
REMARK  7 active torsions:
REMARK  status: ('A' for Active; 'I' for Inactive)
REMARK    1  A    between atoms: C_5  and  C_6 
REMARK       I    between atoms: C_6  and  N_8 
REMARK    2  A    between atoms: N_8  and  C_9 
REMARK    3  A    between atoms: C_9  and  C_10 
REMARK    4  A    between atoms: C_10  and  N_11 
REMARK       I    between atoms: N_11  and  C_12 
REMARK       I    between atoms: C_12  and  N_14 
REMARK    5  A    between atoms: N_14  and  O_15 
REMARK    6  A    between atoms: O_15  and  C_16 
REMARK    7  A    between atoms: C_16  and  C_17 
ROOT
ATOM      1  C   UNL d   1      26.913 -17.747   0.032  0.00  0.00     0.144 C 
ENDROOT
BRANCH   1   2
ATOM      2  C   UNL d   1      27.109 -16.220   0.096  0.00  0.00     0.142 C 
BRANCH   2   3
ATOM      3  N   UNL d   1      27.775 -15.760   1.314  0.00  0.00    -0.355 N 
ATOM      4  C   UNL d   1      27.490 -14.523   1.875  0.00  0.00     0.251 C 
ATOM      5  O   UNL d   1      26.667 -13.758   1.375  0.00  0.00    -0.268 OA
ATOM      6  H   UNL d   1      28.460 -16.370   1.731  0.00  0.00     0.162 HD
BRANCH   4   7
ATOM      7  C   UNL d   1      28.225 -14.111   3.122  0.00  0.00     0.035 A 
ATOM      8  C   UNL d   1      29.624 -14.078   3.204  0.00  0.00     0.018 A 
ATOM      9  C   UNL d   1      30.267 -13.649   4.374  0.00  0.00     0.011 A 
ATOM     10  C   UNL d   1      29.528 -13.257   5.493  0.00  0.00    -0.023 A 
ATOM     11  C   UNL d   1      30.209 -12.785   6.743  0.00  0.00     0.051 C 
ATOM     12  C   UNL d   1      28.135 -13.310   5.417  0.00  0.00     0.123 A 
ATOM     13  C   UNL d   1      27.484 -13.729   4.254  0.00  0.00     0.059 A 
ATOM     14  F   UNL d   1      27.403 -12.945   6.479  0.00  0.00    -0.206 F 
ENDBRANCH   4   7
ENDBRANCH   2   3
ENDBRANCH   1   2
BRANCH   1  15
ATOM     15  N   UNL d   1      25.570 -18.200   0.394  0.00  0.00    -0.340 N 
ATOM     16  C   UNL d   1      24.453 -17.678  -0.233  0.00  0.00     0.340 C 
ATOM     17  O   UNL d   1      24.543 -16.821  -1.109  0.00  0.00    -0.245 OA
ATOM     18  N   UNL d   1      23.268 -18.214   0.218  0.00  0.00    -0.216 N 
ATOM     19  H   UNL d   1      23.188 -18.914   0.939  0.00  0.00     0.199 HD
ATOM     20  H   UNL d   1      25.459 -18.903   1.106  0.00  0.00     0.164 HD
BRANCH  18  21
ATOM     21  O   UNL d   1      22.090 -17.722  -0.406  0.00  0.00    -0.272 OA
BRANCH  21  22
ATOM     22  C   UNL d   1      21.329 -18.778  -1.010  0.00  0.00     0.240 C 
BRANCH  22  23
ATOM     23  C   UNL d   1      20.345 -19.398  -0.034  0.00  0.00    -0.032 A 
ATOM     24  C   UNL d   1      20.559 -19.371   1.352  0.00  0.00     0.009 A 
ATOM     25  C   UNL d   1      19.719 -20.075   2.218  0.00  0.00     0.001 A 
ATOM     26  C   UNL d   1      18.601 -20.740   1.723  0.00  0.00     0.000 A 
ATOM     27  C   UNL d   1      18.343 -20.736   0.355  0.00  0.00     0.001 A 
ATOM     28  C   UNL d   1      19.213 -20.075  -0.520  0.00  0.00     0.009 A 
ENDBRANCH  22  23
ENDBRANCH  21  22
ENDBRANCH  18  21
ENDBRANCH   1  15
TORSDOF 7
ENDMDL
MODEL 3
REMARK VINA RESULT:    -8.084      6.382      9.489
REMARK INTER + INTRA:         -10.796
REMARK INTER:                 -10.172
REMARK INTRA:                  -0.624
REMARK CONF_INDEPENDENT:        2.088
REMARK UNBOUND:                -0.624
REMARK  7 active torsions:
REMARK  status: ('A' for Active; 'I' for Inactive)
REMARK    1  A    between atoms: C_5  and  C_6 
REMARK       I    between atoms: C_6  and  N_8 
REMARK    2  A    between atoms: N_8  and  C_9 
REMARK    3  A    between atoms: C_9  and  C_10 
REMARK    4  A    between atoms: C_10  and  N_11 
REMARK       I    between atoms: N_11  and  C_12 
REMARK       I    between atoms: C_12  and  N_14 
REMARK    5  A    between atoms: N_14  and  O_15 
REMARK    6  A    between atoms: O_15  and  C_16 
REMARK    7  A    between atoms: C_16  and  C_17 
ROOT
ATOM      1  C   UNL d   1      28.009 -14.081   1.704  0.00  0.00     0.144 C 
ENDROOT
BRANCH   1   2
ATOM      2  C   UNL d   1      27.878 -14.960   0.446  0.00  0.00     0.142 C 
BRANCH   2   3
ATOM      3  N   UNL d   1      26.540 -15.519   0.251  0.00  0.00    -0.355 N 
ATOM      4  C   UNL d   1      26.354 -16.827  -0.173  0.00  0.00     0.251 C 
ATOM      5  O   UNL d   1      27.303 -17.575  -0.403  0.00  0.00    -0.268 OA
ATOM      6  H   UNL d   1      25.752 -14.915   0.425  0.00  0.00     0.162 HD
BRANCH   4   7
ATOM      7  C   UNL d   1      24.948 -17.328  -0.365  0.00  0.00     0.035 A 
ATOM      8  C   UNL d   1      24.586 -18.669  -0.167  0.00  0.00     0.018 A 
ATOM      9  C   UNL d   1      23.255 -19.085  -0.318  0.00  0.00     0.011 A 
ATOM     10  C   UNL d   1      22.259 -18.176  -0.681  0.00  0.00    -0.023 A 
ATOM     11  C   UNL d   1      20.832 -18.611  -0.831  0.00  0.00     0.051 C 
ATOM     12  C   UNL d   1      22.624 -16.846  -0.896  0.00  0.00     0.123 A 
ATOM     13  C   UNL d   1      23.946 -16.418  -0.743  0.00  0.00     0.059 A 
ATOM     14  F   UNL d   1      21.688 -15.954  -1.252  0.00  0.00    -0.206 F 
ENDBRANCH   4   7
ENDBRANCH   2   3
ENDBRANCH   1   2
BRANCH   1  15
ATOM     15  N   UNL d   1      28.618 -14.754   2.851  0.00  0.00    -0.340 N 
ATOM     16  C   UNL d   1      28.235 -14.441   4.143  0.00  0.00     0.340 C 
ATOM     17  O   UNL d   1      27.378 -13.594   4.377  0.00  0.00    -0.245 OA
ATOM     18  N   UNL d   1      28.899 -15.169   5.105  0.00  0.00    -0.216 N 
ATOM     19  H   UNL d   1      29.607 -15.862   4.919  0.00  0.00     0.199 HD
ATOM     20  H   UNL d   1      29.324 -15.457   2.697  0.00  0.00     0.164 HD
BRANCH  18  21
ATOM     21  O   UNL d   1      28.530 -14.896   6.449  0.00  0.00    -0.272 OA
BRANCH  21  22
ATOM     22  C   UNL d   1      29.500 -14.069   7.109  0.00  0.00     0.240 C 
BRANCH  22  23
ATOM     23  C   UNL d   1      29.176 -13.877   8.579  0.00  0.00    -0.032 A 
ATOM     24  C   UNL d   1      29.543 -14.821   9.548  0.00  0.00     0.009 A 
ATOM     25  C   UNL d   1      29.105 -14.697  10.869  0.00  0.00     0.001 A 
ATOM     26  C   UNL d   1      28.373 -13.580  11.262  0.00  0.00     0.000 A 
ATOM     27  C   UNL d   1      28.043 -12.604  10.325  0.00  0.00     0.001 A 
ATOM     28  C   UNL d   1      28.435 -12.755   8.990  0.00  0.00     0.009 A 
ENDBRANCH  22  23
ENDBRANCH  21  22
ENDBRANCH  18  21
ENDBRANCH   1  15
TORSDOF 7
ENDMDL
MODEL 4
REMARK VINA RESULT:    -8.001      3.285      9.537
REMARK INTER + INTRA:         -11.266
REMARK INTER:                 -10.089
REMARK INTRA:                  -1.177
REMARK CONF_INDEPENDENT:        2.088
REMARK UNBOUND:                -1.177
REMARK  7 active torsions:
REMARK  status: ('A' for Active; 'I' for Inactive)
REMARK    1  A    between atoms: C_5  and  C_6 
REMARK       I    between atoms: C_6  and  N_8 
REMARK    2  A    between atoms: N_8  and  C_9 
REMARK    3  A    between atoms: C_9  and  C_10 
REMARK    4  A    between atoms: C_10  and  N_11 
REMARK       I    between atoms: N_11  and  C_12 
REMARK       I    between atoms: C_12  and  N_14 
REMARK    5  A    between atoms: N_14  and  O_15 
REMARK    6  A    between atoms: O_15  and  C_16 
REMARK    7  A    between atoms: C_16  and  C_17 
ROOT
ATOM      1  C   UNL d   1      24.504 -16.852  -0.134  0.00  0.00     0.144 C 
ENDROOT
BRANCH   1   2
ATOM      2  C   UNL d   1      24.476 -18.331  -0.564  0.00  0.00     0.142 C 
BRANCH   2   3
ATOM      3  N   UNL d   1      23.247 -19.032  -0.194  0.00  0.00    -0.355 N 
ATOM      4  C   UNL d   1      21.997 -18.460  -0.389  0.00  0.00     0.251 C 
ATOM      5  O   UNL d   1      21.867 -17.341  -0.882  0.00  0.00    -0.268 OA
ATOM      6  H   UNL d   1      23.337 -19.946   0.221  0.00  0.00     0.162 HD
BRANCH   4   7
ATOM      7  C   UNL d   1      20.777 -19.236   0.028  0.00  0.00     0.035 A 
ATOM      8  C   UNL d   1      19.793 -19.651  -0.881  0.00  0.00     0.018 A 
ATOM      9  C   UNL d   1      18.692 -20.407  -0.455  0.00  0.00     0.011 A 
ATOM     10  C   UNL d   1      18.541 -20.754   0.890  0.00  0.00    -0.023 A 
ATOM     11  C   UNL d   1      17.373 -21.574   1.351  0.00  0.00     0.051 C 
ATOM     12  C   UNL d   1      19.511 -20.324   1.797  0.00  0.00     0.123 A 
ATOM     13  C   UNL d   1      20.616 -19.575   1.382  0.00  0.00     0.059 A 
ATOM     14  F   UNL d   1      19.386 -20.639   3.094  0.00  0.00    -0.206 F 
ENDBRANCH   4   7
ENDBRANCH   2   3
ENDBRANCH   1   2
BRANCH   1  15
ATOM     15  N   UNL d   1      24.110 -15.911  -1.182  0.00  0.00    -0.340 N 
ATOM     16  C   UNL d   1      24.940 -15.662  -2.259  0.00  0.00     0.340 C 
ATOM     17  O   UNL d   1      26.031 -16.213  -2.378  0.00  0.00    -0.245 OA
ATOM     18  N   UNL d   1      24.419 -14.757  -3.158  0.00  0.00    -0.216 N 
ATOM     19  H   UNL d   1      23.527 -14.298  -3.063  0.00  0.00     0.199 HD
ATOM     20  H   UNL d   1      23.221 -15.441  -1.118  0.00  0.00     0.164 HD
BRANCH  18  21
ATOM     21  O   UNL d   1      25.228 -14.479  -4.292  0.00  0.00    -0.272 OA
BRANCH  21  22
ATOM     22  C   UNL d   1      26.477 -13.879  -3.919  0.00  0.00     0.240 C 
BRANCH  22  23
ATOM     23  C   UNL d   1      27.614 -14.333  -4.816  0.00  0.00    -0.032 A 
ATOM     24  C   UNL d   1      27.730 -13.898  -6.144  0.00  0.00     0.009 A 
ATOM     25  C   UNL d   1      28.696 -14.442  -6.993  0.00  0.00     0.001 A 
ATOM     26  C   UNL d   1      29.620 -15.361  -6.504  0.00  0.00     0.000 A 
ATOM     27  C   UNL d   1      29.554 -15.768  -5.174  0.00  0.00     0.001 A 
ATOM     28  C   UNL d   1      28.553 -15.263  -4.336  0.00  0.00     0.009 A 
ENDBRANCH  22  23
ENDBRANCH  21  22
ENDBRANCH  18  21
ENDBRANCH   1  15
TORSDOF 7
ENDMDL
MODEL 5
REMARK VINA RESULT:    -7.822      1.705      2.095
REMARK INTER + INTRA:         -10.715
REMARK INTER:                  -9.910
REMARK INTRA:                  -0.805
REMARK CONF_INDEPENDENT:        2.088
REMARK UNBOUND:                -0.805
REMARK  7 active torsions:
REMARK  status: ('A' for Active; 'I' for Inactive)
REMARK    1  A    between atoms: C_5  and  C_6 
REMARK       I    between atoms: C_6  and  N_8 
REMARK    2  A    between atoms: N_8  and  C_9 
REMARK    3  A    between atoms: C_9  and  C_10 
REMARK    4  A    between atoms: C_10  and  N_11 
REMARK       I    between atoms: N_11  and  C_12 
REMARK       I    between atoms: C_12  and  N_14 
REMARK    5  A    between atoms: N_14  and  O_15 
REMARK    6  A    between atoms: O_15  and  C_16 
REMARK    7  A    between atoms: C_16  and  C_17 
ROOT
ATOM      1  C   UNL d   1      25.941 -17.676  -0.285  0.00  0.00     0.144 C 
ENDROOT
BRANCH   1   2
ATOM      2  C   UNL d   1      26.781 -16.390  -0.156  0.00  0.00     0.142 C 
BRANCH   2   3
ATOM      3  N   UNL d   1      27.597 -16.097  -1.334  0.00  0.00    -0.355 N 
ATOM      4  C   UNL d   1      27.023 -15.837  -2.570  0.00  0.00     0.251 C 
ATOM      5  O   UNL d   1      25.804 -15.841  -2.732  0.00  0.00    -0.268 OA
ATOM      6  H   UNL d   1      28.599 -16.100  -1.220  0.00  0.00     0.162 HD
BRANCH   4   7
ATOM      7  C   UNL d   1      27.927 -15.556  -3.740  0.00  0.00     0.035 A 
ATOM      8  C   UNL d   1      29.222 -16.084  -3.844  0.00  0.00     0.018 A 
ATOM      9  C   UNL d   1      30.016 -15.828  -4.971  0.00  0.00     0.011 A 
ATOM     10  C   UNL d   1      29.541 -15.029  -6.013  0.00  0.00    -0.023 A 
ATOM     11  C   UNL d   1      30.379 -14.762  -7.228  0.00  0.00     0.051 C 
ATOM     12  C   UNL d   1      28.259 -14.488  -5.900  0.00  0.00     0.123 A 
ATOM     13  C   UNL d   1      27.456 -14.741  -4.784  0.00  0.00     0.059 A 
ATOM     14  F   UNL d   1      27.781 -13.712  -6.884  0.00  0.00    -0.206 F 
ENDBRANCH   4   7
ENDBRANCH   2   3
ENDBRANCH   1   2
BRANCH   1  15
ATOM     15  N   UNL d   1      24.568 -17.551   0.202  0.00  0.00    -0.340 N 
ATOM     16  C   UNL d   1      23.497 -17.631  -0.670  0.00  0.00     0.340 C 
ATOM     17  O   UNL d   1      23.654 -17.806  -1.875  0.00  0.00    -0.245 OA
ATOM     18  N   UNL d   1      22.273 -17.501  -0.052  0.00  0.00    -0.216 N 
ATOM     19  H   UNL d   1      22.138 -17.353   0.936  0.00  0.00     0.199 HD
ATOM     20  H   UNL d   1      24.400 -17.409   1.185  0.00  0.00     0.164 HD
BRANCH  18  21
ATOM     21  O   UNL d   1      21.139 -17.592  -0.903  0.00  0.00    -0.272 OA
BRANCH  21  22
ATOM     22  C   UNL d   1      20.765 -18.956  -1.144  0.00  0.00     0.240 C 
BRANCH  22  23
ATOM     23  C   UNL d   1      19.975 -19.541   0.012  0.00  0.00    -0.032 A 
ATOM     24  C   UNL d   1      20.397 -19.406   1.342  0.00  0.00     0.009 A 
ATOM     25  C   UNL d   1      19.737 -20.078   2.374  0.00  0.00     0.001 A 
ATOM     26  C   UNL d   1      18.590 -20.820   2.105  0.00  0.00     0.000 A 
ATOM     27  C   UNL d   1      18.124 -20.924   0.797  0.00  0.00     0.001 A 
ATOM     28  C   UNL d   1      18.816 -20.295  -0.245  0.00  0.00     0.009 A 
ENDBRANCH  22  23
ENDBRANCH  21  22
ENDBRANCH  18  21
ENDBRANCH   1  15
TORSDOF 7
ENDMDL
MODEL 6
REMARK VINA RESULT:    -7.696      2.205      2.857
REMARK INTER + INTRA:         -10.493
REMARK INTER:                  -9.784
REMARK INTRA:                  -0.709
REMARK CONF_INDEPENDENT:        2.088
REMARK UNBOUND:                -0.709
REMARK  7 active torsions:
REMARK  status: ('A' for Active; 'I' for Inactive)
REMARK    1  A    between atoms: C_5  and  C_6 
REMARK       I    between atoms: C_6  and  N_8 
REMARK    2  A    between atoms: N_8  and  C_9 
REMARK    3  A    between atoms: C_9  and  C_10 
REMARK    4  A    between atoms: C_10  and  N_11 
REMARK       I    between atoms: N_11  and  C_12 
REMARK       I    between atoms: C_12  and  N_14 
REMARK    5  A    between atoms: N_14  and  O_15 
REMARK    6  A    between atoms: O_15  and  C_16 
REMARK    7  A    between atoms: C_16  and  C_17 
ROOT
ATOM      1  C   UNL d   1      26.062 -16.105  -0.909  0.00  0.00     0.144 C 
ENDROOT
BRANCH   1   2
ATOM      2  C   UNL d   1      26.258 -15.952  -2.429  0.00  0.00     0.142 C 
BRANCH   2   3
ATOM      3  N   UNL d   1      26.456 -14.569  -2.864  0.00  0.00    -0.355 N 
ATOM      4  C   UNL d   1      25.511 -13.906  -3.634  0.00  0.00     0.251 C 
ATOM      5  O   UNL d   1      24.465 -14.449  -3.986  0.00  0.00    -0.268 OA
ATOM      6  H   UNL d   1      27.313 -14.113  -2.593  0.00  0.00     0.162 HD
BRANCH   4   7
ATOM      7  C   UNL d   1      25.791 -12.489  -4.055  0.00  0.00     0.035 A 
ATOM      8  C   UNL d   1      26.095 -12.134  -5.377  0.00  0.00     0.018 A 
ATOM      9  C   UNL d   1      26.309 -10.794  -5.733  0.00  0.00     0.011 A 
ATOM     10  C   UNL d   1      26.237  -9.781  -4.774  0.00  0.00    -0.023 A 
ATOM     11  C   UNL d   1      26.451  -8.345  -5.150  0.00  0.00     0.051 C 
ATOM     12  C   UNL d   1      25.953 -10.137  -3.455  0.00  0.00     0.123 A 
ATOM     13  C   UNL d   1      25.731 -11.468  -3.090  0.00  0.00     0.059 A 
ATOM     14  F   UNL d   1      25.883  -9.183  -2.515  0.00  0.00    -0.206 F 
ENDBRANCH   4   7
ENDBRANCH   2   3
ENDBRANCH   1   2
BRANCH   1  15
ATOM     15  N   UNL d   1      25.448 -17.369  -0.503  0.00  0.00    -0.340 N 
ATOM     16  C   UNL d   1      24.173 -17.704  -0.924  0.00  0.00     0.340 C 
ATOM     17  O   UNL d   1      23.513 -16.962  -1.646  0.00  0.00    -0.245 OA
ATOM     18  N   UNL d   1      23.745 -18.929  -0.460  0.00  0.00    -0.216 N 
ATOM     19  H   UNL d   1      24.282 -19.539   0.136  0.00  0.00     0.199 HD
ATOM     20  H   UNL d   1      25.961 -18.003   0.087  0.00  0.00     0.164 HD
BRANCH  18  21
ATOM     21  O   UNL d   1      22.448 -19.327  -0.877  0.00  0.00    -0.272 OA
BRANCH  21  22
ATOM     22  C   UNL d   1      21.427 -18.499  -0.301  0.00  0.00     0.240 C 
BRANCH  22  23
ATOM     23  C   UNL d   1      20.329 -19.321   0.349  0.00  0.00    -0.032 A 
ATOM     24  C   UNL d   1      20.253 -19.490   1.738  0.00  0.00     0.009 A 
ATOM     25  C   UNL d   1      19.325 -20.369   2.302  0.00  0.00     0.001 A 
ATOM     26  C   UNL d   1      18.399 -21.023   1.494  0.00  0.00     0.000 A 
ATOM     27  C   UNL d   1      18.425 -20.828   0.115  0.00  0.00     0.001 A 
ATOM     28  C   UNL d   1      19.388 -19.988  -0.455  0.00  0.00     0.009 A 
ENDBRANCH  22  23
ENDBRANCH  21  22
ENDBRANCH  18  21
ENDBRANCH   1  15
TORSDOF 7
ENDMDL
MODEL 7
REMARK VINA RESULT:    -7.275      3.231      9.855
REMARK INTER + INTRA:         -10.613
REMARK INTER:                  -9.363
REMARK INTRA:                  -1.250
REMARK CONF_INDEPENDENT:        2.088
REMARK UNBOUND:                -1.250
REMARK  7 active torsions:
REMARK  status: ('A' for Active; 'I' for Inactive)
REMARK    1  A    between atoms: C_5  and  C_6 
REMARK       I    between atoms: C_6  and  N_8 
REMARK    2  A    between atoms: N_8  and  C_9 
REMARK    3  A    between atoms: C_9  and  C_10 
REMARK    4  A    between atoms: C_10  and  N_11 
REMARK       I    between atoms: N_11  and  C_12 
REMARK       I    between atoms: C_12  and  N_14 
REMARK    5  A    between atoms: N_14  and  O_15 
REMARK    6  A    between atoms: O_15  and  C_16 
REMARK    7  A    between atoms: C_16  and  C_17 
ROOT
ATOM      1  C   UNL d   1      24.308 -16.592  -0.331  0.00  0.00     0.144 C 
ENDROOT
BRANCH   1   2
ATOM      2  C   UNL d   1      24.356 -18.091  -0.684  0.00  0.00     0.142 C 
BRANCH   2   3
ATOM      3  N   UNL d   1      23.159 -18.831  -0.287  0.00  0.00    -0.355 N 
ATOM      4  C   UNL d   1      21.885 -18.326  -0.506  0.00  0.00     0.251 C 
ATOM      5  O   UNL d   1      21.705 -17.234  -1.044  0.00  0.00    -0.268 OA
ATOM      6  H   UNL d   1      23.290 -19.723   0.165  0.00  0.00     0.162 HD
BRANCH   4   7
ATOM      7  C   UNL d   1      20.700 -19.138  -0.058  0.00  0.00     0.035 A 
ATOM      8  C   UNL d   1      19.731 -19.622  -0.948  0.00  0.00     0.018 A 
ATOM      9  C   UNL d   1      18.664 -20.410  -0.493  0.00  0.00     0.011 A 
ATOM     10  C   UNL d   1      18.534 -20.722   0.862  0.00  0.00    -0.023 A 
ATOM     11  C   UNL d   1      17.403 -21.575   1.355  0.00  0.00     0.051 C 
ATOM     12  C   UNL d   1      19.489 -20.223   1.750  0.00  0.00     0.123 A 
ATOM     13  C   UNL d   1      20.560 -19.442   1.307  0.00  0.00     0.059 A 
ATOM     14  F   UNL d   1      19.384 -20.503   3.058  0.00  0.00    -0.206 F 
ENDBRANCH   4   7
ENDBRANCH   2   3
ENDBRANCH   1   2
BRANCH   1  15
ATOM     15  N   UNL d   1      23.871 -15.727  -1.426  0.00  0.00    -0.340 N 
ATOM     16  C   UNL d   1      24.778 -15.241  -2.350  0.00  0.00     0.340 C 
ATOM     17  O   UNL d   1      25.974 -15.511  -2.288  0.00  0.00    -0.245 OA
ATOM     18  N   UNL d   1      24.204 -14.448  -3.320  0.00  0.00    -0.216 N 
ATOM     19  H   UNL d   1      23.224 -14.219  -3.373  0.00  0.00     0.199 HD
ATOM     20  H   UNL d   1      22.896 -15.486  -1.510  0.00  0.00     0.164 HD
BRANCH  18  21
ATOM     21  O   UNL d   1      25.092 -13.936  -4.303  0.00  0.00    -0.272 OA
BRANCH  21  22
ATOM     22  C   UNL d   1      25.900 -12.869  -3.785  0.00  0.00     0.240 C 
BRANCH  22  23
ATOM     23  C   UNL d   1      26.026 -11.722  -4.770  0.00  0.00    -0.032 A 
ATOM     24  C   UNL d   1      26.682 -11.870  -6.000  0.00  0.00     0.009 A 
ATOM     25  C   UNL d   1      26.916 -10.766  -6.823  0.00  0.00     0.001 A 
ATOM     26  C   UNL d   1      26.418  -9.513  -6.474  0.00  0.00     0.000 A 
ATOM     27  C   UNL d   1      25.719  -9.356  -5.280  0.00  0.00     0.001 A 
ATOM     28  C   UNL d   1      25.530 -10.451  -4.429  0.00  0.00     0.009 A 
ENDBRANCH  22  23
ENDBRANCH  21  22
ENDBRANCH  18  21
ENDBRANCH   1  15
TORSDOF 7
ENDMDL
MODEL 8
REMARK VINA RESULT:    -6.775      3.996      6.336
REMARK INTER + INTRA:         -10.793
REMARK INTER:                  -8.863
REMARK INTRA:                  -1.930
REMARK CONF_INDEPENDENT:        2.088
REMARK UNBOUND:                -1.930
REMARK  7 active torsions:
REMARK  status: ('A' for Active; 'I' for Inactive)
REMARK    1  A    between atoms: C_5  and  C_6 
REMARK       I    between atoms: C_6  and  N_8 
REMARK    2  A    between atoms: N_8  and  C_9 
REMARK    3  A    between atoms: C_9  and  C_10 
REMARK    4  A    between atoms: C_10  and  N_11 
REMARK       I    between atoms: N_11  and  C_12 
REMARK       I    between atoms: C_12  and  N_14 
REMARK    5  A    between atoms: N_14  and  O_15 
REMARK    6  A    between atoms: O_15  and  C_16 
REMARK    7  A    between atoms: C_16  and  C_17 
ROOT
ATOM      1  C   UNL d   1      26.748 -11.513  -5.770  0.00  0.00     0.144 C 
ENDROOT
BRANCH   1   2
ATOM      2  C   UNL d   1      27.901 -12.419  -6.240  0.00  0.00     0.142 C 
BRANCH   2   3
ATOM      3  N   UNL d   1      28.399 -13.328  -5.207  0.00  0.00    -0.355 N 
ATOM      4  C   UNL d   1      28.511 -14.692  -5.432  0.00  0.00     0.251 C 
ATOM      5  O   UNL d   1      28.198 -15.200  -6.508  0.00  0.00    -0.268 OA
ATOM      6  H   UNL d   1      28.650 -12.928  -4.316  0.00  0.00     0.162 HD
BRANCH   4   7
ATOM      7  C   UNL d   1      29.019 -15.567  -4.318  0.00  0.00     0.035 A 
ATOM      8  C   UNL d   1      28.772 -15.294  -2.965  0.00  0.00     0.018 A 
ATOM      9  C   UNL d   1      29.231 -16.158  -1.960  0.00  0.00     0.011 A 
ATOM     10  C   UNL d   1      29.958 -17.306  -2.282  0.00  0.00    -0.023 A 
ATOM     11  C   UNL d   1      30.441 -18.242  -1.214  0.00  0.00     0.051 C 
ATOM     12  C   UNL d   1      30.220 -17.566  -3.629  0.00  0.00     0.123 A 
ATOM     13  C   UNL d   1      29.762 -16.716  -4.639  0.00  0.00     0.059 A 
ATOM     14  F   UNL d   1      30.922 -18.659  -3.965  0.00  0.00    -0.206 F 
ENDBRANCH   4   7
ENDBRANCH   2   3
ENDBRANCH   1   2
BRANCH   1  15
ATOM     15  N   UNL d   1      25.530 -12.231  -5.395  0.00  0.00    -0.340 N 
ATOM     16  C   UNL d   1      25.498 -13.032  -4.267  0.00  0.00     0.340 C 
ATOM     17  O   UNL d   1      26.480 -13.172  -3.544  0.00  0.00    -0.245 OA
ATOM     18  N   UNL d   1      24.277 -13.631  -4.052  0.00  0.00    -0.216 N 
ATOM     19  H   UNL d   1      23.469 -13.524  -4.645  0.00  0.00     0.199 HD
ATOM     20  H   UNL d   1      24.704 -12.139  -5.964  0.00  0.00     0.164 HD
BRANCH  18  21
ATOM     21  O   UNL d   1      24.187 -14.452  -2.896  0.00  0.00    -0.272 OA
BRANCH  21  22
ATOM     22  C   UNL d   1      25.183 -15.485  -2.901  0.00  0.00     0.240 C 
BRANCH  22  23
ATOM     23  C   UNL d   1      25.081 -16.378  -1.678  0.00  0.00    -0.032 A 
ATOM     24  C   UNL d   1      26.217 -16.852  -1.009  0.00  0.00     0.009 A 
ATOM     25  C   UNL d   1      26.103 -17.790   0.020  0.00  0.00     0.001 A 
ATOM     26  C   UNL d   1      24.846 -18.200   0.457  0.00  0.00     0.000 A 
ATOM     27  C   UNL d   1      23.702 -17.701  -0.161  0.00  0.00     0.001 A 
ATOM     28  C   UNL d   1      23.818 -16.802  -1.228  0.00  0.00     0.009 A 
ENDBRANCH  22  23
ENDBRANCH  21  22
ENDBRANCH  18  21
ENDBRANCH   1  15
TORSDOF 7
ENDMDL
MODEL 9
REMARK VINA RESULT:    -6.629      4.272      6.852
REMARK INTER + INTRA:         -10.654
REMARK INTER:                  -8.717
REMARK INTRA:                  -1.938
REMARK CONF_INDEPENDENT:        2.088
REMARK UNBOUND:                -1.938
REMARK  7 active torsions:
REMARK  status: ('A' for Active; 'I' for Inactive)
REMARK    1  A    between atoms: C_5  and  C_6 
REMARK       I    between atoms: C_6  and  N_8 
REMARK    2  A    between atoms: N_8  and  C_9 
REMARK    3  A    between atoms: C_9  and  C_10 
REMARK    4  A    between atoms: C_10  and  N_11 
REMARK       I    between atoms: N_11  and  C_12 
REMARK       I    between atoms: C_12  and  N_14 
REMARK    5  A    between atoms: N_14  and  O_15 
REMARK    6  A    between atoms: O_15  and  C_16 
REMARK    7  A    between atoms: C_16  and  C_17 
ROOT
ATOM      1  C   UNL d   1      26.590 -10.795  -5.547  0.00  0.00     0.144 C 
ENDROOT
BRANCH   1   2
ATOM      2  C   UNL d   1      27.840 -11.324  -6.275  0.00  0.00     0.142 C 
BRANCH   2   3
ATOM      3  N   UNL d   1      28.297 -12.628  -5.794  0.00  0.00    -0.355 N 
ATOM      4  C   UNL d   1      28.801 -13.586  -6.662  0.00  0.00     0.251 C 
ATOM      5  O   UNL d   1      28.888 -13.384  -7.872  0.00  0.00    -0.268 OA
ATOM      6  H   UNL d   1      28.223 -12.814  -4.806  0.00  0.00     0.162 HD
BRANCH   4   7
ATOM      7  C   UNL d   1      29.240 -14.910  -6.097  0.00  0.00     0.035 A 
ATOM      8  C   UNL d   1      28.883 -15.344  -4.812  0.00  0.00     0.018 A 
ATOM      9  C   UNL d   1      29.280 -16.603  -4.340  0.00  0.00     0.011 A 
ATOM     10  C   UNL d   1      30.054 -17.452  -5.135  0.00  0.00    -0.023 A 
ATOM     11  C   UNL d   1      30.472 -18.805  -4.642  0.00  0.00     0.051 C 
ATOM     12  C   UNL d   1      30.426 -17.011  -6.406  0.00  0.00     0.123 A 
ATOM     13  C   UNL d   1      30.030 -15.761  -6.889  0.00  0.00     0.059 A 
ATOM     14  F   UNL d   1      31.174 -17.804  -7.187  0.00  0.00    -0.206 F 
ENDBRANCH   4   7
ENDBRANCH   2   3
ENDBRANCH   1   2
BRANCH   1  15
ATOM     15  N   UNL d   1      25.530 -11.787  -5.368  0.00  0.00    -0.340 N 
ATOM     16  C   UNL d   1      25.558 -12.670  -4.304  0.00  0.00     0.340 C 
ATOM     17  O   UNL d   1      26.465 -12.658  -3.476  0.00  0.00    -0.245 OA
ATOM     18  N   UNL d   1      24.485 -13.533  -4.276  0.00  0.00    -0.216 N 
ATOM     19  H   UNL d   1      23.741 -13.550  -4.955  0.00  0.00     0.199 HD
ATOM     20  H   UNL d   1      24.769 -11.824  -6.026  0.00  0.00     0.164 HD
BRANCH  18  21
ATOM     21  O   UNL d   1      24.460 -14.451  -3.192  0.00  0.00    -0.272 OA
BRANCH  21  22
ATOM     22  C   UNL d   1      25.581 -15.345  -3.228  0.00  0.00     0.240 C 
BRANCH  22  23
ATOM     23  C   UNL d   1      25.606 -16.273  -2.027  0.00  0.00    -0.032 A 
ATOM     24  C   UNL d   1      26.798 -16.596  -1.364  0.00  0.00     0.009 A 
ATOM     25  C   UNL d   1      26.817 -17.566  -0.358  0.00  0.00     0.001 A 
ATOM     26  C   UNL d   1      25.631 -18.161   0.063  0.00  0.00     0.000 A 
ATOM     27  C   UNL d   1      24.429 -17.816  -0.548  0.00  0.00     0.001 A 
ATOM     28  C   UNL d   1      24.416 -16.883  -1.592  0.00  0.00     0.009 A 
ENDBRANCH  22  23
ENDBRANCH  21  22
ENDBRANCH  18  21
ENDBRANCH   1  15
TORSDOF 7
ENDMDL
