MODEL 1
REMARK VINA RESULT:    -8.544      0.000      0.000
REMARK INTER + INTRA:         -10.742
REMARK INTER:                 -10.036
REMARK INTRA:                  -0.706
REMARK CONF_INDEPENDENT:        1.492
REMARK UNBOUND:                -0.706
REMARK  5 active torsions:
REMARK  status: ('A' for Active; 'I' for Inactive)
REMARK    1  A    between atoms: C_2  and  C_4 
REMARK    2  A    between atoms: C_8  and  N_9 
REMARK    3  A    between atoms: C_10  and  N_9 
REMARK    4  A    between atoms: C_10  and  C_12 
REMARK       I    between atoms: C_12  and  N_14 
REMARK       I    between atoms: N_14  and  C_15 
REMARK       I    between atoms: C_15  and  N_17 
REMARK    5  A    between atoms: N_17  and  C_18 
ROOT
ATOM      1  C   UNL d   1      27.146 -15.644   0.350  0.00  0.00     0.247 C 
ATOM      2  O   UNL d   1      26.400 -14.684   0.122  0.00  0.00    -0.271 OA
ATOM      3  N   UNL d   1      27.937 -15.714   1.492  0.00  0.00    -0.277 N 
ATOM      4  C   UNL d   1      27.902 -14.685   2.422  0.00  0.00     0.327 C 
ATOM      5  O   UNL d   1      27.201 -13.676   2.277  0.00  0.00    -0.247 OA
ATOM      6  N   UNL d   1      28.724 -14.825   3.536  0.00  0.00    -0.309 N 
ATOM      7  H   UNL d   1      28.495 -16.533   1.664  0.00  0.00     0.173 HD
ATOM      8  H   UNL d   1      29.489 -15.483   3.527  0.00  0.00     0.170 HD
ENDROOT
BRANCH   1   9
ATOM      9  C   UNL d   1      27.126 -16.841  -0.647  0.00  0.00     0.170 C 
ATOM     10  C   UNL d   1      28.477 -17.541  -0.489  0.00  0.00     0.042 C 
BRANCH   9  11
ATOM     11  N   UNL d   1      25.955 -17.758  -0.476  0.00  0.00    -0.377 N 
ATOM     12  H   UNL d   1      26.197 -18.737  -0.362  0.00  0.00     0.160 HD
BRANCH  11  13
ATOM     13  C   UNL d   1      24.592 -17.488  -0.589  0.00  0.00     0.029 A 
ATOM     14  C   UNL d   1      24.029 -16.220  -0.807  0.00  0.00     0.029 A 
ATOM     15  C   UNL d   1      22.682 -15.950  -1.007  0.00  0.00     0.003 A 
ATOM     16  C   UNL d   1      21.786 -16.971  -0.894  0.00  0.00     0.015 A 
ATOM     17  C   UNL d   1      22.271 -18.262  -0.681  0.00  0.00     0.011 A 
ATOM     18  C   UNL d   1      23.652 -18.524  -0.498  0.00  0.00     0.044 A 
BRANCH  17  19
ATOM     19  C   UNL d   1      21.268 -19.332  -0.820  0.00  0.00     0.155 C 
ATOM     20  C   UNL d   1      20.652 -19.914   0.412  0.00  0.00     0.096 C 
ATOM     21  O   UNL d   1      20.944 -19.699  -1.947  0.00  0.00    -0.293 OA
ENDBRANCH  17  19
ENDBRANCH  11  13
ENDBRANCH   9  11
ENDBRANCH   1   9
BRANCH   6  22
ATOM     22  C   UNL d   1      28.760 -13.807   4.548  0.00  0.00     0.036 A 
ATOM     23  C   UNL d   1      29.009 -12.468   4.228  0.00  0.00     0.030 A 
ATOM     24  C   UNL d   1      29.053 -11.485   5.238  0.00  0.00     0.009 A 
ATOM     25  C   UNL d   1      28.812 -11.815   6.578  0.00  0.00    -0.062 A 
ATOM     26  C   UNL d   1      28.715 -10.761   7.646  0.00  0.00     0.048 C 
ATOM     27  C   UNL d   1      28.596 -13.155   6.900  0.00  0.00     0.009 A 
ATOM     28  C   UNL d   1      28.567 -14.133   5.898  0.00  0.00     0.030 A 
ENDBRANCH   6  22
TORSDOF 5
ENDMDL
MODEL 2
REMARK VINA RESULT:    -8.391      4.480      8.476
REMARK INTER + INTRA:         -10.751
REMARK INTER:                  -9.882
REMARK INTRA:                  -0.868
REMARK CONF_INDEPENDENT:        1.492
REMARK UNBOUND:                -0.868
REMARK  5 active torsions:
REMARK  status: ('A' for Active; 'I' for Inactive)
REMARK    1  A    between atoms: C_2  and  C_4 
REMARK    2  A    between atoms: C_8  and  N_9 
REMARK    3  A    between atoms: C_10  and  N_9 
REMARK    4  A    between atoms: C_10  and  C_12 
REMARK       I    between atoms: C_12  and  N_14 
REMARK       I    between atoms: N_14  and  C_15 
REMARK       I    between atoms: C_15  and  N_17 
REMARK    5  A    between atoms: N_17  and  C_18 
ROOT
ATOM      1  C   UNL d   1      26.277 -17.269   0.063  0.00  0.00     0.247 C 
ATOM      2  O   UNL d   1      26.569 -18.270   0.730  0.00  0.00    -0.271 OA
ATOM      3  N   UNL d   1      24.980 -17.020  -0.372  0.00  0.00    -0.277 N 
ATOM      4  C   UNL d   1      23.962 -17.909  -0.058  0.00  0.00     0.327 C 
ATOM      5  O   UNL d   1      24.155 -18.945   0.589  0.00  0.00    -0.247 OA
ATOM      6  N   UNL d   1      22.693 -17.595  -0.533  0.00  0.00    -0.309 N 
ATOM      7  H   UNL d   1      24.775 -16.171  -0.872  0.00  0.00     0.173 HD
ATOM      8  H   UNL d   1      22.578 -16.926  -1.279  0.00  0.00     0.170 HD
ENDROOT
BRANCH   1   9
ATOM      9  C   UNL d   1      27.398 -16.224  -0.221  0.00  0.00     0.170 C 
ATOM     10  C   UNL d   1      28.456 -16.958  -1.046  0.00  0.00     0.042 C 
BRANCH   9  11
ATOM     11  N   UNL d   1      26.907 -14.965  -0.863  0.00  0.00    -0.377 N 
ATOM     12  H   UNL d   1      26.794 -14.181  -0.228  0.00  0.00     0.160 HD
BRANCH  11  13
ATOM     13  C   UNL d   1      26.452 -14.749  -2.163  0.00  0.00     0.029 A 
ATOM     14  C   UNL d   1      25.145 -14.375  -2.516  0.00  0.00     0.029 A 
ATOM     15  C   UNL d   1      24.702 -14.073  -3.796  0.00  0.00     0.003 A 
ATOM     16  C   UNL d   1      25.560 -14.236  -4.842  0.00  0.00     0.015 A 
ATOM     17  C   UNL d   1      26.879 -14.603  -4.570  0.00  0.00     0.011 A 
ATOM     18  C   UNL d   1      27.322 -14.888  -3.254  0.00  0.00     0.044 A 
BRANCH  17  19
ATOM     19  C   UNL d   1      27.798 -14.514  -5.718  0.00  0.00     0.155 C 
ATOM     20  C   UNL d   1      28.377 -13.185  -6.082  0.00  0.00     0.096 C 
ATOM     21  O   UNL d   1      28.085 -15.541  -6.330  0.00  0.00    -0.293 OA
ENDBRANCH  17  19
ENDBRANCH  11  13
ENDBRANCH   9  11
ENDBRANCH   1   9
BRANCH   6  22
ATOM     22  C   UNL d   1      21.578 -18.459  -0.263  0.00  0.00     0.036 A 
ATOM     23  C   UNL d   1      20.676 -18.820  -1.270  0.00  0.00     0.030 A 
ATOM     24  C   UNL d   1      19.579 -19.660  -0.983  0.00  0.00     0.009 A 
ATOM     25  C   UNL d   1      19.388 -20.183   0.302  0.00  0.00    -0.062 A 
ATOM     26  C   UNL d   1      18.310 -21.191   0.592  0.00  0.00     0.048 C 
ATOM     27  C   UNL d   1      20.269 -19.797   1.312  0.00  0.00     0.009 A 
ATOM     28  C   UNL d   1      21.349 -18.951   1.029  0.00  0.00     0.030 A 
ENDBRANCH   6  22
TORSDOF 5
ENDMDL
MODEL 3
REMARK VINA RESULT:    -8.252      2.344      8.861
REMARK INTER + INTRA:         -10.259
REMARK INTER:                  -9.743
REMARK INTRA:                  -0.516
REMARK CONF_INDEPENDENT:        1.492
REMARK UNBOUND:                -0.516
REMARK  5 active torsions:
REMARK  status: ('A' for Active; 'I' for Inactive)
REMARK    1  A    between atoms: C_2  and  C_4 
REMARK    2  A    between atoms: C_8  and  N_9 
REMARK    3  A    between atoms: C_10  and  N_9 
REMARK    4  A    between atoms: C_10  and  C_12 
REMARK       I    between atoms: C_12  and  N_14 
REMARK       I    between atoms: N_14  and  C_15 
REMARK       I    between atoms: C_15  and  N_17 
REMARK    5  A    between atoms: N_17  and  C_18 
ROOT
ATOM      1  C   UNL d   1      25.645 -17.216  -0.501  0.00  0.00     0.247 C 
ATOM      2  O   UNL d   1      25.925 -17.675   0.614  0.00  0.00    -0.271 OA
ATOM      3  N   UNL d   1      24.389 -17.381  -1.076  0.00  0.00    -0.277 N 
ATOM      4  C   UNL d   1      23.401 -18.077  -0.395  0.00  0.00     0.327 C 
ATOM      5  O   UNL d   1      23.588 -18.587   0.717  0.00  0.00    -0.247 OA
ATOM      6  N   UNL d   1      22.173 -18.205  -1.037  0.00  0.00    -0.309 N 
ATOM      7  H   UNL d   1      24.186 -16.953  -1.964  0.00  0.00     0.173 HD
ATOM      8  H   UNL d   1      22.098 -18.048  -2.031  0.00  0.00     0.170 HD
ENDROOT
BRANCH   1   9
ATOM      9  C   UNL d   1      26.721 -16.361  -1.235  0.00  0.00     0.170 C 
ATOM     10  C   UNL d   1      25.947 -15.386  -2.124  0.00  0.00     0.042 C 
BRANCH   9  11
ATOM     11  N   UNL d   1      27.694 -15.690  -0.317  0.00  0.00    -0.377 N 
ATOM     12  H   UNL d   1      28.605 -16.134  -0.266  0.00  0.00     0.160 HD
BRANCH  11  13
ATOM     13  C   UNL d   1      27.493 -14.638   0.576  0.00  0.00     0.029 A 
ATOM     14  C   UNL d   1      26.940 -13.389   0.251  0.00  0.00     0.029 A 
ATOM     15  C   UNL d   1      26.655 -12.366   1.145  0.00  0.00     0.003 A 
ATOM     16  C   UNL d   1      27.019 -12.517   2.450  0.00  0.00     0.015 A 
ATOM     17  C   UNL d   1      27.572 -13.734   2.850  0.00  0.00     0.011 A 
ATOM     18  C   UNL d   1      27.838 -14.776   1.928  0.00  0.00     0.044 A 
BRANCH  17  19
ATOM     19  C   UNL d   1      27.704 -13.906   4.308  0.00  0.00     0.155 C 
ATOM     20  C   UNL d   1      28.227 -15.200   4.841  0.00  0.00     0.096 C 
ATOM     21  O   UNL d   1      27.405 -12.969   5.045  0.00  0.00    -0.293 OA
ENDBRANCH  17  19
ENDBRANCH  11  13
ENDBRANCH   9  11
ENDBRANCH   1   9
BRANCH   6  22
ATOM     22  C   UNL d   1      21.093 -18.914  -0.412  0.00  0.00     0.036 A 
ATOM     23  C   UNL d   1      20.008 -19.391  -1.154  0.00  0.00     0.030 A 
ATOM     24  C   UNL d   1      18.949 -20.076  -0.520  0.00  0.00     0.009 A 
ATOM     25  C   UNL d   1      18.976 -20.328   0.857  0.00  0.00    -0.062 A 
ATOM     26  C   UNL d   1      17.929 -21.177   1.525  0.00  0.00     0.048 C 
ATOM     27  C   UNL d   1      20.043 -19.824   1.602  0.00  0.00     0.009 A 
ATOM     28  C   UNL d   1      21.085 -19.132   0.973  0.00  0.00     0.030 A 
ENDBRANCH   6  22
TORSDOF 5
ENDMDL
MODEL 4
REMARK VINA RESULT:    -8.174      1.647      2.400
REMARK INTER + INTRA:         -10.320
REMARK INTER:                  -9.666
REMARK INTRA:                  -0.654
REMARK CONF_INDEPENDENT:        1.492
REMARK UNBOUND:                -0.654
REMARK  5 active torsions:
REMARK  status: ('A' for Active; 'I' for Inactive)
REMARK    1  A    between atoms: C_2  and  C_4 
REMARK    2  A    between atoms: C_8  and  N_9 
REMARK    3  A    between atoms: C_10  and  N_9 
REMARK    4  A    between atoms: C_10  and  C_12 
REMARK       I    between atoms: C_12  and  N_14 
REMARK       I    between atoms: N_14  and  C_15 
REMARK       I    between atoms: C_15  and  N_17 
REMARK    5  A    between atoms: N_17  and  C_18 
ROOT
ATOM      1  C   UNL d   1      28.584 -14.168   0.393  0.00  0.00     0.247 C 
ATOM      2  O   UNL d   1      28.342 -12.958   0.299  0.00  0.00    -0.271 OA
ATOM      3  N   UNL d   1      28.758 -14.797   1.622  0.00  0.00    -0.277 N 
ATOM      4  C   UNL d   1      28.657 -14.063   2.795  0.00  0.00     0.327 C 
ATOM      5  O   UNL d   1      28.434 -12.846   2.806  0.00  0.00    -0.247 OA
ATOM      6  N   UNL d   1      28.847 -14.760   3.984  0.00  0.00    -0.309 N 
ATOM      7  H   UNL d   1      28.907 -15.791   1.658  0.00  0.00     0.173 HD
ATOM      8  H   UNL d   1      29.299 -15.663   3.980  0.00  0.00     0.170 HD
ENDROOT
BRANCH   1   9
ATOM      9  C   UNL d   1      28.614 -15.014  -0.915  0.00  0.00     0.170 C 
ATOM     10  C   UNL d   1      29.560 -16.184  -0.636  0.00  0.00     0.042 C 
BRANCH   9  11
ATOM     11  N   UNL d   1      27.262 -15.441  -1.395  0.00  0.00    -0.377 N 
ATOM     12  H   UNL d   1      26.880 -14.874  -2.145  0.00  0.00     0.160 HD
BRANCH  11  13
ATOM     13  C   UNL d   1      26.398 -16.404  -0.876  0.00  0.00     0.029 A 
ATOM     14  C   UNL d   1      26.763 -17.433   0.008  0.00  0.00     0.029 A 
ATOM     15  C   UNL d   1      25.899 -18.344   0.599  0.00  0.00     0.003 A 
ATOM     16  C   UNL d   1      24.584 -18.328   0.239  0.00  0.00     0.015 A 
ATOM     17  C   UNL d   1      24.145 -17.332  -0.634  0.00  0.00     0.011 A 
ATOM     18  C   UNL d   1      25.037 -16.396  -1.213  0.00  0.00     0.044 A 
BRANCH  17  19
ATOM     19  C   UNL d   1      22.682 -17.231  -0.774  0.00  0.00     0.155 C 
ATOM     20  C   UNL d   1      21.877 -18.485  -0.894  0.00  0.00     0.096 C 
ATOM     21  O   UNL d   1      22.159 -16.119  -0.762  0.00  0.00    -0.293 OA
ENDBRANCH  17  19
ENDBRANCH  11  13
ENDBRANCH   9  11
ENDBRANCH   1   9
BRANCH   6  22
ATOM     22  C   UNL d   1      28.769 -14.083   5.247  0.00  0.00     0.036 A 
ATOM     23  C   UNL d   1      29.588 -14.448   6.322  0.00  0.00     0.030 A 
ATOM     24  C   UNL d   1      29.488 -13.779   7.560  0.00  0.00     0.009 A 
ATOM     25  C   UNL d   1      28.597 -12.712   7.734  0.00  0.00    -0.062 A 
ATOM     26  C   UNL d   1      28.577 -11.897   8.998  0.00  0.00     0.048 C 
ATOM     27  C   UNL d   1      27.758 -12.370   6.672  0.00  0.00     0.009 A 
ATOM     28  C   UNL d   1      27.849 -13.045   5.448  0.00  0.00     0.030 A 
ENDBRANCH   6  22
TORSDOF 5
ENDMDL
MODEL 5
REMARK VINA RESULT:    -8.166      5.255      7.089
REMARK INTER + INTRA:         -10.309
REMARK INTER:                  -9.658
REMARK INTRA:                  -0.651
REMARK CONF_INDEPENDENT:        1.492
REMARK UNBOUND:                -0.651
REMARK  5 active torsions:
REMARK  status: ('A' for Active; 'I' for Inactive)
REMARK    1  A    between atoms: C_2  and  C_4 
REMARK    2  A    between atoms: C_8  and  N_9 
REMARK    3  A    between atoms: C_10  and  N_9 
REMARK    4  A    between atoms: C_10  and  C_12 
REMARK       I    between atoms: C_12  and  N_14 
REMARK       I    between atoms: N_14  and  C_15 
REMARK       I    between atoms: C_15  and  N_17 
REMARK    5  A    between atoms: N_17  and  C_18 
ROOT
ATOM      1  C   UNL d   1      24.354 -16.813  -1.356  0.00  0.00     0.247 C 
ATOM      2  O   UNL d   1      23.306 -16.154  -1.369  0.00  0.00    -0.271 OA
ATOM      3  N   UNL d   1      25.486 -16.419  -2.063  0.00  0.00    -0.277 N 
ATOM      4  C   UNL d   1      25.463 -15.251  -2.811  0.00  0.00     0.327 C 
ATOM      5  O   UNL d   1      24.460 -14.533  -2.900  0.00  0.00    -0.247 OA
ATOM      6  N   UNL d   1      26.631 -14.926  -3.494  0.00  0.00    -0.309 N 
ATOM      7  H   UNL d   1      26.333 -16.958  -1.990  0.00  0.00     0.173 HD
ATOM      8  H   UNL d   1      27.339 -15.627  -3.657  0.00  0.00     0.170 HD
ENDROOT
BRANCH   1   9
ATOM      9  C   UNL d   1      24.414 -18.080  -0.451  0.00  0.00     0.170 C 
ATOM     10  C   UNL d   1      25.705 -17.955   0.359  0.00  0.00     0.042 C 
BRANCH   9  11
ATOM     11  N   UNL d   1      23.195 -18.282   0.394  0.00  0.00    -0.377 N 
ATOM     12  H   UNL d   1      23.333 -18.113   1.385  0.00  0.00     0.160 HD
BRANCH  11  13
ATOM     13  C   UNL d   1      21.948 -18.799   0.045  0.00  0.00     0.029 A 
ATOM     14  C   UNL d   1      21.465 -18.944  -1.266  0.00  0.00     0.029 A 
ATOM     15  C   UNL d   1      20.263 -19.536  -1.631  0.00  0.00     0.003 A 
ATOM     16  C   UNL d   1      19.407 -19.938  -0.650  0.00  0.00     0.015 A 
ATOM     17  C   UNL d   1      19.819 -19.829   0.679  0.00  0.00     0.011 A 
ATOM     18  C   UNL d   1      21.058 -19.241   1.035  0.00  0.00     0.044 A 
BRANCH  17  19
ATOM     19  C   UNL d   1      18.950 -20.510   1.656  0.00  0.00     0.155 C 
ATOM     20  C   UNL d   1      17.829 -21.363   1.158  0.00  0.00     0.096 C 
ATOM     21  O   UNL d   1      19.189 -20.379   2.855  0.00  0.00    -0.293 OA
ENDBRANCH  17  19
ENDBRANCH  11  13
ENDBRANCH   9  11
ENDBRANCH   1   9
BRANCH   6  22
ATOM     22  C   UNL d   1      26.700 -13.740  -4.299  0.00  0.00     0.036 A 
ATOM     23  C   UNL d   1      27.361 -13.733  -5.532  0.00  0.00     0.030 A 
ATOM     24  C   UNL d   1      27.429 -12.554  -6.304  0.00  0.00     0.009 A 
ATOM     25  C   UNL d   1      26.806 -11.375  -5.876  0.00  0.00    -0.062 A 
ATOM     26  C   UNL d   1      26.746 -10.151  -6.749  0.00  0.00     0.048 C 
ATOM     27  C   UNL d   1      26.174 -11.374  -4.632  0.00  0.00     0.009 A 
ATOM     28  C   UNL d   1      26.121 -12.542  -3.861  0.00  0.00     0.030 A 
ENDBRANCH   6  22
TORSDOF 5
ENDMDL
MODEL 6
REMARK VINA RESULT:    -8.130      5.257      8.534
REMARK INTER + INTRA:         -10.381
REMARK INTER:                  -9.622
REMARK INTRA:                  -0.759
REMARK CONF_INDEPENDENT:        1.492
REMARK UNBOUND:                -0.759
REMARK  5 active torsions:
REMARK  status: ('A' for Active; 'I' for Inactive)
REMARK    1  A    between atoms: C_2  and  C_4 
REMARK    2  A    between atoms: C_8  and  N_9 
REMARK    3  A    between atoms: C_10  and  N_9 
REMARK    4  A    between atoms: C_10  and  C_12 
REMARK       I    between atoms: C_12  and  N_14 
REMARK       I    between atoms: N_14  and  C_15 
REMARK       I    between atoms: C_15  and  N_17 
REMARK    5  A    between atoms: N_17  and  C_18 
ROOT
ATOM      1  C   UNL d   1      26.245 -14.683  -3.969  0.00  0.00     0.247 C 
ATOM      2  O   UNL d   1      25.621 -14.853  -5.024  0.00  0.00    -0.271 OA
ATOM      3  N   UNL d   1      27.612 -14.921  -3.870  0.00  0.00    -0.277 N 
ATOM      4  C   UNL d   1      28.321 -15.361  -4.978  0.00  0.00     0.327 C 
ATOM      5  O   UNL d   1      27.785 -15.575  -6.072  0.00  0.00    -0.247 OA
ATOM      6  N   UNL d   1      29.683 -15.580  -4.799  0.00  0.00    -0.309 N 
ATOM      7  H   UNL d   1      28.092 -14.726  -3.007  0.00  0.00     0.173 HD
ATOM      8  H   UNL d   1      30.066 -15.682  -3.871  0.00  0.00     0.170 HD
ENDROOT
BRANCH   1   9
ATOM      9  C   UNL d   1      25.473 -14.108  -2.744  0.00  0.00     0.170 C 
ATOM     10  C   UNL d   1      24.000 -14.076  -3.155  0.00  0.00     0.042 C 
BRANCH   9  11
ATOM     11  N   UNL d   1      25.721 -14.849  -1.467  0.00  0.00    -0.377 N 
ATOM     12  H   UNL d   1      26.411 -14.423  -0.857  0.00  0.00     0.160 HD
BRANCH  11  13
ATOM     13  C   UNL d   1      25.253 -16.097  -1.058  0.00  0.00     0.029 A 
ATOM     14  C   UNL d   1      26.042 -17.120  -0.507  0.00  0.00     0.029 A 
ATOM     15  C   UNL d   1      25.577 -18.333  -0.017  0.00  0.00     0.003 A 
ATOM     16  C   UNL d   1      24.253 -18.630  -0.153  0.00  0.00     0.015 A 
ATOM     17  C   UNL d   1      23.405 -17.660  -0.689  0.00  0.00     0.011 A 
ATOM     18  C   UNL d   1      23.893 -16.418  -1.167  0.00  0.00     0.044 A 
BRANCH  17  19
ATOM     19  C   UNL d   1      21.967 -17.960  -0.572  0.00  0.00     0.155 C 
ATOM     20  C   UNL d   1      21.545 -19.283  -0.018  0.00  0.00     0.096 C 
ATOM     21  O   UNL d   1      21.153 -17.103  -0.907  0.00  0.00    -0.293 OA
ENDBRANCH  17  19
ENDBRANCH  11  13
ENDBRANCH   9  11
ENDBRANCH   1   9
BRANCH   6  22
ATOM     22  C   UNL d   1      30.497 -16.043  -5.888  0.00  0.00     0.036 A 
ATOM     23  C   UNL d   1      31.296 -15.163  -6.626  0.00  0.00     0.030 A 
ATOM     24  C   UNL d   1      32.079 -15.635  -7.700  0.00  0.00     0.009 A 
ATOM     25  C   UNL d   1      32.106 -16.995  -8.032  0.00  0.00    -0.062 A 
ATOM     26  C   UNL d   1      33.040 -17.536  -9.079  0.00  0.00     0.048 C 
ATOM     27  C   UNL d   1      31.284 -17.867  -7.316  0.00  0.00     0.009 A 
ATOM     28  C   UNL d   1      30.496 -17.395  -6.259  0.00  0.00     0.030 A 
ENDBRANCH   6  22
TORSDOF 5
ENDMDL
MODEL 7
REMARK VINA RESULT:    -8.125      1.553      1.989
REMARK INTER + INTRA:         -10.481
REMARK INTER:                  -9.616
REMARK INTRA:                  -0.865
REMARK CONF_INDEPENDENT:        1.492
REMARK UNBOUND:                -0.865
REMARK  5 active torsions:
REMARK  status: ('A' for Active; 'I' for Inactive)
REMARK    1  A    between atoms: C_2  and  C_4 
REMARK    2  A    between atoms: C_8  and  N_9 
REMARK    3  A    between atoms: C_10  and  N_9 
REMARK    4  A    between atoms: C_10  and  C_12 
REMARK       I    between atoms: C_12  and  N_14 
REMARK       I    between atoms: N_14  and  C_15 
REMARK       I    between atoms: C_15  and  N_17 
REMARK    5  A    between atoms: N_17  and  C_18 
ROOT
ATOM      1  C   UNL d   1      27.135 -13.950  -0.577  0.00  0.00     0.247 C 
ATOM      2  O   UNL d   1      26.705 -12.794  -0.470  0.00  0.00    -0.271 OA
ATOM      3  N   UNL d   1      27.699 -14.633   0.496  0.00  0.00    -0.277 N 
ATOM      4  C   UNL d   1      27.789 -14.019   1.737  0.00  0.00     0.327 C 
ATOM      5  O   UNL d   1      27.402 -12.863   1.941  0.00  0.00    -0.247 OA
ATOM      6  N   UNL d   1      28.369 -14.764   2.759  0.00  0.00    -0.309 N 
ATOM      7  H   UNL d   1      27.995 -15.588   0.380  0.00  0.00     0.173 HD
ATOM      8  H   UNL d   1      28.931 -15.575   2.545  0.00  0.00     0.170 HD
ENDROOT
BRANCH   1   9
ATOM      9  C   UNL d   1      26.960 -14.674  -1.944  0.00  0.00     0.170 C 
ATOM     10  C   UNL d   1      28.181 -15.584  -2.096  0.00  0.00     0.042 C 
BRANCH   9  11
ATOM     11  N   UNL d   1      25.656 -15.396  -2.089  0.00  0.00    -0.377 N 
ATOM     12  H   UNL d   1      25.016 -14.984  -2.760  0.00  0.00     0.160 HD
BRANCH  11  13
ATOM     13  C   UNL d   1      25.140 -16.455  -1.344  0.00  0.00     0.029 A 
ATOM     14  C   UNL d   1      25.849 -17.198  -0.386  0.00  0.00     0.029 A 
ATOM     15  C   UNL d   1      25.325 -18.197   0.423  0.00  0.00     0.003 A 
ATOM     16  C   UNL d   1      24.032 -18.583   0.230  0.00  0.00     0.015 A 
ATOM     17  C   UNL d   1      23.261 -17.889  -0.703  0.00  0.00     0.011 A 
ATOM     18  C   UNL d   1      23.807 -16.857  -1.507  0.00  0.00     0.044 A 
BRANCH  17  19
ATOM     19  C   UNL d   1      21.821 -18.198  -0.672  0.00  0.00     0.155 C 
ATOM     20  C   UNL d   1      21.374 -19.521  -0.138  0.00  0.00     0.096 C 
ATOM     21  O   UNL d   1      21.023 -17.348  -1.062  0.00  0.00    -0.293 OA
ENDBRANCH  17  19
ENDBRANCH  11  13
ENDBRANCH   9  11
ENDBRANCH   1   9
BRANCH   6  22
ATOM     22  C   UNL d   1      28.511 -14.210   4.076  0.00  0.00     0.036 A 
ATOM     23  C   UNL d   1      27.409 -13.717   4.783  0.00  0.00     0.030 A 
ATOM     24  C   UNL d   1      27.571 -13.164   6.070  0.00  0.00     0.009 A 
ATOM     25  C   UNL d   1      28.828 -13.129   6.688  0.00  0.00    -0.062 A 
ATOM     26  C   UNL d   1      28.996 -12.676   8.112  0.00  0.00     0.048 C 
ATOM     27  C   UNL d   1      29.931 -13.591   5.970  0.00  0.00     0.009 A 
ATOM     28  C   UNL d   1      29.771 -14.126   4.685  0.00  0.00     0.030 A 
ENDBRANCH   6  22
TORSDOF 5
ENDMDL
MODEL 8
REMARK VINA RESULT:    -8.050      4.542      9.281
REMARK INTER + INTRA:         -10.159
REMARK INTER:                  -9.541
REMARK INTRA:                  -0.618
REMARK CONF_INDEPENDENT:        1.492
REMARK UNBOUND:                -0.618
REMARK  5 active torsions:
REMARK  status: ('A' for Active; 'I' for Inactive)
REMARK    1  A    between atoms: C_2  and  C_4 
REMARK    2  A    between atoms: C_8  and  N_9 
REMARK    3  A    between atoms: C_10  and  N_9 
REMARK    4  A    between atoms: C_10  and  C_12 
REMARK       I    between atoms: C_12  and  N_14 
REMARK       I    between atoms: N_14  and  C_15 
REMARK       I    between atoms: C_15  and  N_17 
REMARK    5  A    between atoms: N_17  and  C_18 
ROOT
ATOM      1  C   UNL d   1      25.411 -17.163  -0.677  0.00  0.00     0.247 C 
ATOM      2  O   UNL d   1      25.800 -17.797   0.311  0.00  0.00    -0.271 OA
ATOM      3  N   UNL d   1      24.104 -17.248  -1.146  0.00  0.00    -0.277 N 
ATOM      4  C   UNL d   1      23.188 -18.064  -0.498  0.00  0.00     0.327 C 
ATOM      5  O   UNL d   1      23.483 -18.749   0.489  0.00  0.00    -0.247 OA
ATOM      6  N   UNL d   1      21.902 -18.100  -1.028  0.00  0.00    -0.309 N 
ATOM      7  H   UNL d   1      23.815 -16.681  -1.925  0.00  0.00     0.173 HD
ATOM      8  H   UNL d   1      21.729 -17.781  -1.969  0.00  0.00     0.170 HD
ENDROOT
BRANCH   1   9
ATOM      9  C   UNL d   1      26.410 -16.181  -1.359  0.00  0.00     0.170 C 
ATOM     10  C   UNL d   1      26.303 -14.868  -0.583  0.00  0.00     0.042 C 
BRANCH   9  11
ATOM     11  N   UNL d   1      27.809 -16.706  -1.455  0.00  0.00    -0.377 N 
ATOM     12  H   UNL d   1      28.156 -17.145  -0.609  0.00  0.00     0.160 HD
BRANCH  11  13
ATOM     13  C   UNL d   1      28.746 -16.557  -2.477  0.00  0.00     0.029 A 
ATOM     14  C   UNL d   1      30.045 -17.092  -2.474  0.00  0.00     0.029 A 
ATOM     15  C   UNL d   1      30.956 -17.025  -3.519  0.00  0.00     0.003 A 
ATOM     16  C   UNL d   1      30.630 -16.300  -4.626  0.00  0.00     0.015 A 
ATOM     17  C   UNL d   1      29.355 -15.739  -4.703  0.00  0.00     0.011 A 
ATOM     18  C   UNL d   1      28.428 -15.834  -3.635  0.00  0.00     0.044 A 
BRANCH  17  19
ATOM     19  C   UNL d   1      28.997 -15.191  -6.023  0.00  0.00     0.155 C 
ATOM     20  C   UNL d   1      30.082 -14.683  -6.916  0.00  0.00     0.096 C 
ATOM     21  O   UNL d   1      27.816 -15.191  -6.366  0.00  0.00    -0.293 OA
ENDBRANCH  17  19
ENDBRANCH  11  13
ENDBRANCH   9  11
ENDBRANCH   1   9
BRANCH   6  22
ATOM     22  C   UNL d   1      20.889 -18.921  -0.428  0.00  0.00     0.036 A 
ATOM     23  C   UNL d   1      19.760 -19.329  -1.148  0.00  0.00     0.030 A 
ATOM     24  C   UNL d   1      18.768 -20.125  -0.537  0.00  0.00     0.009 A 
ATOM     25  C   UNL d   1      18.905 -20.558   0.788  0.00  0.00    -0.062 A 
ATOM     26  C   UNL d   1      17.931 -21.521   1.409  0.00  0.00     0.048 C 
ATOM     27  C   UNL d   1      20.014 -20.124   1.515  0.00  0.00     0.009 A 
ATOM     28  C   UNL d   1      20.991 -19.321   0.911  0.00  0.00     0.030 A 
ENDBRANCH   6  22
TORSDOF 5
ENDMDL
MODEL 9
REMARK VINA RESULT:    -8.039      2.433      3.922
REMARK INTER + INTRA:         -10.179
REMARK INTER:                  -9.530
REMARK INTRA:                  -0.648
REMARK CONF_INDEPENDENT:        1.492
REMARK UNBOUND:                -0.648
REMARK  5 active torsions:
REMARK  status: ('A' for Active; 'I' for Inactive)
REMARK    1  A    between atoms: C_2  and  C_4 
REMARK    2  A    between atoms: C_8  and  N_9 
REMARK    3  A    between atoms: C_10  and  N_9 
REMARK    4  A    between atoms: C_10  and  C_12 
REMARK       I    between atoms: C_12  and  N_14 
REMARK       I    between atoms: N_14  and  C_15 
REMARK       I    between atoms: C_15  and  N_17 
REMARK    5  A    between atoms: N_17  and  C_18 
ROOT
ATOM      1  C   UNL d   1      28.300 -14.350   2.457  0.00  0.00     0.247 C 
ATOM      2  O   UNL d   1      27.135 -13.948   2.567  0.00  0.00    -0.271 OA
ATOM      3  N   UNL d   1      29.172 -14.401   3.540  0.00  0.00    -0.277 N 
ATOM      4  C   UNL d   1      28.741 -13.996   4.795  0.00  0.00     0.327 C 
ATOM      5  O   UNL d   1      27.601 -13.564   5.004  0.00  0.00    -0.247 OA
ATOM      6  N   UNL d   1      29.672 -14.072   5.827  0.00  0.00    -0.309 N 
ATOM      7  H   UNL d   1      30.097 -14.778   3.419  0.00  0.00     0.173 HD
ATOM      8  H   UNL d   1      30.657 -14.147   5.622  0.00  0.00     0.170 HD
ENDROOT
BRANCH   1   9
ATOM      9  C   UNL d   1      28.764 -14.886   1.070  0.00  0.00     0.170 C 
ATOM     10  C   UNL d   1      30.291 -14.960   1.138  0.00  0.00     0.042 C 
BRANCH   9  11
ATOM     11  N   UNL d   1      28.122 -16.178   0.670  0.00  0.00    -0.377 N 
ATOM     12  H   UNL d   1      28.616 -17.010   0.977  0.00  0.00     0.160 HD
BRANCH  11  13
ATOM     13  C   UNL d   1      27.034 -16.406  -0.171  0.00  0.00     0.029 A 
ATOM     14  C   UNL d   1      25.945 -17.245   0.117  0.00  0.00     0.029 A 
ATOM     15  C   UNL d   1      24.816 -17.415  -0.673  0.00  0.00     0.003 A 
ATOM     16  C   UNL d   1      24.769 -16.800  -1.889  0.00  0.00     0.015 A 
ATOM     17  C   UNL d   1      25.814 -15.947  -2.244  0.00  0.00     0.011 A 
ATOM     18  C   UNL d   1      26.951 -15.768  -1.417  0.00  0.00     0.044 A 
BRANCH  17  19
ATOM     19  C   UNL d   1      25.570 -15.135  -3.449  0.00  0.00     0.155 C 
ATOM     20  C   UNL d   1      26.560 -15.183  -4.568  0.00  0.00     0.096 C 
ATOM     21  O   UNL d   1      24.544 -14.461  -3.514  0.00  0.00    -0.293 OA
ENDBRANCH  17  19
ENDBRANCH  11  13
ENDBRANCH   9  11
ENDBRANCH   1   9
BRANCH   6  22
ATOM     22  C   UNL d   1      29.319 -13.667   7.159  0.00  0.00     0.036 A 
ATOM     23  C   UNL d   1      28.628 -12.475   7.399  0.00  0.00     0.030 A 
ATOM     24  C   UNL d   1      28.301 -12.088   8.716  0.00  0.00     0.009 A 
ATOM     25  C   UNL d   1      28.624 -12.902   9.809  0.00  0.00    -0.062 A 
ATOM     26  C   UNL d   1      28.160 -12.576  11.202  0.00  0.00     0.048 C 
ATOM     27  C   UNL d   1      29.342 -14.075   9.571  0.00  0.00     0.009 A 
ATOM     28  C   UNL d   1      29.678 -14.450   8.264  0.00  0.00     0.030 A 
ENDBRANCH   6  22
TORSDOF 5
ENDMDL
