MODEL 1
REMARK VINA RESULT:    -9.805      0.000      0.000
REMARK INTER + INTRA:         -13.436
REMARK INTER:                 -11.296
REMARK INTRA:                  -2.140
REMARK CONF_INDEPENDENT:        1.492
REMARK UNBOUND:                -2.140
REMARK  5 active torsions:
REMARK  status: ('A' for Active; 'I' for Inactive)
REMARK    1  A    between atoms: C_5  and  N_6 
REMARK       I    between atoms: N_6  and  C_7 
REMARK       I    between atoms: C_7  and  N_9 
REMARK    2  A    between atoms: N_9  and  C_10 
REMARK    3  A    between atoms: C_12  and  N_13 
REMARK       I    between atoms: N_13  and  C_14 
REMARK    4  A    between atoms: C_14  and  C_16 
REMARK    5  A    between atoms: C_25  and  N_26 
ROOT
ATOM      1  C   UNL d   1      24.440 -16.205  -1.444  0.00  0.00     0.065 A 
ATOM      2  C   UNL d   1      23.347 -17.094  -1.247  0.00  0.00     0.061 A 
ATOM      3  C   UNL d   1      23.476 -18.228  -0.405  0.00  0.00     0.037 A 
ATOM      4  C   UNL d   1      24.731 -18.527   0.105  0.00  0.00     0.032 A 
ATOM      5  C   UNL d   1      25.799 -17.669  -0.078  0.00  0.00     0.034 A 
ATOM      6  C   UNL d   1      25.684 -16.495  -0.827  0.00  0.00     0.057 A 
ENDROOT
BRANCH   1   7
ATOM      7  N   UNL d   1      24.294 -15.002  -2.233  0.00  0.00    -0.306 N 
ATOM      8  C   UNL d   1      25.112 -14.810  -3.343  0.00  0.00     0.325 C 
ATOM      9  N   UNL d   1      25.146 -13.519  -3.870  0.00  0.00    -0.309 N 
ATOM     10  O   UNL d   1      25.771 -15.743  -3.812  0.00  0.00    -0.247 OA
ATOM     11  H   UNL d   1      24.420 -12.866  -3.614  0.00  0.00     0.170 HD
ATOM     12  H   UNL d   1      23.432 -14.487  -2.159  0.00  0.00     0.170 HD
BRANCH   9  13
ATOM     13  C   UNL d   1      26.093 -13.097  -4.872  0.00  0.00     0.036 A 
ATOM     14  C   UNL d   1      26.048 -11.818  -5.437  0.00  0.00     0.030 A 
ATOM     15  C   UNL d   1      26.940 -11.393  -6.419  0.00  0.00     0.009 A 
ATOM     16  C   UNL d   1      27.932 -12.243  -6.889  0.00  0.00    -0.056 A 
ATOM     17  C   UNL d   1      28.853 -11.735  -7.964  0.00  0.00     0.049 C 
ATOM     18  C   UNL d   1      28.026 -13.538  -6.338  0.00  0.00    -0.054 A 
ATOM     19  C   UNL d   1      27.096 -13.959  -5.342  0.00  0.00     0.037 A 
ATOM     20  C   UNL d   1      29.123 -14.461  -6.801  0.00  0.00     0.049 C 
ENDBRANCH   9  13
ENDBRANCH   1   7
BRANCH   6  21
ATOM     21  N   UNL d   1      26.799 -15.682  -0.851  0.00  0.00    -0.379 N 
ATOM     22  C   UNL d   1      26.782 -14.435  -0.094  0.00  0.00     0.123 C 
ATOM     23  C   UNL d   1      27.199 -13.322  -1.046  0.00  0.00     0.020 C 
ATOM     24  C   UNL d   1      28.541 -13.654  -1.713  0.00  0.00     0.003 C 
ATOM     25  C   UNL d   1      28.549 -15.055  -2.342  0.00  0.00     0.020 C 
ATOM     26  C   UNL d   1      28.093 -16.110  -1.340  0.00  0.00     0.123 C 
ENDBRANCH   6  21
BRANCH   3  27
ATOM     27  N   UNL d   1      22.353 -19.021  -0.029  0.00  0.00    -0.323 N 
ATOM     28  C   UNL d   1      21.020 -18.720  -0.322  0.00  0.00     0.257 C 
ATOM     29  O   UNL d   1      20.601 -17.738  -0.943  0.00  0.00    -0.267 OA
ATOM     30  H   UNL d   1      22.544 -19.901   0.438  0.00  0.00     0.169 HD
BRANCH  28  31
ATOM     31  C   UNL d   1      19.956 -19.649   0.119  0.00  0.00     0.054 A 
ATOM     32  C   UNL d   1      19.073 -20.135  -0.873  0.00  0.00     0.019 A 
ATOM     33  C   UNL d   1      17.912 -20.824  -0.520  0.00  0.00     0.001 A 
ATOM     34  C   UNL d   1      17.655 -21.090   0.820  0.00  0.00     0.002 A 
ATOM     35  C   UNL d   1      18.532 -20.629   1.805  0.00  0.00     0.025 A 
ATOM     36  C   UNL d   1      19.678 -19.903   1.463  0.00  0.00     0.049 A 
ATOM     37 CL   UNL d   1      20.655 -19.325   2.763  0.00  0.00    -0.083 Cl
ENDBRANCH  28  31
ENDBRANCH   3  27
TORSDOF 5
ENDMDL
MODEL 2
REMARK VINA RESULT:    -9.411      4.025     10.001
REMARK INTER + INTRA:         -12.386
REMARK INTER:                 -10.902
REMARK INTRA:                  -1.484
REMARK CONF_INDEPENDENT:        1.492
REMARK UNBOUND:                -1.484
REMARK  5 active torsions:
REMARK  status: ('A' for Active; 'I' for Inactive)
REMARK    1  A    between atoms: C_5  and  N_6 
REMARK       I    between atoms: N_6  and  C_7 
REMARK       I    between atoms: C_7  and  N_9 
REMARK    2  A    between atoms: N_9  and  C_10 
REMARK    3  A    between atoms: C_12  and  N_13 
REMARK       I    between atoms: N_13  and  C_14 
REMARK    4  A    between atoms: C_14  and  C_16 
REMARK    5  A    between atoms: C_25  and  N_26 
ROOT
ATOM      1  C   UNL d   1      27.024 -15.661  -1.504  0.00  0.00     0.065 A 
ATOM      2  C   UNL d   1      27.747 -14.964  -2.512  0.00  0.00     0.061 A 
ATOM      3  C   UNL d   1      27.145 -14.662  -3.760  0.00  0.00     0.037 A 
ATOM      4  C   UNL d   1      25.887 -15.186  -4.025  0.00  0.00     0.032 A 
ATOM      5  C   UNL d   1      25.175 -15.862  -3.052  0.00  0.00     0.034 A 
ATOM      6  C   UNL d   1      25.704 -16.099  -1.780  0.00  0.00     0.057 A 
ENDROOT
BRANCH   1   7
ATOM      7  N   UNL d   1      27.601 -15.901  -0.200  0.00  0.00    -0.306 N 
ATOM      8  C   UNL d   1      27.326 -15.019   0.842  0.00  0.00     0.325 C 
ATOM      9  N   UNL d   1      28.142 -15.118   1.968  0.00  0.00    -0.309 N 
ATOM     10  O   UNL d   1      26.411 -14.194   0.746  0.00  0.00    -0.247 OA
ATOM     11  H   UNL d   1      28.700 -15.950   2.098  0.00  0.00     0.170 HD
ATOM     12  H   UNL d   1      27.926 -16.830   0.012  0.00  0.00     0.170 HD
BRANCH   9  13
ATOM     13  C   UNL d   1      28.137 -14.151   3.037  0.00  0.00     0.036 A 
ATOM     14  C   UNL d   1      27.775 -12.816   2.824  0.00  0.00     0.030 A 
ATOM     15  C   UNL d   1      27.780 -11.861   3.837  0.00  0.00     0.009 A 
ATOM     16  C   UNL d   1      28.155 -12.201   5.130  0.00  0.00    -0.056 A 
ATOM     17  C   UNL d   1      28.159 -11.122   6.176  0.00  0.00     0.049 C 
ATOM     18  C   UNL d   1      28.514 -13.539   5.396  0.00  0.00    -0.054 A 
ATOM     19  C   UNL d   1      28.515 -14.501   4.344  0.00  0.00     0.037 A 
ATOM     20  C   UNL d   1      28.881 -13.941   6.801  0.00  0.00     0.049 C 
ENDBRANCH   9  13
ENDBRANCH   1   7
BRANCH   6  21
ATOM     21  N   UNL d   1      24.853 -16.701  -0.876  0.00  0.00    -0.379 N 
ATOM     22  C   UNL d   1      25.371 -17.755  -0.011  0.00  0.00     0.123 C 
ATOM     23  C   UNL d   1      24.436 -18.950  -0.145  0.00  0.00     0.020 C 
ATOM     24  C   UNL d   1      22.985 -18.538   0.137  0.00  0.00     0.003 C 
ATOM     25  C   UNL d   1      22.557 -17.310  -0.681  0.00  0.00     0.020 C 
ATOM     26  C   UNL d   1      23.555 -16.168  -0.520  0.00  0.00     0.123 C 
ENDBRANCH   6  21
BRANCH   3  27
ATOM     27  N   UNL d   1      27.765 -13.796  -4.708  0.00  0.00    -0.323 N 
ATOM     28  C   UNL d   1      28.044 -14.127  -6.036  0.00  0.00     0.257 C 
ATOM     29  O   UNL d   1      27.807 -15.200  -6.599  0.00  0.00    -0.267 OA
ATOM     30  H   UNL d   1      27.965 -12.849  -4.407  0.00  0.00     0.169 HD
BRANCH  28  31
ATOM     31  C   UNL d   1      28.679 -13.117  -6.913  0.00  0.00     0.054 A 
ATOM     32  C   UNL d   1      27.874 -12.034  -7.335  0.00  0.00     0.019 A 
ATOM     33  C   UNL d   1      28.311 -11.167  -8.338  0.00  0.00     0.001 A 
ATOM     34  C   UNL d   1      29.580 -11.334  -8.880  0.00  0.00     0.002 A 
ATOM     35  C   UNL d   1      30.389 -12.391  -8.455  0.00  0.00     0.025 A 
ATOM     36  C   UNL d   1      29.943 -13.289  -7.479  0.00  0.00     0.049 A 
ATOM     37 CL   UNL d   1      30.996 -14.596  -7.078  0.00  0.00    -0.083 Cl
ENDBRANCH  28  31
ENDBRANCH   3  27
TORSDOF 5
ENDMDL
MODEL 3
REMARK VINA RESULT:    -8.934      4.625      8.781
REMARK INTER + INTRA:         -11.828
REMARK INTER:                 -10.425
REMARK INTRA:                  -1.403
REMARK CONF_INDEPENDENT:        1.492
REMARK UNBOUND:                -1.403
REMARK  5 active torsions:
REMARK  status: ('A' for Active; 'I' for Inactive)
REMARK    1  A    between atoms: C_5  and  N_6 
REMARK       I    between atoms: N_6  and  C_7 
REMARK       I    between atoms: C_7  and  N_9 
REMARK    2  A    between atoms: N_9  and  C_10 
REMARK    3  A    between atoms: C_12  and  N_13 
REMARK       I    between atoms: N_13  and  C_14 
REMARK    4  A    between atoms: C_14  and  C_16 
REMARK    5  A    between atoms: C_25  and  N_26 
ROOT
ATOM      1  C   UNL d   1      26.999 -14.986  -3.487  0.00  0.00     0.065 A 
ATOM      2  C   UNL d   1      26.771 -13.812  -4.257  0.00  0.00     0.061 A 
ATOM      3  C   UNL d   1      25.534 -13.123  -4.183  0.00  0.00     0.037 A 
ATOM      4  C   UNL d   1      24.504 -13.701  -3.453  0.00  0.00     0.032 A 
ATOM      5  C   UNL d   1      24.715 -14.840  -2.699  0.00  0.00     0.034 A 
ATOM      6  C   UNL d   1      25.950 -15.494  -2.679  0.00  0.00     0.057 A 
ENDROOT
BRANCH   1   7
ATOM      7  N   UNL d   1      28.284 -15.648  -3.493  0.00  0.00    -0.306 N 
ATOM      8  C   UNL d   1      28.857 -16.019  -4.707  0.00  0.00     0.325 C 
ATOM      9  N   UNL d   1      29.922 -16.916  -4.639  0.00  0.00    -0.309 N 
ATOM     10  O   UNL d   1      28.420 -15.575  -5.773  0.00  0.00    -0.247 OA
ATOM     11  H   UNL d   1      30.392 -17.055  -3.755  0.00  0.00     0.170 HD
ATOM     12  H   UNL d   1      28.868 -15.558  -2.678  0.00  0.00     0.170 HD
BRANCH   9  13
ATOM     13  C   UNL d   1      30.485 -17.566  -5.796  0.00  0.00     0.036 A 
ATOM     14  C   UNL d   1      30.997 -16.838  -6.875  0.00  0.00     0.030 A 
ATOM     15  C   UNL d   1      31.530 -17.443  -8.011  0.00  0.00     0.009 A 
ATOM     16  C   UNL d   1      31.574 -18.827  -8.122  0.00  0.00    -0.056 A 
ATOM     17  C   UNL d   1      32.142 -19.421  -9.380  0.00  0.00     0.049 C 
ATOM     18  C   UNL d   1      31.083 -19.603  -7.051  0.00  0.00    -0.054 A 
ATOM     19  C   UNL d   1      30.530 -18.966  -5.902  0.00  0.00     0.037 A 
ATOM     20  C   UNL d   1      31.161 -21.105  -7.131  0.00  0.00     0.049 C 
ENDBRANCH   9  13
ENDBRANCH   1   7
BRANCH   6  21
ATOM     21  N   UNL d   1      26.052 -16.563  -1.811  0.00  0.00    -0.379 N 
ATOM     22  C   UNL d   1      24.907 -17.450  -1.645  0.00  0.00     0.123 C 
ATOM     23  C   UNL d   1      24.638 -17.566  -0.150  0.00  0.00     0.020 C 
ATOM     24  C   UNL d   1      25.907 -18.002   0.597  0.00  0.00     0.003 C 
ATOM     25  C   UNL d   1      27.121 -17.131   0.241  0.00  0.00     0.020 C 
ATOM     26  C   UNL d   1      27.307 -17.038  -1.269  0.00  0.00     0.123 C 
ENDBRANCH   6  21
BRANCH   3  27
ATOM     27  N   UNL d   1      25.345 -11.843  -4.781  0.00  0.00    -0.323 N 
ATOM     28  C   UNL d   1      25.905 -10.648  -4.320  0.00  0.00     0.257 C 
ATOM     29  O   UNL d   1      26.641 -10.505  -3.339  0.00  0.00    -0.267 OA
ATOM     30  H   UNL d   1      24.809 -11.810  -5.641  0.00  0.00     0.169 HD
BRANCH  28  31
ATOM     31  C   UNL d   1      25.634  -9.393  -5.055  0.00  0.00     0.054 A 
ATOM     32  C   UNL d   1      24.802  -8.442  -4.420  0.00  0.00     0.019 A 
ATOM     33  C   UNL d   1      24.309  -7.341  -5.123  0.00  0.00     0.001 A 
ATOM     34  C   UNL d   1      24.693  -7.147  -6.444  0.00  0.00     0.002 A 
ATOM     35  C   UNL d   1      25.530  -8.072  -7.073  0.00  0.00     0.025 A 
ATOM     36  C   UNL d   1      25.998  -9.199  -6.388  0.00  0.00     0.049 A 
ATOM     37 CL   UNL d   1      26.970 -10.310  -7.282  0.00  0.00    -0.083 Cl
ENDBRANCH  28  31
ENDBRANCH   3  27
TORSDOF 5
ENDMDL
MODEL 4
REMARK VINA RESULT:    -8.858      4.361      8.975
REMARK INTER + INTRA:         -11.603
REMARK INTER:                 -10.350
REMARK INTRA:                  -1.253
REMARK CONF_INDEPENDENT:        1.492
REMARK UNBOUND:                -1.253
REMARK  5 active torsions:
REMARK  status: ('A' for Active; 'I' for Inactive)
REMARK    1  A    between atoms: C_5  and  N_6 
REMARK       I    between atoms: N_6  and  C_7 
REMARK       I    between atoms: C_7  and  N_9 
REMARK    2  A    between atoms: N_9  and  C_10 
REMARK    3  A    between atoms: C_12  and  N_13 
REMARK       I    between atoms: N_13  and  C_14 
REMARK    4  A    between atoms: C_14  and  C_16 
REMARK    5  A    between atoms: C_25  and  N_26 
ROOT
ATOM      1  C   UNL d   1      27.032 -15.132  -3.532  0.00  0.00     0.065 A 
ATOM      2  C   UNL d   1      26.894 -13.966  -4.336  0.00  0.00     0.061 A 
ATOM      3  C   UNL d   1      25.708 -13.190  -4.293  0.00  0.00     0.037 A 
ATOM      4  C   UNL d   1      24.634 -13.673  -3.558  0.00  0.00     0.032 A 
ATOM      5  C   UNL d   1      24.758 -14.802  -2.771  0.00  0.00     0.034 A 
ATOM      6  C   UNL d   1      25.943 -15.542  -2.720  0.00  0.00     0.057 A 
ENDROOT
BRANCH   1   7
ATOM      7  N   UNL d   1      28.267 -15.883  -3.507  0.00  0.00    -0.306 N 
ATOM      8  C   UNL d   1      28.907 -16.186  -4.706  0.00  0.00     0.325 C 
ATOM      9  N   UNL d   1      29.902 -17.161  -4.645  0.00  0.00    -0.309 N 
ATOM     10  O   UNL d   1      28.587 -15.618  -5.755  0.00  0.00    -0.247 OA
ATOM     11  H   UNL d   1      30.291 -17.411  -3.747  0.00  0.00     0.170 HD
ATOM     12  H   UNL d   1      28.790 -15.908  -2.647  0.00  0.00     0.170 HD
BRANCH   9  13
ATOM     13  C   UNL d   1      30.510 -17.745  -5.815  0.00  0.00     0.036 A 
ATOM     14  C   UNL d   1      30.987 -16.959  -6.870  0.00  0.00     0.030 A 
ATOM     15  C   UNL d   1      31.562 -17.501  -8.016  0.00  0.00     0.009 A 
ATOM     16  C   UNL d   1      31.687 -18.876  -8.165  0.00  0.00    -0.056 A 
ATOM     17  C   UNL d   1      32.298 -19.402  -9.433  0.00  0.00     0.049 C 
ATOM     18  C   UNL d   1      31.234 -19.708  -7.120  0.00  0.00    -0.054 A 
ATOM     19  C   UNL d   1      30.637 -19.136  -5.959  0.00  0.00     0.037 A 
ATOM     20  C   UNL d   1      31.399 -21.201  -7.239  0.00  0.00     0.049 C 
ENDBRANCH   9  13
ENDBRANCH   1   7
BRANCH   6  21
ATOM     21  N   UNL d   1      25.963 -16.590  -1.823  0.00  0.00    -0.379 N 
ATOM     22  C   UNL d   1      24.789 -17.448  -1.713  0.00  0.00     0.123 C 
ATOM     23  C   UNL d   1      24.417 -17.521  -0.238  0.00  0.00     0.020 C 
ATOM     24  C   UNL d   1      25.623 -17.965   0.603  0.00  0.00     0.003 C 
ATOM     25  C   UNL d   1      26.878 -17.128   0.311  0.00  0.00     0.020 C 
ATOM     26  C   UNL d   1      27.167 -17.078  -1.186  0.00  0.00     0.123 C 
ENDBRANCH   6  21
BRANCH   3  27
ATOM     27  N   UNL d   1      25.615 -11.917  -4.928  0.00  0.00    -0.323 N 
ATOM     28  C   UNL d   1      26.542 -11.401  -5.837  0.00  0.00     0.257 C 
ATOM     29  O   UNL d   1      27.575 -11.950  -6.234  0.00  0.00    -0.267 OA
ATOM     30  H   UNL d   1      24.780 -11.371  -4.747  0.00  0.00     0.169 HD
BRANCH  28  31
ATOM     31  C   UNL d   1      26.305 -10.067  -6.431  0.00  0.00     0.054 A 
ATOM     32  C   UNL d   1      26.646  -9.899  -7.794  0.00  0.00     0.019 A 
ATOM     33  C   UNL d   1      26.675  -8.629  -8.372  0.00  0.00     0.001 A 
ATOM     34  C   UNL d   1      26.300  -7.525  -7.614  0.00  0.00     0.002 A 
ATOM     35  C   UNL d   1      25.944  -7.685  -6.273  0.00  0.00     0.025 A 
ATOM     36  C   UNL d   1      25.951  -8.950  -5.675  0.00  0.00     0.049 A 
ATOM     37 CL   UNL d   1      25.558  -9.023  -3.995  0.00  0.00    -0.083 Cl
ENDBRANCH  28  31
ENDBRANCH   3  27
TORSDOF 5
ENDMDL
MODEL 5
REMARK VINA RESULT:    -8.807      4.503      9.945
REMARK INTER + INTRA:         -11.922
REMARK INTER:                 -10.299
REMARK INTRA:                  -1.623
REMARK CONF_INDEPENDENT:        1.492
REMARK UNBOUND:                -1.623
REMARK  5 active torsions:
REMARK  status: ('A' for Active; 'I' for Inactive)
REMARK    1  A    between atoms: C_5  and  N_6 
REMARK       I    between atoms: N_6  and  C_7 
REMARK       I    between atoms: C_7  and  N_9 
REMARK    2  A    between atoms: N_9  and  C_10 
REMARK    3  A    between atoms: C_12  and  N_13 
REMARK       I    between atoms: N_13  and  C_14 
REMARK    4  A    between atoms: C_14  and  C_16 
REMARK    5  A    between atoms: C_25  and  N_26 
ROOT
ATOM      1  C   UNL d   1      26.630 -14.372  -1.437  0.00  0.00     0.065 A 
ATOM      2  C   UNL d   1      26.651 -13.060  -1.987  0.00  0.00     0.061 A 
ATOM      3  C   UNL d   1      25.688 -12.660  -2.949  0.00  0.00     0.037 A 
ATOM      4  C   UNL d   1      24.818 -13.621  -3.444  0.00  0.00     0.032 A 
ATOM      5  C   UNL d   1      24.787 -14.898  -2.915  0.00  0.00     0.034 A 
ATOM      6  C   UNL d   1      25.663 -15.299  -1.902  0.00  0.00     0.057 A 
ENDROOT
BRANCH   1   7
ATOM      7  N   UNL d   1      27.555 -14.762  -0.396  0.00  0.00    -0.306 N 
ATOM      8  C   UNL d   1      27.291 -14.401   0.923  0.00  0.00     0.325 C 
ATOM      9  N   UNL d   1      28.350 -14.525   1.821  0.00  0.00    -0.309 N 
ATOM     10  O   UNL d   1      26.176 -13.985   1.253  0.00  0.00    -0.247 OA
ATOM     11  H   UNL d   1      29.147 -15.090   1.565  0.00  0.00     0.170 HD
ATOM     12  H   UNL d   1      28.187 -15.522  -0.583  0.00  0.00     0.170 HD
BRANCH   9  13
ATOM     13  C   UNL d   1      28.317 -13.999   3.163  0.00  0.00     0.036 A 
ATOM     14  C   UNL d   1      28.456 -14.825   4.284  0.00  0.00     0.030 A 
ATOM     15  C   UNL d   1      28.409 -14.342   5.589  0.00  0.00     0.009 A 
ATOM     16  C   UNL d   1      28.216 -12.989   5.838  0.00  0.00    -0.056 A 
ATOM     17  C   UNL d   1      28.155 -12.531   7.268  0.00  0.00     0.049 C 
ATOM     18  C   UNL d   1      28.086 -12.116   4.738  0.00  0.00    -0.054 A 
ATOM     19  C   UNL d   1      28.124 -12.630   3.409  0.00  0.00     0.037 A 
ATOM     20  C   UNL d   1      27.921 -10.638   4.983  0.00  0.00     0.049 C 
ENDBRANCH   9  13
ENDBRANCH   1   7
BRANCH   6  21
ATOM     21  N   UNL d   1      25.462 -16.568  -1.399  0.00  0.00    -0.379 N 
ATOM     22  C   UNL d   1      24.188 -17.233  -1.645  0.00  0.00     0.123 C 
ATOM     23  C   UNL d   1      23.661 -17.714  -0.299  0.00  0.00     0.020 C 
ATOM     24  C   UNL d   1      24.711 -18.575   0.418  0.00  0.00     0.003 C 
ATOM     25  C   UNL d   1      26.081 -17.884   0.489  0.00  0.00     0.020 C 
ATOM     26  C   UNL d   1      26.527 -17.406  -0.888  0.00  0.00     0.123 C 
ENDBRANCH   6  21
BRANCH   3  27
ATOM     27  N   UNL d   1      25.557 -11.304  -3.368  0.00  0.00    -0.323 N 
ATOM     28  C   UNL d   1      26.456 -10.278  -3.066  0.00  0.00     0.257 C 
ATOM     29  O   UNL d   1      27.491 -10.371  -2.400  0.00  0.00    -0.267 OA
ATOM     30  H   UNL d   1      24.780 -11.084  -3.981  0.00  0.00     0.169 HD
BRANCH  28  31
ATOM     31  C   UNL d   1      26.198  -8.916  -3.586  0.00  0.00     0.054 A 
ATOM     32  C   UNL d   1      26.201  -7.858  -2.648  0.00  0.00     0.019 A 
ATOM     33  C   UNL d   1      25.745  -6.587  -3.002  0.00  0.00     0.001 A 
ATOM     34  C   UNL d   1      25.345  -6.346  -4.311  0.00  0.00     0.002 A 
ATOM     35  C   UNL d   1      25.356  -7.382  -5.249  0.00  0.00     0.025 A 
ATOM     36  C   UNL d   1      25.775  -8.669  -4.892  0.00  0.00     0.049 A 
ATOM     37 CL   UNL d   1      25.685  -9.887  -6.111  0.00  0.00    -0.083 Cl
ENDBRANCH  28  31
ENDBRANCH   3  27
TORSDOF 5
ENDMDL
MODEL 6
REMARK VINA RESULT:    -8.742      4.546      9.923
REMARK INTER + INTRA:         -11.824
REMARK INTER:                 -10.233
REMARK INTRA:                  -1.590
REMARK CONF_INDEPENDENT:        1.492
REMARK UNBOUND:                -1.590
REMARK  5 active torsions:
REMARK  status: ('A' for Active; 'I' for Inactive)
REMARK    1  A    between atoms: C_5  and  N_6 
REMARK       I    between atoms: N_6  and  C_7 
REMARK       I    between atoms: C_7  and  N_9 
REMARK    2  A    between atoms: N_9  and  C_10 
REMARK    3  A    between atoms: C_12  and  N_13 
REMARK       I    between atoms: N_13  and  C_14 
REMARK    4  A    between atoms: C_14  and  C_16 
REMARK    5  A    between atoms: C_25  and  N_26 
ROOT
ATOM      1  C   UNL d   1      26.681 -14.262  -1.530  0.00  0.00     0.065 A 
ATOM      2  C   UNL d   1      26.654 -12.954  -2.090  0.00  0.00     0.061 A 
ATOM      3  C   UNL d   1      25.717 -12.616  -3.100  0.00  0.00     0.037 A 
ATOM      4  C   UNL d   1      24.928 -13.628  -3.628  0.00  0.00     0.032 A 
ATOM      5  C   UNL d   1      24.944 -14.901  -3.089  0.00  0.00     0.034 A 
ATOM      6  C   UNL d   1      25.791 -15.245  -2.032  0.00  0.00     0.057 A 
ENDROOT
BRANCH   1   7
ATOM      7  N   UNL d   1      27.575 -14.592  -0.443  0.00  0.00    -0.306 N 
ATOM      8  C   UNL d   1      27.290 -14.132   0.840  0.00  0.00     0.325 C 
ATOM      9  N   UNL d   1      28.327 -14.210   1.769  0.00  0.00    -0.309 N 
ATOM     10  O   UNL d   1      26.177 -13.673   1.114  0.00  0.00    -0.247 OA
ATOM     11  H   UNL d   1      29.119 -14.806   1.572  0.00  0.00     0.170 HD
ATOM     12  H   UNL d   1      28.197 -15.375  -0.561  0.00  0.00     0.170 HD
BRANCH   9  13
ATOM     13  C   UNL d   1      28.276 -13.588   3.068  0.00  0.00     0.036 A 
ATOM     14  C   UNL d   1      27.898 -12.250   3.231  0.00  0.00     0.030 A 
ATOM     15  C   UNL d   1      27.857 -11.622   4.473  0.00  0.00     0.009 A 
ATOM     16  C   UNL d   1      28.200 -12.313   5.628  0.00  0.00    -0.056 A 
ATOM     17  C   UNL d   1      28.156 -11.576   6.937  0.00  0.00     0.049 C 
ATOM     18  C   UNL d   1      28.573 -13.668   5.514  0.00  0.00    -0.054 A 
ATOM     19  C   UNL d   1      28.621 -14.291   4.233  0.00  0.00     0.037 A 
ATOM     20  C   UNL d   1      28.906 -14.450   6.759  0.00  0.00     0.049 C 
ENDBRANCH   9  13
ENDBRANCH   1   7
BRANCH   6  21
ATOM     21  N   UNL d   1      25.639 -16.521  -1.528  0.00  0.00    -0.379 N 
ATOM     22  C   UNL d   1      24.425 -17.265  -1.842  0.00  0.00     0.123 C 
ATOM     23  C   UNL d   1      23.848 -17.768  -0.525  0.00  0.00     0.020 C 
ATOM     24  C   UNL d   1      24.903 -18.556   0.263  0.00  0.00     0.003 C 
ATOM     25  C   UNL d   1      26.222 -17.782   0.409  0.00  0.00     0.020 C 
ATOM     26  C   UNL d   1      26.720 -17.286  -0.945  0.00  0.00     0.123 C 
ENDBRANCH   6  21
BRANCH   3  27
ATOM     27  N   UNL d   1      25.530 -11.272  -3.537  0.00  0.00    -0.323 N 
ATOM     28  C   UNL d   1      26.398 -10.210  -3.270  0.00  0.00     0.257 C 
ATOM     29  O   UNL d   1      27.450 -10.257  -2.625  0.00  0.00    -0.267 OA
ATOM     30  H   UNL d   1      24.733 -11.088  -4.137  0.00  0.00     0.169 HD
BRANCH  28  31
ATOM     31  C   UNL d   1      26.082  -8.867  -3.805  0.00  0.00     0.054 A 
ATOM     32  C   UNL d   1      25.930  -7.820  -2.867  0.00  0.00     0.019 A 
ATOM     33  C   UNL d   1      25.410  -6.583  -3.254  0.00  0.00     0.001 A 
ATOM     34  C   UNL d   1      25.100  -6.361  -4.590  0.00  0.00     0.002 A 
ATOM     35  C   UNL d   1      25.265  -7.384  -5.527  0.00  0.00     0.025 A 
ATOM     36  C   UNL d   1      25.748  -8.640  -5.140  0.00  0.00     0.049 A 
ATOM     37 CL   UNL d   1      25.848  -9.850  -6.367  0.00  0.00    -0.083 Cl
ENDBRANCH  28  31
ENDBRANCH   3  27
TORSDOF 5
ENDMDL
MODEL 7
REMARK VINA RESULT:    -8.515      4.120     10.082
REMARK INTER + INTRA:         -11.248
REMARK INTER:                 -10.006
REMARK INTRA:                  -1.242
REMARK CONF_INDEPENDENT:        1.492
REMARK UNBOUND:                -1.242
REMARK  5 active torsions:
REMARK  status: ('A' for Active; 'I' for Inactive)
REMARK    1  A    between atoms: C_5  and  N_6 
REMARK       I    between atoms: N_6  and  C_7 
REMARK       I    between atoms: C_7  and  N_9 
REMARK    2  A    between atoms: N_9  and  C_10 
REMARK    3  A    between atoms: C_12  and  N_13 
REMARK       I    between atoms: N_13  and  C_14 
REMARK    4  A    between atoms: C_14  and  C_16 
REMARK    5  A    between atoms: C_25  and  N_26 
ROOT
ATOM      1  C   UNL d   1      26.830 -14.749  -1.204  0.00  0.00     0.065 A 
ATOM      2  C   UNL d   1      27.339 -13.704  -2.026  0.00  0.00     0.061 A 
ATOM      3  C   UNL d   1      26.592 -13.218  -3.129  0.00  0.00     0.037 A 
ATOM      4  C   UNL d   1      25.421 -13.881  -3.471  0.00  0.00     0.032 A 
ATOM      5  C   UNL d   1      24.916 -14.894  -2.678  0.00  0.00     0.034 A 
ATOM      6  C   UNL d   1      25.582 -15.338  -1.532  0.00  0.00     0.057 A 
ENDROOT
BRANCH   1   7
ATOM      7  N   UNL d   1      27.546 -15.194  -0.030  0.00  0.00    -0.306 N 
ATOM      8  C   UNL d   1      27.302 -14.577   1.194  0.00  0.00     0.325 C 
ATOM      9  N   UNL d   1      28.228 -14.825   2.207  0.00  0.00    -0.309 N 
ATOM     10  O   UNL d   1      26.319 -13.845   1.348  0.00  0.00    -0.247 OA
ATOM     11  H   UNL d   1      28.861 -15.607   2.113  0.00  0.00     0.170 HD
ATOM     12  H   UNL d   1      27.964 -16.110  -0.047  0.00  0.00     0.170 HD
BRANCH   9  13
ATOM     13  C   UNL d   1      28.247 -14.105   3.456  0.00  0.00     0.036 A 
ATOM     14  C   UNL d   1      28.498 -14.747   4.674  0.00  0.00     0.030 A 
ATOM     15  C   UNL d   1      28.505 -14.076   5.894  0.00  0.00     0.009 A 
ATOM     16  C   UNL d   1      28.255 -12.711   5.954  0.00  0.00    -0.056 A 
ATOM     17  C   UNL d   1      28.256 -12.047   7.302  0.00  0.00     0.049 C 
ATOM     18  C   UNL d   1      28.012 -12.019   4.750  0.00  0.00    -0.054 A 
ATOM     19  C   UNL d   1      27.997 -12.725   3.511  0.00  0.00     0.037 A 
ATOM     20  C   UNL d   1      27.783 -10.530   4.786  0.00  0.00     0.049 C 
ENDBRANCH   9  13
ENDBRANCH   1   7
BRANCH   6  21
ATOM     21  N   UNL d   1      24.923 -16.289  -0.781  0.00  0.00    -0.379 N 
ATOM     22  C   UNL d   1      25.691 -17.126   0.132  0.00  0.00     0.123 C 
ATOM     23  C   UNL d   1      25.328 -18.575  -0.167  0.00  0.00     0.020 C 
ATOM     24  C   UNL d   1      23.807 -18.776  -0.103  0.00  0.00     0.003 C 
ATOM     25  C   UNL d   1      23.046 -17.748  -0.953  0.00  0.00     0.020 C 
ATOM     26  C   UNL d   1      23.485 -16.326  -0.618  0.00  0.00     0.123 C 
ENDBRANCH   6  21
BRANCH   3  27
ATOM     27  N   UNL d   1      26.977 -12.047  -3.845  0.00  0.00    -0.323 N 
ATOM     28  C   UNL d   1      26.393 -11.602  -5.033  0.00  0.00     0.257 C 
ATOM     29  O   UNL d   1      25.465 -12.136  -5.649  0.00  0.00    -0.267 OA
ATOM     30  H   UNL d   1      27.693 -11.465  -3.426  0.00  0.00     0.169 HD
BRANCH  28  31
ATOM     31  C   UNL d   1      26.887 -10.355  -5.658  0.00  0.00     0.054 A 
ATOM     32  C   UNL d   1      27.984 -10.470  -6.544  0.00  0.00     0.019 A 
ATOM     33  C   UNL d   1      28.659  -9.335  -6.996  0.00  0.00     0.001 A 
ATOM     34  C   UNL d   1      28.204  -8.076  -6.622  0.00  0.00     0.002 A 
ATOM     35  C   UNL d   1      27.110  -7.953  -5.763  0.00  0.00     0.025 A 
ATOM     36  C   UNL d   1      26.452  -9.087  -5.272  0.00  0.00     0.049 A 
ATOM     37 CL   UNL d   1      25.155  -8.821  -4.165  0.00  0.00    -0.083 Cl
ENDBRANCH  28  31
ENDBRANCH   3  27
TORSDOF 5
ENDMDL
MODEL 8
REMARK VINA RESULT:    -7.986      5.190      8.618
REMARK INTER + INTRA:         -11.191
REMARK INTER:                  -9.478
REMARK INTRA:                  -1.713
REMARK CONF_INDEPENDENT:        1.492
REMARK UNBOUND:                -1.713
REMARK  5 active torsions:
REMARK  status: ('A' for Active; 'I' for Inactive)
REMARK    1  A    between atoms: C_5  and  N_6 
REMARK       I    between atoms: N_6  and  C_7 
REMARK       I    between atoms: C_7  and  N_9 
REMARK    2  A    between atoms: N_9  and  C_10 
REMARK    3  A    between atoms: C_12  and  N_13 
REMARK       I    between atoms: N_13  and  C_14 
REMARK    4  A    between atoms: C_14  and  C_16 
REMARK    5  A    between atoms: C_25  and  N_26 
ROOT
ATOM      1  C   UNL d   1      28.534 -15.316   0.886  0.00  0.00     0.065 A 
ATOM      2  C   UNL d   1      29.020 -14.517   1.958  0.00  0.00     0.061 A 
ATOM      3  C   UNL d   1      28.188 -13.549   2.577  0.00  0.00     0.037 A 
ATOM      4  C   UNL d   1      26.941 -13.302   2.019  0.00  0.00     0.032 A 
ATOM      5  C   UNL d   1      26.458 -14.075   0.980  0.00  0.00     0.034 A 
ATOM      6  C   UNL d   1      27.218 -15.098   0.405  0.00  0.00     0.057 A 
ENDROOT
BRANCH   1   7
ATOM      7  N   UNL d   1      29.346 -16.362   0.304  0.00  0.00    -0.306 N 
ATOM      8  C   UNL d   1      29.690 -16.290  -1.043  0.00  0.00     0.325 C 
ATOM      9  N   UNL d   1      30.194 -17.457  -1.615  0.00  0.00    -0.309 N 
ATOM     10  O   UNL d   1      29.536 -15.242  -1.680  0.00  0.00    -0.247 OA
ATOM     11  H   UNL d   1      30.526 -18.196  -1.011  0.00  0.00     0.170 HD
ATOM     12  H   UNL d   1      29.889 -16.941   0.923  0.00  0.00     0.170 HD
BRANCH   9  13
ATOM     13  C   UNL d   1      30.396 -17.621  -3.033  0.00  0.00     0.036 A 
ATOM     14  C   UNL d   1      31.050 -18.740  -3.561  0.00  0.00     0.030 A 
ATOM     15  C   UNL d   1      31.272 -18.912  -4.925  0.00  0.00     0.009 A 
ATOM     16  C   UNL d   1      30.845 -17.957  -5.838  0.00  0.00    -0.056 A 
ATOM     17  C   UNL d   1      31.131 -18.189  -7.296  0.00  0.00     0.049 C 
ATOM     18  C   UNL d   1      30.167 -16.819  -5.354  0.00  0.00    -0.054 A 
ATOM     19  C   UNL d   1      29.960 -16.654  -3.953  0.00  0.00     0.037 A 
ATOM     20  C   UNL d   1      29.655 -15.792  -6.330  0.00  0.00     0.049 C 
ENDBRANCH   9  13
ENDBRANCH   1   7
BRANCH   6  21
ATOM     21  N   UNL d   1      26.581 -15.853  -0.559  0.00  0.00    -0.379 N 
ATOM     22  C   UNL d   1      26.258 -15.237  -1.840  0.00  0.00     0.123 C 
ATOM     23  C   UNL d   1      24.781 -15.496  -2.107  0.00  0.00     0.020 C 
ATOM     24  C   UNL d   1      24.468 -16.996  -2.015  0.00  0.00     0.003 C 
ATOM     25  C   UNL d   1      24.992 -17.622  -0.713  0.00  0.00     0.020 C 
ATOM     26  C   UNL d   1      26.466 -17.295  -0.501  0.00  0.00     0.123 C 
ENDBRANCH   6  21
BRANCH   3  27
ATOM     27  N   UNL d   1      28.573 -12.877   3.774  0.00  0.00    -0.323 N 
ATOM     28  C   UNL d   1      28.082 -13.162   5.051  0.00  0.00     0.257 C 
ATOM     29  O   UNL d   1      27.251 -14.026   5.349  0.00  0.00    -0.267 OA
ATOM     30  H   UNL d   1      29.301 -12.177   3.696  0.00  0.00     0.169 HD
BRANCH  28  31
ATOM     31  C   UNL d   1      28.587 -12.391   6.208  0.00  0.00     0.054 A 
ATOM     32  C   UNL d   1      28.874 -13.114   7.389  0.00  0.00     0.019 A 
ATOM     33  C   UNL d   1      29.132 -12.450   8.589  0.00  0.00     0.001 A 
ATOM     34  C   UNL d   1      29.169 -11.061   8.606  0.00  0.00     0.002 A 
ATOM     35  C   UNL d   1      28.905 -10.339   7.440  0.00  0.00     0.025 A 
ATOM     36  C   UNL d   1      28.607 -10.996   6.241  0.00  0.00     0.049 A 
ATOM     37 CL   UNL d   1      28.231 -10.005   4.879  0.00  0.00    -0.083 Cl
ENDBRANCH  28  31
ENDBRANCH   3  27
TORSDOF 5
ENDMDL
MODEL 9
REMARK VINA RESULT:    -7.746      5.214      8.421
REMARK INTER + INTRA:         -11.439
REMARK INTER:                  -9.237
REMARK INTRA:                  -2.201
REMARK CONF_INDEPENDENT:        1.492
REMARK UNBOUND:                -2.201
REMARK  5 active torsions:
REMARK  status: ('A' for Active; 'I' for Inactive)
REMARK    1  A    between atoms: C_5  and  N_6 
REMARK       I    between atoms: N_6  and  C_7 
REMARK       I    between atoms: C_7  and  N_9 
REMARK    2  A    between atoms: N_9  and  C_10 
REMARK    3  A    between atoms: C_12  and  N_13 
REMARK       I    between atoms: N_13  and  C_14 
REMARK    4  A    between atoms: C_14  and  C_16 
REMARK    5  A    between atoms: C_25  and  N_26 
ROOT
ATOM      1  C   UNL d   1      28.202 -14.879   1.004  0.00  0.00     0.065 A 
ATOM      2  C   UNL d   1      28.763 -14.408   2.224  0.00  0.00     0.061 A 
ATOM      3  C   UNL d   1      28.177 -13.320   2.921  0.00  0.00     0.037 A 
ATOM      4  C   UNL d   1      27.131 -12.639   2.313  0.00  0.00     0.032 A 
ATOM      5  C   UNL d   1      26.576 -13.091   1.131  0.00  0.00     0.034 A 
ATOM      6  C   UNL d   1      27.072 -14.214   0.463  0.00  0.00     0.057 A 
ENDROOT
BRANCH   1   7
ATOM      7  N   UNL d   1      28.742 -16.038   0.330  0.00  0.00    -0.306 N 
ATOM      8  C   UNL d   1      29.271 -15.899  -0.950  0.00  0.00     0.325 C 
ATOM      9  N   UNL d   1      29.484 -17.078  -1.663  0.00  0.00    -0.309 N 
ATOM     10  O   UNL d   1      29.520 -14.781  -1.413  0.00  0.00    -0.247 OA
ATOM     11  H   UNL d   1      29.500 -17.957  -1.164  0.00  0.00     0.170 HD
ATOM     12  H   UNL d   1      29.002 -16.834   0.889  0.00  0.00     0.170 HD
BRANCH   9  13
ATOM     13  C   UNL d   1      29.819 -17.107  -3.065  0.00  0.00     0.036 A 
ATOM     14  C   UNL d   1      30.694 -18.063  -3.595  0.00  0.00     0.030 A 
ATOM     15  C   UNL d   1      31.046 -18.100  -4.942  0.00  0.00     0.009 A 
ATOM     16  C   UNL d   1      30.533 -17.167  -5.834  0.00  0.00    -0.056 A 
ATOM     17  C   UNL d   1      30.966 -17.247  -7.272  0.00  0.00     0.049 C 
ATOM     18  C   UNL d   1      29.635 -16.195  -5.348  0.00  0.00    -0.054 A 
ATOM     19  C   UNL d   1      29.296 -16.164  -3.964  0.00  0.00     0.037 A 
ATOM     20  C   UNL d   1      29.032 -15.201  -6.306  0.00  0.00     0.049 C 
ENDBRANCH   9  13
ENDBRANCH   1   7
BRANCH   6  21
ATOM     21  N   UNL d   1      26.367 -14.612  -0.655  0.00  0.00    -0.379 N 
ATOM     22  C   UNL d   1      25.526 -15.800  -0.574  0.00  0.00     0.123 C 
ATOM     23  C   UNL d   1      25.907 -16.704  -1.739  0.00  0.00     0.020 C 
ATOM     24  C   UNL d   1      25.821 -15.941  -3.068  0.00  0.00     0.003 C 
ATOM     25  C   UNL d   1      26.588 -14.611  -3.028  0.00  0.00     0.020 C 
ATOM     26  C   UNL d   1      26.174 -13.775  -1.820  0.00  0.00     0.123 C 
ENDBRANCH   6  21
BRANCH   3  27
ATOM     27  N   UNL d   1      28.591 -12.955   4.235  0.00  0.00    -0.323 N 
ATOM     28  C   UNL d   1      28.179 -13.584   5.413  0.00  0.00     0.257 C 
ATOM     29  O   UNL d   1      27.405 -14.541   5.510  0.00  0.00    -0.267 OA
ATOM     30  H   UNL d   1      29.281 -12.217   4.313  0.00  0.00     0.169 HD
BRANCH  28  31
ATOM     31  C   UNL d   1      28.706 -13.105   6.710  0.00  0.00     0.054 A 
ATOM     32  C   UNL d   1      28.922 -14.075   7.715  0.00  0.00     0.019 A 
ATOM     33  C   UNL d   1      29.195 -13.694   9.030  0.00  0.00     0.001 A 
ATOM     34  C   UNL d   1      29.319 -12.344   9.338  0.00  0.00     0.002 A 
ATOM     35  C   UNL d   1      29.126 -11.380   8.346  0.00  0.00     0.025 A 
ATOM     36  C   UNL d   1      28.813 -11.752   7.034  0.00  0.00     0.049 A 
ATOM     37 CL   UNL d   1      28.530 -10.477   5.905  0.00  0.00    -0.083 Cl
ENDBRANCH  28  31
ENDBRANCH   3  27
TORSDOF 5
ENDMDL
