MODEL 1
REMARK VINA RESULT:    -8.392      0.000      0.000
REMARK INTER + INTRA:         -12.730
REMARK INTER:                 -11.077
REMARK INTRA:                  -1.653
REMARK CONF_INDEPENDENT:        2.685
REMARK UNBOUND:                -1.653
REMARK  9 active torsions:
REMARK  status: ('A' for Active; 'I' for Inactive)
REMARK    1  A    between atoms: C_2  and  C_3 
REMARK    2  A    between atoms: C_3  and  C_4 
REMARK    3  A    between atoms: C_4  and  N_5 
REMARK       I    between atoms: N_5  and  C_6 
REMARK       I    between atoms: C_6  and  N_8 
REMARK    4  A    between atoms: N_8  and  N_9 
REMARK       I    between atoms: N_9  and  C_10 
REMARK    5  A    between atoms: C_10  and  C_12 
REMARK    6  A    between atoms: C_13  and  C_14 
REMARK    7  A    between atoms: C_17  and  O_18 
REMARK    8  A    between atoms: O_18  and  C_19 
REMARK    9  A    between atoms: C_21  and  O_22 
ROOT
ATOM      1  N   UNL d   1      23.279 -17.862  -0.744  0.00  0.00    -0.263 N 
ATOM      2  C   UNL d   1      24.639 -17.731  -0.489  0.00  0.00     0.259 C 
ATOM      3  O   UNL d   1      25.240 -18.458   0.305  0.00  0.00    -0.267 OA
ATOM      4  H   UNL d   1      22.754 -17.278  -1.393  0.00  0.00     0.190 HD
ENDROOT
BRANCH   2   5
ATOM      5  C   UNL d   1      25.346 -16.632  -1.240  0.00  0.00     0.076 C 
ATOM      6  C   UNL d   1      24.844 -16.090  -2.375  0.00  0.00     0.017 C 
BRANCH   6   7
ATOM      7  C   UNL d   1      25.522 -15.058  -3.202  0.00  0.00    -0.033 A 
ATOM      8  C   UNL d   1      25.351 -13.685  -2.991  0.00  0.00     0.014 A 
ATOM      9  C   UNL d   1      25.923 -12.740  -3.872  0.00  0.00     0.040 A 
ATOM     10  C   UNL d   1      26.724 -13.145  -4.950  0.00  0.00     0.102 A 
ATOM     11  C   UNL d   1      26.872 -14.523  -5.185  0.00  0.00     0.102 A 
ATOM     12  C   UNL d   1      26.273 -15.450  -4.315  0.00  0.00     0.051 A 
BRANCH  10  13
ATOM     13  O   UNL d   1      27.293 -12.110  -5.667  0.00  0.00    -0.349 OA
BRANCH  13  14
ATOM     14  C   UNL d   1      26.397 -11.140  -6.224  0.00  0.00     0.171 C 
ATOM     15  C   UNL d   1      27.032 -10.392  -7.378  0.00  0.00     0.034 C 
ENDBRANCH  13  14
ENDBRANCH  10  13
BRANCH  11  16
ATOM     16  O   UNL d   1      27.582 -14.918  -6.285  0.00  0.00    -0.353 OA
ATOM     17  C   UNL d   1      28.922 -14.488  -6.423  0.00  0.00     0.210 C 
ENDBRANCH  11  16
ENDBRANCH   6   7
ENDBRANCH   2   5
BRANCH   1  18
ATOM     18  N   UNL d   1      22.516 -18.899  -0.092  0.00  0.00    -0.249 N 
ATOM     19  C   UNL d   1      21.181 -19.089  -0.429  0.00  0.00     0.334 C 
ATOM     20  N   UNL d   1      20.543 -20.112   0.253  0.00  0.00    -0.342 N 
ATOM     21  O   UNL d   1      20.615 -18.391  -1.270  0.00  0.00    -0.246 OA
ATOM     22  H   UNL d   1      21.052 -20.658   0.933  0.00  0.00     0.164 HD
ATOM     23  H   UNL d   1      23.017 -19.458   0.590  0.00  0.00     0.192 HD
BRANCH  20  24
ATOM     24  C   UNL d   1      19.129 -20.433   0.008  0.00  0.00     0.124 C 
BRANCH  24  25
ATOM     25  C   UNL d   1      18.407 -21.075   1.205  0.00  0.00     0.019 C 
BRANCH  25  26
ATOM     26  C   UNL d   1      18.535 -20.234   2.487  0.00  0.00    -0.003 C 
ATOM     27  C   UNL d   1      19.880 -20.450   3.172  0.00  0.00     0.005 C 
ENDBRANCH  25  26
ENDBRANCH  24  25
ENDBRANCH  20  24
ENDBRANCH   1  18
TORSDOF 9
ENDMDL
MODEL 2
REMARK VINA RESULT:    -8.070      0.639      1.085
REMARK INTER + INTRA:         -12.296
REMARK INTER:                 -10.754
REMARK INTRA:                  -1.542
REMARK CONF_INDEPENDENT:        2.685
REMARK UNBOUND:                -1.542
REMARK  9 active torsions:
REMARK  status: ('A' for Active; 'I' for Inactive)
REMARK    1  A    between atoms: C_2  and  C_3 
REMARK    2  A    between atoms: C_3  and  C_4 
REMARK    3  A    between atoms: C_4  and  N_5 
REMARK       I    between atoms: N_5  and  C_6 
REMARK       I    between atoms: C_6  and  N_8 
REMARK    4  A    between atoms: N_8  and  N_9 
REMARK       I    between atoms: N_9  and  C_10 
REMARK    5  A    between atoms: C_10  and  C_12 
REMARK    6  A    between atoms: C_13  and  C_14 
REMARK    7  A    between atoms: C_17  and  O_18 
REMARK    8  A    between atoms: O_18  and  C_19 
REMARK    9  A    between atoms: C_21  and  O_22 
ROOT
ATOM      1  N   UNL d   1      23.615 -17.920  -0.954  0.00  0.00    -0.263 N 
ATOM      2  C   UNL d   1      24.925 -17.595  -0.626  0.00  0.00     0.259 C 
ATOM      3  O   UNL d   1      25.471 -17.992   0.406  0.00  0.00    -0.267 OA
ATOM      4  H   UNL d   1      23.136 -17.608  -1.797  0.00  0.00     0.190 HD
ENDROOT
BRANCH   2   5
ATOM      5  C   UNL d   1      25.650 -16.709  -1.608  0.00  0.00     0.076 C 
ATOM      6  C   UNL d   1      25.049 -15.658  -2.215  0.00  0.00     0.017 C 
BRANCH   6   7
ATOM      7  C   UNL d   1      25.681 -14.792  -3.244  0.00  0.00    -0.033 A 
ATOM      8  C   UNL d   1      25.431 -13.417  -3.335  0.00  0.00     0.014 A 
ATOM      9  C   UNL d   1      25.962 -12.654  -4.398  0.00  0.00     0.040 A 
ATOM     10  C   UNL d   1      26.800 -13.235  -5.362  0.00  0.00     0.102 A 
ATOM     11  C   UNL d   1      27.027 -14.620  -5.293  0.00  0.00     0.102 A 
ATOM     12  C   UNL d   1      26.468 -15.371  -4.244  0.00  0.00     0.051 A 
BRANCH  10  13
ATOM     13  O   UNL d   1      27.320 -12.348  -6.284  0.00  0.00    -0.349 OA
BRANCH  13  14
ATOM     14  C   UNL d   1      26.715 -11.050  -6.347  0.00  0.00     0.171 C 
ATOM     15  C   UNL d   1      27.655 -10.026  -6.950  0.00  0.00     0.034 C 
ENDBRANCH  13  14
ENDBRANCH  10  13
BRANCH  11  16
ATOM     16  O   UNL d   1      27.774 -15.202  -6.280  0.00  0.00    -0.353 OA
ATOM     17  C   UNL d   1      29.157 -14.916  -6.349  0.00  0.00     0.210 C 
ENDBRANCH  11  16
ENDBRANCH   6   7
ENDBRANCH   2   5
BRANCH   1  18
ATOM     18  N   UNL d   1      22.843 -18.781  -0.090  0.00  0.00    -0.249 N 
ATOM     19  C   UNL d   1      21.461 -18.833  -0.224  0.00  0.00     0.334 C 
ATOM     20  N   UNL d   1      20.818 -19.693   0.651  0.00  0.00    -0.342 N 
ATOM     21  O   UNL d   1      20.860 -18.158  -1.061  0.00  0.00    -0.246 OA
ATOM     22  H   UNL d   1      21.356 -20.227   1.318  0.00  0.00     0.164 HD
ATOM     23  H   UNL d   1      23.372 -19.326   0.582  0.00  0.00     0.192 HD
BRANCH  20  24
ATOM     24  C   UNL d   1      19.357 -19.856   0.633  0.00  0.00     0.124 C 
BRANCH  24  25
ATOM     25  C   UNL d   1      18.795 -20.687   1.800  0.00  0.00     0.019 C 
BRANCH  25  26
ATOM     26  C   UNL d   1      17.668 -21.636   1.354  0.00  0.00    -0.003 C 
ATOM     27  C   UNL d   1      17.280 -21.407  -0.102  0.00  0.00     0.005 C 
ENDBRANCH  25  26
ENDBRANCH  24  25
ENDBRANCH  20  24
ENDBRANCH   1  18
TORSDOF 9
ENDMDL
MODEL 3
REMARK VINA RESULT:    -7.470      0.904      1.911
REMARK INTER + INTRA:         -11.802
REMARK INTER:                 -10.155
REMARK INTRA:                  -1.648
REMARK CONF_INDEPENDENT:        2.685
REMARK UNBOUND:                -1.648
REMARK  9 active torsions:
REMARK  status: ('A' for Active; 'I' for Inactive)
REMARK    1  A    between atoms: C_2  and  C_3 
REMARK    2  A    between atoms: C_3  and  C_4 
REMARK    3  A    between atoms: C_4  and  N_5 
REMARK       I    between atoms: N_5  and  C_6 
REMARK       I    between atoms: C_6  and  N_8 
REMARK    4  A    between atoms: N_8  and  N_9 
REMARK       I    between atoms: N_9  and  C_10 
REMARK    5  A    between atoms: C_10  and  C_12 
REMARK    6  A    between atoms: C_13  and  C_14 
REMARK    7  A    between atoms: C_17  and  O_18 
REMARK    8  A    between atoms: O_18  and  C_19 
REMARK    9  A    between atoms: C_21  and  O_22 
ROOT
ATOM      1  N   UNL d   1      23.194 -17.572  -0.712  0.00  0.00    -0.263 N 
ATOM      2  C   UNL d   1      24.566 -17.423  -0.549  0.00  0.00     0.259 C 
ATOM      3  O   UNL d   1      25.244 -18.199   0.128  0.00  0.00    -0.267 OA
ATOM      4  H   UNL d   1      22.607 -16.948  -1.264  0.00  0.00     0.190 HD
ENDROOT
BRANCH   2   5
ATOM      5  C   UNL d   1      25.188 -16.241  -1.248  0.00  0.00     0.076 C 
ATOM      6  C   UNL d   1      25.093 -16.059  -2.587  0.00  0.00     0.017 C 
BRANCH   6   7
ATOM      7  C   UNL d   1      25.742 -14.959  -3.347  0.00  0.00    -0.033 A 
ATOM      8  C   UNL d   1      26.644 -15.189  -4.393  0.00  0.00     0.014 A 
ATOM      9  C   UNL d   1      27.324 -14.117  -5.011  0.00  0.00     0.040 A 
ATOM     10  C   UNL d   1      27.077 -12.787  -4.637  0.00  0.00     0.102 A 
ATOM     11  C   UNL d   1      26.197 -12.554  -3.566  0.00  0.00     0.102 A 
ATOM     12  C   UNL d   1      25.549 -13.634  -2.943  0.00  0.00     0.051 A 
BRANCH  10  13
ATOM     13  O   UNL d   1      27.742 -11.842  -5.393  0.00  0.00    -0.349 OA
BRANCH  13  14
ATOM     14  C   UNL d   1      27.599 -11.933  -6.816  0.00  0.00     0.171 C 
ATOM     15  C   UNL d   1      27.067 -10.642  -7.406  0.00  0.00     0.034 C 
ENDBRANCH  13  14
ENDBRANCH  10  13
BRANCH  11  16
ATOM     16  O   UNL d   1      26.020 -11.265  -3.145  0.00  0.00    -0.353 OA
ATOM     17  C   UNL d   1      25.578 -10.296  -4.075  0.00  0.00     0.210 C 
ENDBRANCH  11  16
ENDBRANCH   6   7
ENDBRANCH   2   5
BRANCH   1  18
ATOM     18  N   UNL d   1      22.508 -18.684  -0.101  0.00  0.00    -0.249 N 
ATOM     19  C   UNL d   1      21.186 -18.950  -0.439  0.00  0.00     0.334 C 
ATOM     20  N   UNL d   1      20.624 -20.042   0.201  0.00  0.00    -0.342 N 
ATOM     21  O   UNL d   1      20.568 -18.257  -1.247  0.00  0.00    -0.246 OA
ATOM     22  H   UNL d   1      21.174 -20.580   0.854  0.00  0.00     0.164 HD
ATOM     23  H   UNL d   1      23.051 -19.236   0.554  0.00  0.00     0.192 HD
BRANCH  20  24
ATOM     24  C   UNL d   1      19.233 -20.447  -0.051  0.00  0.00     0.124 C 
BRANCH  24  25
ATOM     25  C   UNL d   1      18.573 -21.210   1.111  0.00  0.00     0.019 C 
BRANCH  25  26
ATOM     26  C   UNL d   1      18.561 -20.395   2.416  0.00  0.00    -0.003 C 
ATOM     27  C   UNL d   1      19.907 -20.450   3.129  0.00  0.00     0.005 C 
ENDBRANCH  25  26
ENDBRANCH  24  25
ENDBRANCH  20  24
ENDBRANCH   1  18
TORSDOF 9
ENDMDL
MODEL 4
REMARK VINA RESULT:    -6.784      1.621      1.896
REMARK INTER + INTRA:         -11.261
REMARK INTER:                  -9.468
REMARK INTRA:                  -1.793
REMARK CONF_INDEPENDENT:        2.685
REMARK UNBOUND:                -1.793
REMARK  9 active torsions:
REMARK  status: ('A' for Active; 'I' for Inactive)
REMARK    1  A    between atoms: C_2  and  C_3 
REMARK    2  A    between atoms: C_3  and  C_4 
REMARK    3  A    between atoms: C_4  and  N_5 
REMARK       I    between atoms: N_5  and  C_6 
REMARK       I    between atoms: C_6  and  N_8 
REMARK    4  A    between atoms: N_8  and  N_9 
REMARK       I    between atoms: N_9  and  C_10 
REMARK    5  A    between atoms: C_10  and  C_12 
REMARK    6  A    between atoms: C_13  and  C_14 
REMARK    7  A    between atoms: C_17  and  O_18 
REMARK    8  A    between atoms: O_18  and  C_19 
REMARK    9  A    between atoms: C_21  and  O_22 
ROOT
ATOM      1  N   UNL d   1      23.028 -17.821  -0.570  0.00  0.00    -0.263 N 
ATOM      2  C   UNL d   1      24.348 -17.534  -0.247  0.00  0.00     0.259 C 
ATOM      3  O   UNL d   1      25.027 -18.259   0.483  0.00  0.00    -0.267 OA
ATOM      4  H   UNL d   1      22.441 -17.243  -1.170  0.00  0.00     0.190 HD
ENDROOT
BRANCH   2   5
ATOM      5  C   UNL d   1      24.911 -16.266  -0.839  0.00  0.00     0.076 C 
ATOM      6  C   UNL d   1      24.479 -15.765  -2.020  0.00  0.00     0.017 C 
BRANCH   6   7
ATOM      7  C   UNL d   1      25.038 -14.564  -2.694  0.00  0.00    -0.033 A 
ATOM      8  C   UNL d   1      24.530 -14.065  -3.900  0.00  0.00     0.014 A 
ATOM      9  C   UNL d   1      25.165 -12.992  -4.564  0.00  0.00     0.040 A 
ATOM     10  C   UNL d   1      26.286 -12.356  -4.009  0.00  0.00     0.102 A 
ATOM     11  C   UNL d   1      26.818 -12.873  -2.816  0.00  0.00     0.102 A 
ATOM     12  C   UNL d   1      26.191 -13.961  -2.182  0.00  0.00     0.051 A 
BRANCH  10  13
ATOM     13  O   UNL d   1      26.740 -11.263  -4.721  0.00  0.00    -0.349 OA
BRANCH  13  14
ATOM     14  C   UNL d   1      25.932 -10.080  -4.677  0.00  0.00     0.171 C 
ATOM     15  C   UNL d   1      25.608  -9.680  -3.251  0.00  0.00     0.034 C 
ENDBRANCH  13  14
ENDBRANCH  10  13
BRANCH  11  16
ATOM     16  O   UNL d   1      27.960 -12.308  -2.320  0.00  0.00    -0.353 OA
ATOM     17  C   UNL d   1      29.211 -12.752  -2.809  0.00  0.00     0.210 C 
ENDBRANCH  11  16
ENDBRANCH   6   7
ENDBRANCH   2   5
BRANCH   1  18
ATOM     18  N   UNL d   1      22.405 -19.023  -0.072  0.00  0.00    -0.249 N 
ATOM     19  C   UNL d   1      21.057 -19.255  -0.320  0.00  0.00     0.334 C 
ATOM     20  N   UNL d   1      20.559 -20.440   0.198  0.00  0.00    -0.342 N 
ATOM     21  O   UNL d   1      20.363 -18.459  -0.953  0.00  0.00    -0.246 OA
ATOM     22  H   UNL d   1      21.170 -21.061   0.709  0.00  0.00     0.164 HD
ATOM     23  H   UNL d   1      23.008 -19.658   0.439  0.00  0.00     0.192 HD
BRANCH  20  24
ATOM     24  C   UNL d   1      19.152 -20.824   0.021  0.00  0.00     0.124 C 
BRANCH  24  25
ATOM     25  C   UNL d   1      18.383 -21.046   1.336  0.00  0.00     0.019 C 
BRANCH  25  26
ATOM     26  C   UNL d   1      18.737 -19.999   2.406  0.00  0.00    -0.003 C 
ATOM     27  C   UNL d   1      19.906 -20.451   3.273  0.00  0.00     0.005 C 
ENDBRANCH  25  26
ENDBRANCH  24  25
ENDBRANCH  20  24
ENDBRANCH   1  18
TORSDOF 9
ENDMDL
MODEL 5
REMARK VINA RESULT:    -6.781      7.120      8.878
REMARK INTER + INTRA:         -10.471
REMARK INTER:                  -9.466
REMARK INTRA:                  -1.005
REMARK CONF_INDEPENDENT:        2.685
REMARK UNBOUND:                -1.005
REMARK  9 active torsions:
REMARK  status: ('A' for Active; 'I' for Inactive)
REMARK    1  A    between atoms: C_2  and  C_3 
REMARK    2  A    between atoms: C_3  and  C_4 
REMARK    3  A    between atoms: C_4  and  N_5 
REMARK       I    between atoms: N_5  and  C_6 
REMARK       I    between atoms: C_6  and  N_8 
REMARK    4  A    between atoms: N_8  and  N_9 
REMARK       I    between atoms: N_9  and  C_10 
REMARK    5  A    between atoms: C_10  and  C_12 
REMARK    6  A    between atoms: C_13  and  C_14 
REMARK    7  A    between atoms: C_17  and  O_18 
REMARK    8  A    between atoms: O_18  and  C_19 
REMARK    9  A    between atoms: C_21  and  O_22 
ROOT
ATOM      1  N   UNL d   1      29.173 -14.509   4.100  0.00  0.00    -0.263 N 
ATOM      2  C   UNL d   1      28.311 -13.478   3.745  0.00  0.00     0.259 C 
ATOM      3  O   UNL d   1      28.208 -12.441   4.403  0.00  0.00    -0.267 OA
ATOM      4  H   UNL d   1      29.281 -15.377   3.578  0.00  0.00     0.190 HD
ENDROOT
BRANCH   2   5
ATOM      5  C   UNL d   1      27.492 -13.705   2.499  0.00  0.00     0.076 C 
ATOM      6  C   UNL d   1      27.926 -14.482   1.479  0.00  0.00     0.017 C 
BRANCH   6   7
ATOM      7  C   UNL d   1      27.203 -14.688   0.196  0.00  0.00    -0.033 A 
ATOM      8  C   UNL d   1      27.067 -13.681  -0.768  0.00  0.00     0.014 A 
ATOM      9  C   UNL d   1      26.275 -13.885  -1.919  0.00  0.00     0.040 A 
ATOM     10  C   UNL d   1      25.648 -15.117  -2.162  0.00  0.00     0.102 A 
ATOM     11  C   UNL d   1      25.756 -16.118  -1.182  0.00  0.00     0.102 A 
ATOM     12  C   UNL d   1      26.525 -15.890  -0.027  0.00  0.00     0.051 A 
BRANCH  10  13
ATOM     13  O   UNL d   1      24.988 -15.200  -3.372  0.00  0.00    -0.349 OA
BRANCH  13  14
ATOM     14  C   UNL d   1      25.531 -14.439  -4.459  0.00  0.00     0.171 C 
ATOM     15  C   UNL d   1      26.631 -15.198  -5.175  0.00  0.00     0.034 C 
ENDBRANCH  13  14
ENDBRANCH  10  13
BRANCH  11  16
ATOM     16  O   UNL d   1      25.076 -17.289  -1.377  0.00  0.00    -0.353 OA
ATOM     17  C   UNL d   1      23.825 -17.466  -0.742  0.00  0.00     0.210 C 
ENDBRANCH  11  16
ENDBRANCH   6   7
ENDBRANCH   2   5
BRANCH   1  18
ATOM     18  N   UNL d   1      30.016 -14.380   5.263  0.00  0.00    -0.249 N 
ATOM     19  C   UNL d   1      29.449 -14.093   6.499  0.00  0.00     0.334 C 
ATOM     20  N   UNL d   1      30.347 -13.994   7.550  0.00  0.00    -0.342 N 
ATOM     21  O   UNL d   1      28.236 -13.936   6.640  0.00  0.00    -0.246 OA
ATOM     22  H   UNL d   1      31.333 -14.134   7.383  0.00  0.00     0.164 HD
ATOM     23  H   UNL d   1      31.009 -14.522   5.110  0.00  0.00     0.192 HD
BRANCH  20  24
ATOM     24  C   UNL d   1      29.900 -13.693   8.917  0.00  0.00     0.124 C 
BRANCH  24  25
ATOM     25  C   UNL d   1      29.103 -14.824   9.589  0.00  0.00     0.019 C 
BRANCH  25  26
ATOM     26  C   UNL d   1      28.189 -14.309  10.715  0.00  0.00    -0.003 C 
ATOM     27  C   UNL d   1      27.902 -12.819  10.572  0.00  0.00     0.005 C 
ENDBRANCH  25  26
ENDBRANCH  24  25
ENDBRANCH  20  24
ENDBRANCH   1  18
TORSDOF 9
ENDMDL
MODEL 6
REMARK VINA RESULT:    -6.192      1.780      2.864
REMARK INTER + INTRA:         -10.578
REMARK INTER:                  -8.876
REMARK INTRA:                  -1.702
REMARK CONF_INDEPENDENT:        2.685
REMARK UNBOUND:                -1.702
REMARK  9 active torsions:
REMARK  status: ('A' for Active; 'I' for Inactive)
REMARK    1  A    between atoms: C_2  and  C_3 
REMARK    2  A    between atoms: C_3  and  C_4 
REMARK    3  A    between atoms: C_4  and  N_5 
REMARK       I    between atoms: N_5  and  C_6 
REMARK       I    between atoms: C_6  and  N_8 
REMARK    4  A    between atoms: N_8  and  N_9 
REMARK       I    between atoms: N_9  and  C_10 
REMARK    5  A    between atoms: C_10  and  C_12 
REMARK    6  A    between atoms: C_13  and  C_14 
REMARK    7  A    between atoms: C_17  and  O_18 
REMARK    8  A    between atoms: O_18  and  C_19 
REMARK    9  A    between atoms: C_21  and  O_22 
ROOT
ATOM      1  N   UNL d   1      24.332 -16.791  -1.398  0.00  0.00    -0.263 N 
ATOM      2  C   UNL d   1      25.704 -16.644  -1.564  0.00  0.00     0.259 C 
ATOM      3  O   UNL d   1      26.518 -17.459  -1.125  0.00  0.00    -0.267 OA
ATOM      4  H   UNL d   1      23.635 -16.136  -1.748  0.00  0.00     0.190 HD
ENDROOT
BRANCH   2   5
ATOM      5  C   UNL d   1      26.149 -15.412  -2.311  0.00  0.00     0.076 C 
ATOM      6  C   UNL d   1      25.271 -14.565  -2.899  0.00  0.00     0.017 C 
BRANCH   6   7
ATOM      7  C   UNL d   1      25.643 -13.377  -3.710  0.00  0.00    -0.033 A 
ATOM      8  C   UNL d   1      26.221 -13.477  -4.982  0.00  0.00     0.014 A 
ATOM      9  C   UNL d   1      26.665 -12.325  -5.668  0.00  0.00     0.040 A 
ATOM     10  C   UNL d   1      26.490 -11.044  -5.124  0.00  0.00     0.102 A 
ATOM     11  C   UNL d   1      25.941 -10.940  -3.835  0.00  0.00     0.102 A 
ATOM     12  C   UNL d   1      25.530 -12.099  -3.153  0.00  0.00     0.051 A 
BRANCH  10  13
ATOM     13  O   UNL d   1      26.885 -10.008  -5.949  0.00  0.00    -0.349 OA
BRANCH  13  14
ATOM     14  C   UNL d   1      25.905  -9.498  -6.861  0.00  0.00     0.171 C 
ATOM     15  C   UNL d   1      24.809  -8.742  -6.137  0.00  0.00     0.034 C 
ENDBRANCH  13  14
ENDBRANCH  10  13
BRANCH  11  16
ATOM     16  O   UNL d   1      25.849  -9.698  -3.269  0.00  0.00    -0.353 OA
ATOM     17  C   UNL d   1      27.033  -8.954  -3.060  0.00  0.00     0.210 C 
ENDBRANCH  11  16
ENDBRANCH   6   7
ENDBRANCH   2   5
BRANCH   1  18
ATOM     18  N   UNL d   1      23.804 -17.948  -0.717  0.00  0.00    -0.249 N 
ATOM     19  C   UNL d   1      22.447 -18.019  -0.428  0.00  0.00     0.334 C 
ATOM     20  N   UNL d   1      22.044 -19.173   0.224  0.00  0.00    -0.342 N 
ATOM     21  O   UNL d   1      21.667 -17.116  -0.731  0.00  0.00    -0.246 OA
ATOM     22  H   UNL d   1      22.722 -19.886   0.449  0.00  0.00     0.164 HD
ATOM     23  H   UNL d   1      24.475 -18.674  -0.488  0.00  0.00     0.192 HD
BRANCH  20  24
ATOM     24  C   UNL d   1      20.639 -19.393   0.599  0.00  0.00     0.124 C 
BRANCH  24  25
ATOM     25  C   UNL d   1      19.770 -19.993  -0.519  0.00  0.00     0.019 C 
BRANCH  25  26
ATOM     26  C   UNL d   1      18.405 -20.483  -0.002  0.00  0.00    -0.003 C 
ATOM     27  C   UNL d   1      18.462 -20.852   1.476  0.00  0.00     0.005 C 
ENDBRANCH  25  26
ENDBRANCH  24  25
ENDBRANCH  20  24
ENDBRANCH   1  18
TORSDOF 9
ENDMDL
MODEL 7
REMARK VINA RESULT:    -6.163      7.011      9.388
REMARK INTER + INTRA:         -10.456
REMARK INTER:                  -8.848
REMARK INTRA:                  -1.609
REMARK CONF_INDEPENDENT:        2.685
REMARK UNBOUND:                -1.609
REMARK  9 active torsions:
REMARK  status: ('A' for Active; 'I' for Inactive)
REMARK    1  A    between atoms: C_2  and  C_3 
REMARK    2  A    between atoms: C_3  and  C_4 
REMARK    3  A    between atoms: C_4  and  N_5 
REMARK       I    between atoms: N_5  and  C_6 
REMARK       I    between atoms: C_6  and  N_8 
REMARK    4  A    between atoms: N_8  and  N_9 
REMARK       I    between atoms: N_9  and  C_10 
REMARK    5  A    between atoms: C_10  and  C_12 
REMARK    6  A    between atoms: C_13  and  C_14 
REMARK    7  A    between atoms: C_17  and  O_18 
REMARK    8  A    between atoms: O_18  and  C_19 
REMARK    9  A    between atoms: C_21  and  O_22 
ROOT
ATOM      1  N   UNL d   1      29.648 -14.564   3.620  0.00  0.00    -0.263 N 
ATOM      2  C   UNL d   1      29.905 -14.237   2.294  0.00  0.00     0.259 C 
ATOM      3  O   UNL d   1      30.789 -13.443   1.964  0.00  0.00    -0.267 OA
ATOM      4  H   UNL d   1      28.926 -15.215   3.925  0.00  0.00     0.190 HD
ENDROOT
BRANCH   2   5
ATOM      5  C   UNL d   1      29.027 -14.907   1.268  0.00  0.00     0.076 C 
ATOM      6  C   UNL d   1      27.691 -15.050   1.440  0.00  0.00     0.017 C 
BRANCH   6   7
ATOM      7  C   UNL d   1      26.781 -15.763   0.506  0.00  0.00    -0.033 A 
ATOM      8  C   UNL d   1      26.608 -17.152   0.528  0.00  0.00     0.014 A 
ATOM      9  C   UNL d   1      25.823 -17.799  -0.452  0.00  0.00     0.040 A 
ATOM     10  C   UNL d   1      25.148 -17.068  -1.441  0.00  0.00     0.102 A 
ATOM     11  C   UNL d   1      25.345 -15.677  -1.487  0.00  0.00     0.102 A 
ATOM     12  C   UNL d   1      26.153 -15.051  -0.521  0.00  0.00     0.051 A 
BRANCH  10  13
ATOM     13  O   UNL d   1      24.344 -17.825  -2.270  0.00  0.00    -0.349 OA
BRANCH  13  14
ATOM     14  C   UNL d   1      23.285 -18.563  -1.647  0.00  0.00     0.171 C 
ATOM     15  C   UNL d   1      22.459 -17.684  -0.728  0.00  0.00     0.034 C 
ENDBRANCH  13  14
ENDBRANCH  10  13
BRANCH  11  16
ATOM     16  O   UNL d   1      24.757 -14.974  -2.502  0.00  0.00    -0.353 OA
ATOM     17  C   UNL d   1      25.573 -14.439  -3.525  0.00  0.00     0.210 C 
ENDBRANCH  11  16
ENDBRANCH   6   7
ENDBRANCH   2   5
BRANCH   1  18
ATOM     18  N   UNL d   1      30.448 -13.992   4.676  0.00  0.00    -0.249 N 
ATOM     19  C   UNL d   1      29.930 -13.901   5.962  0.00  0.00     0.334 C 
ATOM     20  N   UNL d   1      30.781 -13.341   6.901  0.00  0.00    -0.342 N 
ATOM     21  O   UNL d   1      28.794 -14.289   6.237  0.00  0.00    -0.246 OA
ATOM     22  H   UNL d   1      31.704 -13.040   6.625  0.00  0.00     0.164 HD
ATOM     23  H   UNL d   1      31.379 -13.690   4.414  0.00  0.00     0.192 HD
BRANCH  20  24
ATOM     24  C   UNL d   1      30.375 -13.174   8.304  0.00  0.00     0.124 C 
BRANCH  24  25
ATOM     25  C   UNL d   1      30.503 -14.448   9.158  0.00  0.00     0.019 C 
BRANCH  25  26
ATOM     26  C   UNL d   1      29.178 -14.831   9.841  0.00  0.00    -0.003 C 
ATOM     27  C   UNL d   1      28.282 -13.617  10.057  0.00  0.00     0.005 C 
ENDBRANCH  25  26
ENDBRANCH  24  25
ENDBRANCH  20  24
ENDBRANCH   1  18
TORSDOF 9
ENDMDL
MODEL 8
REMARK VINA RESULT:    -6.087      1.952      2.899
REMARK INTER + INTRA:         -10.404
REMARK INTER:                  -8.772
REMARK INTRA:                  -1.632
REMARK CONF_INDEPENDENT:        2.685
REMARK UNBOUND:                -1.632
REMARK  9 active torsions:
REMARK  status: ('A' for Active; 'I' for Inactive)
REMARK    1  A    between atoms: C_2  and  C_3 
REMARK    2  A    between atoms: C_3  and  C_4 
REMARK    3  A    between atoms: C_4  and  N_5 
REMARK       I    between atoms: N_5  and  C_6 
REMARK       I    between atoms: C_6  and  N_8 
REMARK    4  A    between atoms: N_8  and  N_9 
REMARK       I    between atoms: N_9  and  C_10 
REMARK    5  A    between atoms: C_10  and  C_12 
REMARK    6  A    between atoms: C_13  and  C_14 
REMARK    7  A    between atoms: C_17  and  O_18 
REMARK    8  A    between atoms: O_18  and  C_19 
REMARK    9  A    between atoms: C_21  and  O_22 
ROOT
ATOM      1  N   UNL d   1      24.351 -17.359  -1.297  0.00  0.00    -0.263 N 
ATOM      2  C   UNL d   1      25.286 -16.357  -1.067  0.00  0.00     0.259 C 
ATOM      3  O   UNL d   1      25.256 -15.636  -0.068  0.00  0.00    -0.267 OA
ATOM      4  H   UNL d   1      24.349 -17.971  -2.112  0.00  0.00     0.190 HD
ENDROOT
BRANCH   2   5
ATOM      5  C   UNL d   1      26.348 -16.192  -2.125  0.00  0.00     0.076 C 
ATOM      6  C   UNL d   1      26.359 -15.143  -2.981  0.00  0.00     0.017 C 
BRANCH   6   7
ATOM      7  C   UNL d   1      27.331 -14.957  -4.091  0.00  0.00    -0.033 A 
ATOM      8  C   UNL d   1      27.075 -14.132  -5.193  0.00  0.00     0.014 A 
ATOM      9  C   UNL d   1      27.976 -14.075  -6.279  0.00  0.00     0.040 A 
ATOM     10  C   UNL d   1      29.180 -14.796  -6.263  0.00  0.00     0.102 A 
ATOM     11  C   UNL d   1      29.426 -15.650  -5.174  0.00  0.00     0.102 A 
ATOM     12  C   UNL d   1      28.505 -15.717  -4.114  0.00  0.00     0.051 A 
BRANCH  10  13
ATOM     13  O   UNL d   1      30.004 -14.568  -7.347  0.00  0.00    -0.349 OA
BRANCH  13  14
ATOM     14  C   UNL d   1      30.838 -13.403  -7.292  0.00  0.00     0.171 C 
ATOM     15  C   UNL d   1      32.274 -13.762  -6.969  0.00  0.00     0.034 C 
ENDBRANCH  13  14
ENDBRANCH  10  13
BRANCH  11  16
ATOM     16  O   UNL d   1      30.557 -16.417  -5.197  0.00  0.00    -0.353 OA
ATOM     17  C   UNL d   1      30.438 -17.804  -5.450  0.00  0.00     0.210 C 
ENDBRANCH  11  16
ENDBRANCH   6   7
ENDBRANCH   2   5
BRANCH   1  18
ATOM     18  N   UNL d   1      23.308 -17.612  -0.334  0.00  0.00    -0.249 N 
ATOM     19  C   UNL d   1      22.359 -18.596  -0.586  0.00  0.00     0.334 C 
ATOM     20  N   UNL d   1      21.405 -18.761   0.405  0.00  0.00    -0.342 N 
ATOM     21  O   UNL d   1      22.372 -19.266  -1.619  0.00  0.00    -0.246 OA
ATOM     22  H   UNL d   1      21.438 -18.188   1.236  0.00  0.00     0.164 HD
ATOM     23  H   UNL d   1      23.332 -17.046   0.508  0.00  0.00     0.192 HD
BRANCH  20  24
ATOM     24  C   UNL d   1      20.334 -19.760   0.282  0.00  0.00     0.124 C 
BRANCH  24  25
ATOM     25  C   UNL d   1      19.144 -19.538   1.231  0.00  0.00     0.019 C 
BRANCH  25  26
ATOM     26  C   UNL d   1      18.532 -20.861   1.725  0.00  0.00    -0.003 C 
ATOM     27  C   UNL d   1      17.774 -21.581   0.615  0.00  0.00     0.005 C 
ENDBRANCH  25  26
ENDBRANCH  24  25
ENDBRANCH  20  24
ENDBRANCH   1  18
TORSDOF 9
ENDMDL
MODEL 9
REMARK VINA RESULT:    -5.925      2.712      4.635
REMARK INTER + INTRA:         -10.049
REMARK INTER:                  -8.610
REMARK INTRA:                  -1.439
REMARK CONF_INDEPENDENT:        2.685
REMARK UNBOUND:                -1.439
REMARK  9 active torsions:
REMARK  status: ('A' for Active; 'I' for Inactive)
REMARK    1  A    between atoms: C_2  and  C_3 
REMARK    2  A    between atoms: C_3  and  C_4 
REMARK    3  A    between atoms: C_4  and  N_5 
REMARK       I    between atoms: N_5  and  C_6 
REMARK       I    between atoms: C_6  and  N_8 
REMARK    4  A    between atoms: N_8  and  N_9 
REMARK       I    between atoms: N_9  and  C_10 
REMARK    5  A    between atoms: C_10  and  C_12 
REMARK    6  A    between atoms: C_13  and  C_14 
REMARK    7  A    between atoms: C_17  and  O_18 
REMARK    8  A    between atoms: O_18  and  C_19 
REMARK    9  A    between atoms: C_21  and  O_22 
ROOT
ATOM      1  N   UNL d   1      25.435 -15.841  -2.475  0.00  0.00    -0.263 N 
ATOM      2  C   UNL d   1      25.608 -14.899  -3.481  0.00  0.00     0.259 C 
ATOM      3  O   UNL d   1      24.690 -14.181  -3.885  0.00  0.00    -0.267 OA
ATOM      4  H   UNL d   1      26.172 -16.448  -2.119  0.00  0.00     0.190 HD
ENDROOT
BRANCH   2   5
ATOM      5  C   UNL d   1      26.995 -14.805  -4.065  0.00  0.00     0.076 C 
ATOM      6  C   UNL d   1      27.215 -14.742  -5.400  0.00  0.00     0.017 C 
BRANCH   6   7
ATOM      7  C   UNL d   1      28.554 -14.722  -6.044  0.00  0.00    -0.033 A 
ATOM      8  C   UNL d   1      28.988 -13.669  -6.858  0.00  0.00     0.014 A 
ATOM      9  C   UNL d   1      30.221 -13.744  -7.543  0.00  0.00     0.040 A 
ATOM     10  C   UNL d   1      31.074 -14.848  -7.385  0.00  0.00     0.102 A 
ATOM     11  C   UNL d   1      30.628 -15.921  -6.595  0.00  0.00     0.102 A 
ATOM     12  C   UNL d   1      29.385 -15.842  -5.942  0.00  0.00     0.051 A 
BRANCH  10  13
ATOM     13  O   UNL d   1      32.285 -14.739  -8.039  0.00  0.00    -0.349 OA
BRANCH  13  14
ATOM     14  C   UNL d   1      32.520 -13.529  -8.771  0.00  0.00     0.171 C 
ATOM     15  C   UNL d   1      33.834 -13.580  -9.524  0.00  0.00     0.034 C 
ENDBRANCH  13  14
ENDBRANCH  10  13
BRANCH  11  16
ATOM     16  O   UNL d   1      31.420 -17.033  -6.509  0.00  0.00    -0.353 OA
ATOM     17  C   UNL d   1      30.818 -18.279  -6.218  0.00  0.00     0.210 C 
ENDBRANCH  11  16
ENDBRANCH   6   7
ENDBRANCH   2   5
BRANCH   1  18
ATOM     18  N   UNL d   1      24.151 -15.992  -1.835  0.00  0.00    -0.249 N 
ATOM     19  C   UNL d   1      23.864 -17.154  -1.128  0.00  0.00     0.334 C 
ATOM     20  N   UNL d   1      22.606 -17.195  -0.550  0.00  0.00    -0.342 N 
ATOM     21  O   UNL d   1      24.675 -18.075  -1.030  0.00  0.00    -0.246 OA
ATOM     22  H   UNL d   1      21.977 -16.412  -0.657  0.00  0.00     0.164 HD
ATOM     23  H   UNL d   1      23.511 -15.211  -1.932  0.00  0.00     0.192 HD
BRANCH  20  24
ATOM     24  C   UNL d   1      22.155 -18.358   0.228  0.00  0.00     0.124 C 
BRANCH  24  25
ATOM     25  C   UNL d   1      21.274 -19.345  -0.557  0.00  0.00     0.019 C 
BRANCH  25  26
ATOM     26  C   UNL d   1      19.806 -19.315  -0.096  0.00  0.00    -0.003 C 
ATOM     27  C   UNL d   1      19.581 -20.195   1.128  0.00  0.00     0.005 C 
ENDBRANCH  25  26
ENDBRANCH  24  25
ENDBRANCH  20  24
ENDBRANCH   1  18
TORSDOF 9
ENDMDL
