MODEL 1
REMARK VINA RESULT:    -9.128      0.000      0.000
REMARK INTER + INTRA:         -13.348
REMARK INTER:                 -10.918
REMARK INTRA:                  -2.430
REMARK CONF_INDEPENDENT:        1.790
REMARK UNBOUND:                -2.430
REMARK  6 active torsions:
REMARK  status: ('A' for Active; 'I' for Inactive)
REMARK    1  A    between atoms: C_2  and  C_16 
REMARK    2  A    between atoms: C_2  and  O_3 
REMARK    3  A    between atoms: O_3  and  C_4 
REMARK    4  A    between atoms: C_4  and  C_6 
REMARK    5  A    between atoms: C_9  and  N_10 
REMARK       I    between atoms: N_10  and  C_11 
REMARK       I    between atoms: C_11  and  N_12 
REMARK       I    between atoms: C_16  and  N_18 
REMARK    6  A    between atoms: N_18  and  C_19 
ROOT
ATOM      1  C   UNL d   1      26.374 -15.655  -1.471  0.00  0.00     0.294 C 
ATOM      2  O   UNL d   1      27.488 -15.992  -1.131  0.00  0.00    -0.259 OA
ENDROOT
BRANCH   1   3
ATOM      3  O   UNL d   1      26.140 -14.627  -2.334  0.00  0.00    -0.303 OA
BRANCH   3   4
ATOM      4  C   UNL d   1      25.565 -14.571  -3.684  0.00  0.00     0.220 C 
ATOM      5  C   UNL d   1      25.371 -13.187  -4.273  0.00  0.00     0.050 C 
BRANCH   4   6
ATOM      6  C   UNL d   1      26.557 -15.198  -4.674  0.00  0.00     0.251 C 
ATOM      7  O   UNL d   1      26.187 -15.616  -5.769  0.00  0.00    -0.270 OA
ATOM      8  N   UNL d   1      27.845 -15.391  -4.156  0.00  0.00    -0.323 N 
ATOM      9  H   UNL d   1      28.004 -15.345  -3.158  0.00  0.00     0.169 HD
BRANCH   8  10
ATOM     10  C   UNL d   1      28.908 -15.913  -4.921  0.00  0.00     0.056 A 
ATOM     11  C   UNL d   1      29.660 -16.988  -4.403  0.00  0.00     0.031 A 
ATOM     12  C   UNL d   1      30.819 -17.414  -5.062  0.00  0.00     0.002 A 
ATOM     13  C   UNL d   1      31.196 -16.815  -6.262  0.00  0.00     0.002 A 
ATOM     14  C   UNL d   1      30.440 -15.772  -6.788  0.00  0.00     0.026 A 
ATOM     15  C   UNL d   1      29.313 -15.306  -6.120  0.00  0.00     0.060 A 
ATOM     16 CL   UNL d   1      28.635 -13.838  -6.747  0.00  0.00    -0.082 Cl
ENDBRANCH   8  10
ENDBRANCH   4   6
ENDBRANCH   3   4
ENDBRANCH   1   3
BRANCH   1  17
ATOM     17  C   UNL d   1      25.222 -16.438  -0.985  0.00  0.00     0.039 C 
ATOM     18  C   UNL d   1      23.894 -16.044  -1.193  0.00  0.00     0.020 C 
ATOM     19  C   UNL d   1      22.838 -16.913  -0.826  0.00  0.00     0.030 C 
ATOM     20  C   UNL d   1      23.116 -18.220  -0.385  0.00  0.00     0.036 C 
ATOM     21  C   UNL d   1      24.445 -18.527  -0.116  0.00  0.00     0.030 C 
ATOM     22  C   UNL d   1      25.484 -17.632  -0.339  0.00  0.00     0.020 C 
BRANCH  20  23
ATOM     23  N   UNL d   1      22.079 -19.172  -0.244  0.00  0.00    -0.309 N 
ATOM     24  C   UNL d   1      20.774 -19.188  -0.649  0.00  0.00     0.318 C 
ATOM     25  N   UNL d   1      20.230 -18.118  -1.270  0.00  0.00    -0.352 N 
ATOM     26  O   UNL d   1      20.075 -20.183  -0.471  0.00  0.00    -0.247 OA
ATOM     27  H   UNL d   1      20.482 -17.180  -1.015  0.00  0.00     0.160 HD
ATOM     28  H   UNL d   1      19.248 -18.205  -1.497  0.00  0.00     0.160 HD
ATOM     29  H   UNL d   1      22.314 -20.039   0.232  0.00  0.00     0.170 HD
ENDBRANCH  20  23
ENDBRANCH   1  17
TORSDOF 6
ENDMDL
MODEL 2
REMARK VINA RESULT:    -9.043      1.462      1.989
REMARK INTER + INTRA:         -13.373
REMARK INTER:                 -10.833
REMARK INTRA:                  -2.540
REMARK CONF_INDEPENDENT:        1.790
REMARK UNBOUND:                -2.540
REMARK  6 active torsions:
REMARK  status: ('A' for Active; 'I' for Inactive)
REMARK    1  A    between atoms: C_2  and  C_16 
REMARK    2  A    between atoms: C_2  and  O_3 
REMARK    3  A    between atoms: O_3  and  C_4 
REMARK    4  A    between atoms: C_4  and  C_6 
REMARK    5  A    between atoms: C_9  and  N_10 
REMARK       I    between atoms: N_10  and  C_11 
REMARK       I    between atoms: C_11  and  N_12 
REMARK       I    between atoms: C_16  and  N_18 
REMARK    6  A    between atoms: N_18  and  C_19 
ROOT
ATOM      1  C   UNL d   1      25.618 -15.940  -1.249  0.00  0.00     0.294 C 
ATOM      2  O   UNL d   1      26.696 -16.239  -0.783  0.00  0.00    -0.259 OA
ENDROOT
BRANCH   1   3
ATOM      3  O   UNL d   1      25.420 -14.825  -2.008  0.00  0.00    -0.303 OA
BRANCH   3   4
ATOM      4  C   UNL d   1      25.150 -14.630  -3.438  0.00  0.00     0.220 C 
ATOM      5  C   UNL d   1      25.079 -13.192  -3.916  0.00  0.00     0.050 C 
BRANCH   4   6
ATOM      6  C   UNL d   1      26.336 -15.172  -4.249  0.00  0.00     0.251 C 
ATOM      7  O   UNL d   1      26.188 -15.583  -5.397  0.00  0.00    -0.270 OA
ATOM      8  N   UNL d   1      27.523 -15.301  -3.516  0.00  0.00    -0.323 N 
ATOM      9  H   UNL d   1      27.504 -15.270  -2.505  0.00  0.00     0.169 HD
BRANCH   8  10
ATOM     10  C   UNL d   1      28.734 -15.739  -4.091  0.00  0.00     0.056 A 
ATOM     11  C   UNL d   1      28.959 -15.510  -5.465  0.00  0.00     0.031 A 
ATOM     12  C   UNL d   1      30.072 -16.079  -6.095  0.00  0.00     0.002 A 
ATOM     13  C   UNL d   1      30.989 -16.820  -5.354  0.00  0.00     0.002 A 
ATOM     14  C   UNL d   1      30.781 -17.024  -3.993  0.00  0.00     0.026 A 
ATOM     15  C   UNL d   1      29.656 -16.505  -3.362  0.00  0.00     0.060 A 
ATOM     16 CL   UNL d   1      29.392 -17.064  -1.742  0.00  0.00    -0.082 Cl
ENDBRANCH   8  10
ENDBRANCH   4   6
ENDBRANCH   3   4
ENDBRANCH   1   3
BRANCH   1  17
ATOM     17  C   UNL d   1      24.483 -16.861  -1.048  0.00  0.00     0.039 C 
ATOM     18  C   UNL d   1      24.647 -18.239  -0.863  0.00  0.00     0.020 C 
ATOM     19  C   UNL d   1      23.529 -19.043  -0.534  0.00  0.00     0.030 C 
ATOM     20  C   UNL d   1      22.285 -18.446  -0.256  0.00  0.00     0.036 C 
ATOM     21  C   UNL d   1      22.158 -17.091  -0.537  0.00  0.00     0.030 C 
ATOM     22  C   UNL d   1      23.214 -16.315  -0.997  0.00  0.00     0.020 C 
BRANCH  20  23
ATOM     23  N   UNL d   1      21.229 -19.203   0.304  0.00  0.00    -0.309 N 
ATOM     24  C   UNL d   1      19.962 -19.486  -0.125  0.00  0.00     0.318 C 
ATOM     25  N   UNL d   1      19.485 -18.952  -1.270  0.00  0.00    -0.352 N 
ATOM     26  O   UNL d   1      19.240 -20.246   0.516  0.00  0.00    -0.247 OA
ATOM     27  H   UNL d   1      19.726 -18.018  -1.553  0.00  0.00     0.160 HD
ATOM     28  H   UNL d   1      18.525 -19.184  -1.488  0.00  0.00     0.160 HD
ATOM     29  H   UNL d   1      21.413 -19.658   1.194  0.00  0.00     0.170 HD
ENDBRANCH  20  23
ENDBRANCH   1  17
TORSDOF 6
ENDMDL
MODEL 3
REMARK VINA RESULT:    -9.030      0.856      1.287
REMARK INTER + INTRA:         -13.257
REMARK INTER:                 -10.820
REMARK INTRA:                  -2.437
REMARK CONF_INDEPENDENT:        1.790
REMARK UNBOUND:                -2.437
REMARK  6 active torsions:
REMARK  status: ('A' for Active; 'I' for Inactive)
REMARK    1  A    between atoms: C_2  and  C_16 
REMARK    2  A    between atoms: C_2  and  O_3 
REMARK    3  A    between atoms: O_3  and  C_4 
REMARK    4  A    between atoms: C_4  and  C_6 
REMARK    5  A    between atoms: C_9  and  N_10 
REMARK       I    between atoms: N_10  and  C_11 
REMARK       I    between atoms: C_11  and  N_12 
REMARK       I    between atoms: C_16  and  N_18 
REMARK    6  A    between atoms: N_18  and  C_19 
ROOT
ATOM      1  C   UNL d   1      25.607 -15.917  -1.248  0.00  0.00     0.294 C 
ATOM      2  O   UNL d   1      26.720 -16.246  -0.897  0.00  0.00    -0.259 OA
ENDROOT
BRANCH   1   3
ATOM      3  O   UNL d   1      25.350 -14.753  -1.908  0.00  0.00    -0.303 OA
BRANCH   3   4
ATOM      4  C   UNL d   1      25.038 -14.452  -3.310  0.00  0.00     0.220 C 
ATOM      5  C   UNL d   1      25.125 -12.994  -3.719  0.00  0.00     0.050 C 
BRANCH   4   6
ATOM      6  C   UNL d   1      26.105 -15.095  -4.209  0.00  0.00     0.251 C 
ATOM      7  O   UNL d   1      25.810 -15.591  -5.293  0.00  0.00    -0.270 OA
ATOM      8  N   UNL d   1      27.369 -15.202  -3.614  0.00  0.00    -0.323 N 
ATOM      9  H   UNL d   1      27.472 -15.091  -2.614  0.00  0.00     0.169 HD
BRANCH   8  10
ATOM     10  C   UNL d   1      28.491 -15.723  -4.291  0.00  0.00     0.056 A 
ATOM     11  C   UNL d   1      29.282 -16.699  -3.649  0.00  0.00     0.031 A 
ATOM     12  C   UNL d   1      30.490 -17.110  -4.226  0.00  0.00     0.002 A 
ATOM     13  C   UNL d   1      30.881 -16.599  -5.461  0.00  0.00     0.002 A 
ATOM     14  C   UNL d   1      30.087 -15.656  -6.107  0.00  0.00     0.026 A 
ATOM     15  C   UNL d   1      28.908 -15.202  -5.525  0.00  0.00     0.060 A 
ATOM     16 CL   UNL d   1      28.172 -13.841  -6.307  0.00  0.00    -0.082 Cl
ENDBRANCH   8  10
ENDBRANCH   4   6
ENDBRANCH   3   4
ENDBRANCH   1   3
BRANCH   1  17
ATOM     17  C   UNL d   1      24.490 -16.852  -1.015  0.00  0.00     0.039 C 
ATOM     18  C   UNL d   1      24.683 -18.207  -0.721  0.00  0.00     0.020 C 
ATOM     19  C   UNL d   1      23.576 -19.016  -0.369  0.00  0.00     0.030 C 
ATOM     20  C   UNL d   1      22.308 -18.435  -0.178  0.00  0.00     0.036 C 
ATOM     21  C   UNL d   1      22.155 -17.108  -0.565  0.00  0.00     0.030 C 
ATOM     22  C   UNL d   1      23.206 -16.339  -1.047  0.00  0.00     0.020 C 
BRANCH  20  23
ATOM     23  N   UNL d   1      21.252 -19.178   0.402  0.00  0.00    -0.309 N 
ATOM     24  C   UNL d   1      19.950 -19.380   0.038  0.00  0.00     0.318 C 
ATOM     25  N   UNL d   1      19.431 -18.757  -1.043  0.00  0.00    -0.352 N 
ATOM     26  O   UNL d   1      19.233 -20.144   0.678  0.00  0.00    -0.247 OA
ATOM     27  H   UNL d   1      19.698 -17.820  -1.287  0.00  0.00     0.160 HD
ATOM     28  H   UNL d   1      18.450 -18.935  -1.214  0.00  0.00     0.160 HD
ATOM     29  H   UNL d   1      21.467 -19.693   1.252  0.00  0.00     0.170 HD
ENDBRANCH  20  23
ENDBRANCH   1  17
TORSDOF 6
ENDMDL
MODEL 4
REMARK VINA RESULT:    -9.026      4.451      6.522
REMARK INTER + INTRA:         -11.912
REMARK INTER:                 -10.816
REMARK INTRA:                  -1.096
REMARK CONF_INDEPENDENT:        1.790
REMARK UNBOUND:                -1.096
REMARK  6 active torsions:
REMARK  status: ('A' for Active; 'I' for Inactive)
REMARK    1  A    between atoms: C_2  and  C_16 
REMARK    2  A    between atoms: C_2  and  O_3 
REMARK    3  A    between atoms: O_3  and  C_4 
REMARK    4  A    between atoms: C_4  and  C_6 
REMARK    5  A    between atoms: C_9  and  N_10 
REMARK       I    between atoms: N_10  and  C_11 
REMARK       I    between atoms: C_11  and  N_12 
REMARK       I    between atoms: C_16  and  N_18 
REMARK    6  A    between atoms: N_18  and  C_19 
ROOT
ATOM      1  C   UNL d   1      25.957 -16.756  -0.970  0.00  0.00     0.294 C 
ATOM      2  O   UNL d   1      26.182 -15.971  -1.866  0.00  0.00    -0.259 OA
ENDROOT
BRANCH   1   3
ATOM      3  O   UNL d   1      26.909 -17.171  -0.088  0.00  0.00    -0.303 OA
BRANCH   3   4
ATOM      4  C   UNL d   1      28.073 -16.503   0.507  0.00  0.00     0.220 C 
ATOM      5  C   UNL d   1      29.127 -16.002  -0.462  0.00  0.00     0.050 C 
BRANCH   4   6
ATOM      6  C   UNL d   1      27.613 -15.198   1.174  0.00  0.00     0.251 C 
ATOM      7  O   UNL d   1      26.745 -14.494   0.664  0.00  0.00    -0.270 OA
ATOM      8  N   UNL d   1      28.372 -14.824   2.291  0.00  0.00    -0.323 N 
ATOM      9  H   UNL d   1      29.272 -15.253   2.462  0.00  0.00     0.169 HD
BRANCH   8  10
ATOM     10  C   UNL d   1      28.081 -13.682   3.066  0.00  0.00     0.056 A 
ATOM     11  C   UNL d   1      28.045 -12.420   2.435  0.00  0.00     0.031 A 
ATOM     12  C   UNL d   1      27.925 -11.257   3.205  0.00  0.00     0.002 A 
ATOM     13  C   UNL d   1      27.780 -11.349   4.587  0.00  0.00     0.002 A 
ATOM     14  C   UNL d   1      27.789 -12.595   5.207  0.00  0.00     0.026 A 
ATOM     15  C   UNL d   1      27.955 -13.757   4.461  0.00  0.00     0.060 A 
ATOM     16 CL   UNL d   1      28.218 -15.200   5.387  0.00  0.00    -0.082 Cl
ENDBRANCH   8  10
ENDBRANCH   4   6
ENDBRANCH   3   4
ENDBRANCH   1   3
BRANCH   1  17
ATOM     17  C   UNL d   1      24.572 -17.228  -0.779  0.00  0.00     0.039 C 
ATOM     18  C   UNL d   1      23.460 -16.385  -0.895  0.00  0.00     0.020 C 
ATOM     19  C   UNL d   1      22.155 -16.931  -0.841  0.00  0.00     0.030 C 
ATOM     20  C   UNL d   1      21.972 -18.327  -0.810  0.00  0.00     0.036 C 
ATOM     21  C   UNL d   1      23.104 -19.108  -0.609  0.00  0.00     0.030 C 
ATOM     22  C   UNL d   1      24.382 -18.572  -0.519  0.00  0.00     0.020 C 
BRANCH  20  23
ATOM     23  N   UNL d   1      20.688 -18.892  -0.996  0.00  0.00    -0.309 N 
ATOM     24  C   UNL d   1      19.929 -19.740  -0.240  0.00  0.00     0.318 C 
ATOM     25  N   UNL d   1      20.411 -20.257   0.912  0.00  0.00    -0.352 N 
ATOM     26  O   UNL d   1      18.788 -20.036  -0.585  0.00  0.00    -0.247 OA
ATOM     27  H   UNL d   1      21.379 -20.507   1.010  0.00  0.00     0.160 HD
ATOM     28  H   UNL d   1      19.796 -20.906   1.385  0.00  0.00     0.160 HD
ATOM     29  H   UNL d   1      20.189 -18.626  -1.840  0.00  0.00     0.170 HD
ENDBRANCH  20  23
ENDBRANCH   1  17
TORSDOF 6
ENDMDL
MODEL 5
REMARK VINA RESULT:    -8.561      1.843      2.916
REMARK INTER + INTRA:         -12.620
REMARK INTER:                 -10.351
REMARK INTRA:                  -2.269
REMARK CONF_INDEPENDENT:        1.790
REMARK UNBOUND:                -2.269
REMARK  6 active torsions:
REMARK  status: ('A' for Active; 'I' for Inactive)
REMARK    1  A    between atoms: C_2  and  C_16 
REMARK    2  A    between atoms: C_2  and  O_3 
REMARK    3  A    between atoms: O_3  and  C_4 
REMARK    4  A    between atoms: C_4  and  C_6 
REMARK    5  A    between atoms: C_9  and  N_10 
REMARK       I    between atoms: N_10  and  C_11 
REMARK       I    between atoms: C_11  and  N_12 
REMARK       I    between atoms: C_16  and  N_18 
REMARK    6  A    between atoms: N_18  and  C_19 
ROOT
ATOM      1  C   UNL d   1      25.178 -15.825  -1.121  0.00  0.00     0.294 C 
ATOM      2  O   UNL d   1      25.069 -15.009  -2.011  0.00  0.00    -0.259 OA
ENDROOT
BRANCH   1   3
ATOM      3  O   UNL d   1      26.176 -15.783  -0.194  0.00  0.00    -0.303 OA
BRANCH   3   4
ATOM      4  C   UNL d   1      27.385 -16.591   0.004  0.00  0.00     0.220 C 
ATOM      5  C   UNL d   1      27.169 -18.074   0.243  0.00  0.00     0.050 C 
BRANCH   4   6
ATOM      6  C   UNL d   1      28.201 -16.598  -1.297  0.00  0.00     0.251 C 
ATOM      7  O   UNL d   1      29.196 -17.307  -1.422  0.00  0.00    -0.270 OA
ATOM      8  N   UNL d   1      27.807 -15.627  -2.228  0.00  0.00    -0.323 N 
ATOM      9  H   UNL d   1      27.214 -14.859  -1.942  0.00  0.00     0.169 HD
BRANCH   8  10
ATOM     10  C   UNL d   1      28.402 -15.501  -3.500  0.00  0.00     0.056 A 
ATOM     11  C   UNL d   1      29.808 -15.441  -3.593  0.00  0.00     0.031 A 
ATOM     12  C   UNL d   1      30.417 -15.150  -4.819  0.00  0.00     0.002 A 
ATOM     13  C   UNL d   1      29.636 -14.978  -5.960  0.00  0.00     0.002 A 
ATOM     14  C   UNL d   1      28.250 -15.064  -5.874  0.00  0.00     0.026 A 
ATOM     15  C   UNL d   1      27.628 -15.305  -4.654  0.00  0.00     0.060 A 
ATOM     16 CL   UNL d   1      25.905 -15.114  -4.651  0.00  0.00    -0.082 Cl
ENDBRANCH   8  10
ENDBRANCH   4   6
ENDBRANCH   3   4
ENDBRANCH   1   3
BRANCH   1  17
ATOM     17  C   UNL d   1      24.145 -16.869  -0.992  0.00  0.00     0.039 C 
ATOM     18  C   UNL d   1      24.450 -18.232  -0.897  0.00  0.00     0.020 C 
ATOM     19  C   UNL d   1      23.420 -19.167  -0.632  0.00  0.00     0.030 C 
ATOM     20  C   UNL d   1      22.120 -18.721  -0.326  0.00  0.00     0.036 C 
ATOM     21  C   UNL d   1      21.854 -17.370  -0.519  0.00  0.00     0.030 C 
ATOM     22  C   UNL d   1      22.826 -16.461  -0.917  0.00  0.00     0.020 C 
BRANCH  20  23
ATOM     23  N   UNL d   1      21.146 -19.618   0.172  0.00  0.00    -0.309 N 
ATOM     24  C   UNL d   1      19.878 -19.929  -0.232  0.00  0.00     0.318 C 
ATOM     25  N   UNL d   1      19.306 -19.281  -1.270  0.00  0.00    -0.352 N 
ATOM     26  O   UNL d   1      19.242 -20.816   0.331  0.00  0.00    -0.247 OA
ATOM     27  H   UNL d   1      19.471 -18.303  -1.433  0.00  0.00     0.160 HD
ATOM     28  H   UNL d   1      18.351 -19.549  -1.473  0.00  0.00     0.160 HD
ATOM     29  H   UNL d   1      21.407 -20.175   0.981  0.00  0.00     0.170 HD
ENDBRANCH  20  23
ENDBRANCH   1  17
TORSDOF 6
ENDMDL
MODEL 6
REMARK VINA RESULT:    -8.212      3.233      4.304
REMARK INTER + INTRA:         -12.322
REMARK INTER:                 -10.002
REMARK INTRA:                  -2.319
REMARK CONF_INDEPENDENT:        1.790
REMARK UNBOUND:                -2.319
REMARK  6 active torsions:
REMARK  status: ('A' for Active; 'I' for Inactive)
REMARK    1  A    between atoms: C_2  and  C_16 
REMARK    2  A    between atoms: C_2  and  O_3 
REMARK    3  A    between atoms: O_3  and  C_4 
REMARK    4  A    between atoms: C_4  and  C_6 
REMARK    5  A    between atoms: C_9  and  N_10 
REMARK       I    between atoms: N_10  and  C_11 
REMARK       I    between atoms: C_11  and  N_12 
REMARK       I    between atoms: C_16  and  N_18 
REMARK    6  A    between atoms: N_18  and  C_19 
ROOT
ATOM      1  C   UNL d   1      26.124 -16.860  -0.568  0.00  0.00     0.294 C 
ATOM      2  O   UNL d   1      26.676 -16.830  -1.647  0.00  0.00    -0.259 OA
ENDROOT
BRANCH   1   3
ATOM      3  O   UNL d   1      26.730 -16.467   0.588  0.00  0.00    -0.303 OA
BRANCH   3   4
ATOM      4  C   UNL d   1      27.518 -15.281   0.945  0.00  0.00     0.220 C 
ATOM      5  C   UNL d   1      28.984 -15.309   0.556  0.00  0.00     0.050 C 
BRANCH   4   6
ATOM      6  C   UNL d   1      27.003 -14.078   0.141  0.00  0.00     0.251 C 
ATOM      7  O   UNL d   1      26.330 -13.198   0.671  0.00  0.00    -0.270 OA
ATOM      8  N   UNL d   1      27.228 -14.170  -1.239  0.00  0.00    -0.323 N 
ATOM      9  H   UNL d   1      27.478 -15.057  -1.657  0.00  0.00     0.169 HD
BRANCH   8  10
ATOM     10  C   UNL d   1      26.869 -13.147  -2.143  0.00  0.00     0.056 A 
ATOM     11  C   UNL d   1      27.139 -11.806  -1.798  0.00  0.00     0.031 A 
ATOM     12  C   UNL d   1      26.646 -10.767  -2.595  0.00  0.00     0.002 A 
ATOM     13  C   UNL d   1      25.940 -11.058  -3.760  0.00  0.00     0.002 A 
ATOM     14  C   UNL d   1      25.697 -12.381  -4.115  0.00  0.00     0.026 A 
ATOM     15  C   UNL d   1      26.139 -13.424  -3.308  0.00  0.00     0.060 A 
ATOM     16 CL   UNL d   1      25.532 -14.993  -3.728  0.00  0.00    -0.082 Cl
ENDBRANCH   8  10
ENDBRANCH   4   6
ENDBRANCH   3   4
ENDBRANCH   1   3
BRANCH   1  17
ATOM     17  C   UNL d   1      24.709 -17.271  -0.512  0.00  0.00     0.039 C 
ATOM     18  C   UNL d   1      23.651 -16.391  -0.774  0.00  0.00     0.020 C 
ATOM     19  C   UNL d   1      22.326 -16.885  -0.843  0.00  0.00     0.030 C 
ATOM     20  C   UNL d   1      22.083 -18.271  -0.788  0.00  0.00     0.036 C 
ATOM     21  C   UNL d   1      23.153 -19.087  -0.441  0.00  0.00     0.030 C 
ATOM     22  C   UNL d   1      24.436 -18.598  -0.232  0.00  0.00     0.020 C 
BRANCH  20  23
ATOM     23  N   UNL d   1      20.803 -18.793  -1.093  0.00  0.00    -0.309 N 
ATOM     24  C   UNL d   1      20.006 -19.716  -0.476  0.00  0.00     0.318 C 
ATOM     25  N   UNL d   1      20.435 -20.372   0.625  0.00  0.00    -0.352 N 
ATOM     26  O   UNL d   1      18.879 -19.953  -0.901  0.00  0.00    -0.247 OA
ATOM     27  H   UNL d   1      21.396 -20.645   0.732  0.00  0.00     0.160 HD
ATOM     28  H   UNL d   1      19.795 -21.065   0.990  0.00  0.00     0.160 HD
ATOM     29  H   UNL d   1      20.342 -18.421  -1.919  0.00  0.00     0.170 HD
ENDBRANCH  20  23
ENDBRANCH   1  17
TORSDOF 6
ENDMDL
MODEL 7
REMARK VINA RESULT:    -8.201      1.864      2.656
REMARK INTER + INTRA:         -12.456
REMARK INTER:                  -9.990
REMARK INTRA:                  -2.465
REMARK CONF_INDEPENDENT:        1.790
REMARK UNBOUND:                -2.465
REMARK  6 active torsions:
REMARK  status: ('A' for Active; 'I' for Inactive)
REMARK    1  A    between atoms: C_2  and  C_16 
REMARK    2  A    between atoms: C_2  and  O_3 
REMARK    3  A    between atoms: O_3  and  C_4 
REMARK    4  A    between atoms: C_4  and  C_6 
REMARK    5  A    between atoms: C_9  and  N_10 
REMARK       I    between atoms: N_10  and  C_11 
REMARK       I    between atoms: C_11  and  N_12 
REMARK       I    between atoms: C_16  and  N_18 
REMARK    6  A    between atoms: N_18  and  C_19 
ROOT
ATOM      1  C   UNL d   1      26.127 -16.843  -0.406  0.00  0.00     0.294 C 
ATOM      2  O   UNL d   1      26.953 -17.673  -0.725  0.00  0.00    -0.259 OA
ENDROOT
BRANCH   1   3
ATOM      3  O   UNL d   1      26.443 -15.544  -0.146  0.00  0.00    -0.303 OA
BRANCH   3   4
ATOM      4  C   UNL d   1      27.720 -14.822  -0.086  0.00  0.00     0.220 C 
ATOM      5  C   UNL d   1      28.886 -15.573   0.528  0.00  0.00     0.050 C 
BRANCH   4   6
ATOM      6  C   UNL d   1      28.222 -14.577  -1.517  0.00  0.00     0.251 C 
ATOM      7  O   UNL d   1      28.850 -13.561  -1.806  0.00  0.00    -0.270 OA
ATOM      8  N   UNL d   1      27.764 -15.510  -2.456  0.00  0.00    -0.323 N 
ATOM      9  H   UNL d   1      26.987 -16.119  -2.231  0.00  0.00     0.169 HD
BRANCH   8  10
ATOM     10  C   UNL d   1      28.148 -15.483  -3.812  0.00  0.00     0.056 A 
ATOM     11  C   UNL d   1      29.445 -15.914  -4.163  0.00  0.00     0.031 A 
ATOM     12  C   UNL d   1      29.908 -15.741  -5.473  0.00  0.00     0.002 A 
ATOM     13  C   UNL d   1      29.068 -15.200  -6.443  0.00  0.00     0.002 A 
ATOM     14  C   UNL d   1      27.780 -14.800  -6.103  0.00  0.00     0.026 A 
ATOM     15  C   UNL d   1      27.321 -14.920  -4.796  0.00  0.00     0.060 A 
ATOM     16 CL   UNL d   1      25.810 -14.137  -4.467  0.00  0.00    -0.082 Cl
ENDBRANCH   8  10
ENDBRANCH   4   6
ENDBRANCH   3   4
ENDBRANCH   1   3
BRANCH   1  17
ATOM     17  C   UNL d   1      24.707 -17.241  -0.369  0.00  0.00     0.039 C 
ATOM     18  C   UNL d   1      23.660 -16.338  -0.592  0.00  0.00     0.020 C 
ATOM     19  C   UNL d   1      22.329 -16.814  -0.683  0.00  0.00     0.030 C 
ATOM     20  C   UNL d   1      22.070 -18.197  -0.689  0.00  0.00     0.036 C 
ATOM     21  C   UNL d   1      23.131 -19.040  -0.379  0.00  0.00     0.030 C 
ATOM     22  C   UNL d   1      24.420 -18.575  -0.148  0.00  0.00     0.020 C 
BRANCH  20  23
ATOM     23  N   UNL d   1      20.785 -18.691  -1.017  0.00  0.00    -0.309 N 
ATOM     24  C   UNL d   1      19.997 -19.664  -0.469  0.00  0.00     0.318 C 
ATOM     25  N   UNL d   1      20.443 -20.413   0.563  0.00  0.00    -0.352 N 
ATOM     26  O   UNL d   1      18.863 -19.864  -0.895  0.00  0.00    -0.247 OA
ATOM     27  H   UNL d   1      21.405 -20.694   0.631  0.00  0.00     0.160 HD
ATOM     28  H   UNL d   1      19.808 -21.135   0.878  0.00  0.00     0.160 HD
ATOM     29  H   UNL d   1      20.312 -18.250  -1.801  0.00  0.00     0.170 HD
ENDBRANCH  20  23
ENDBRANCH   1  17
TORSDOF 6
ENDMDL
MODEL 8
REMARK VINA RESULT:    -8.164      1.731      2.672
REMARK INTER + INTRA:         -12.321
REMARK INTER:                  -9.954
REMARK INTRA:                  -2.367
REMARK CONF_INDEPENDENT:        1.790
REMARK UNBOUND:                -2.367
REMARK  6 active torsions:
REMARK  status: ('A' for Active; 'I' for Inactive)
REMARK    1  A    between atoms: C_2  and  C_16 
REMARK    2  A    between atoms: C_2  and  O_3 
REMARK    3  A    between atoms: O_3  and  C_4 
REMARK    4  A    between atoms: C_4  and  C_6 
REMARK    5  A    between atoms: C_9  and  N_10 
REMARK       I    between atoms: N_10  and  C_11 
REMARK       I    between atoms: C_11  and  N_12 
REMARK       I    between atoms: C_16  and  N_18 
REMARK    6  A    between atoms: N_18  and  C_19 
ROOT
ATOM      1  C   UNL d   1      25.284 -16.044  -1.813  0.00  0.00     0.294 C 
ATOM      2  O   UNL d   1      25.215 -15.886  -3.014  0.00  0.00    -0.259 OA
ENDROOT
BRANCH   1   3
ATOM      3  O   UNL d   1      26.233 -15.447  -1.039  0.00  0.00    -0.303 OA
BRANCH   3   4
ATOM      4  C   UNL d   1      27.611 -15.816  -0.691  0.00  0.00     0.220 C 
ATOM      5  C   UNL d   1      27.872 -17.293  -0.466  0.00  0.00     0.050 C 
BRANCH   4   6
ATOM      6  C   UNL d   1      28.527 -15.513  -1.886  0.00  0.00     0.251 C 
ATOM      7  O   UNL d   1      29.684 -15.134  -1.722  0.00  0.00    -0.270 OA
ATOM      8  N   UNL d   1      27.881 -15.550  -3.129  0.00  0.00    -0.323 N 
ATOM      9  H   UNL d   1      26.871 -15.532  -3.179  0.00  0.00     0.169 HD
BRANCH   8  10
ATOM     10  C   UNL d   1      28.558 -15.343  -4.349  0.00  0.00     0.056 A 
ATOM     11  C   UNL d   1      28.055 -14.386  -5.255  0.00  0.00     0.031 A 
ATOM     12  C   UNL d   1      28.607 -14.279  -6.537  0.00  0.00     0.002 A 
ATOM     13  C   UNL d   1      29.692 -15.076  -6.897  0.00  0.00     0.002 A 
ATOM     14  C   UNL d   1      30.206 -16.001  -5.993  0.00  0.00     0.026 A 
ATOM     15  C   UNL d   1      29.638 -16.152  -4.733  0.00  0.00     0.060 A 
ATOM     16 CL   UNL d   1      30.203 -17.518  -3.826  0.00  0.00    -0.082 Cl
ENDBRANCH   8  10
ENDBRANCH   4   6
ENDBRANCH   3   4
ENDBRANCH   1   3
BRANCH   1  17
ATOM     17  C   UNL d   1      24.251 -16.861  -1.150  0.00  0.00     0.039 C 
ATOM     18  C   UNL d   1      22.915 -16.455  -1.042  0.00  0.00     0.020 C 
ATOM     19  C   UNL d   1      21.948 -17.349  -0.521  0.00  0.00     0.030 C 
ATOM     20  C   UNL d   1      22.296 -18.684  -0.241  0.00  0.00     0.036 C 
ATOM     21  C   UNL d   1      23.647 -19.007  -0.283  0.00  0.00     0.030 C 
ATOM     22  C   UNL d   1      24.628 -18.098  -0.659  0.00  0.00     0.020 C 
BRANCH  20  23
ATOM     23  N   UNL d   1      21.299 -19.645   0.050  0.00  0.00    -0.309 N 
ATOM     24  C   UNL d   1      20.023 -19.825  -0.406  0.00  0.00     0.318 C 
ATOM     25  N   UNL d   1      19.468 -18.946  -1.269  0.00  0.00    -0.352 N 
ATOM     26  O   UNL d   1      19.364 -20.799  -0.052  0.00  0.00    -0.247 OA
ATOM     27  H   UNL d   1      19.659 -17.962  -1.211  0.00  0.00     0.160 HD
ATOM     28  H   UNL d   1      18.507 -19.137  -1.521  0.00  0.00     0.160 HD
ATOM     29  H   UNL d   1      21.545 -20.375   0.713  0.00  0.00     0.170 HD
ENDBRANCH  20  23
ENDBRANCH   1  17
TORSDOF 6
ENDMDL
MODEL 9
REMARK VINA RESULT:    -7.625      4.327      7.052
REMARK INTER + INTRA:         -11.776
REMARK INTER:                  -9.414
REMARK INTRA:                  -2.361
REMARK CONF_INDEPENDENT:        1.790
REMARK UNBOUND:                -2.361
REMARK  6 active torsions:
REMARK  status: ('A' for Active; 'I' for Inactive)
REMARK    1  A    between atoms: C_2  and  C_16 
REMARK    2  A    between atoms: C_2  and  O_3 
REMARK    3  A    between atoms: O_3  and  C_4 
REMARK    4  A    between atoms: C_4  and  C_6 
REMARK    5  A    between atoms: C_9  and  N_10 
REMARK       I    between atoms: N_10  and  C_11 
REMARK       I    between atoms: C_11  and  N_12 
REMARK       I    between atoms: C_16  and  N_18 
REMARK    6  A    between atoms: N_18  and  C_19 
ROOT
ATOM      1  C   UNL d   1      27.379 -12.544  -1.037  0.00  0.00     0.294 C 
ATOM      2  O   UNL d   1      28.303 -11.831  -1.364  0.00  0.00    -0.259 OA
ENDROOT
BRANCH   1   3
ATOM      3  O   UNL d   1      26.354 -12.865  -1.876  0.00  0.00    -0.303 OA
BRANCH   3   4
ATOM      4  C   UNL d   1      26.299 -13.605  -3.142  0.00  0.00     0.220 C 
ATOM      5  C   UNL d   1      27.627 -14.087  -3.695  0.00  0.00     0.050 C 
BRANCH   4   6
ATOM      6  C   UNL d   1      25.555 -14.929  -2.914  0.00  0.00     0.251 C 
ATOM      7  O   UNL d   1      25.155 -15.606  -3.858  0.00  0.00    -0.270 OA
ATOM      8  N   UNL d   1      25.246 -15.192  -1.573  0.00  0.00    -0.323 N 
ATOM      9  H   UNL d   1      25.296 -14.453  -0.885  0.00  0.00     0.169 HD
BRANCH   8  10
ATOM     10  C   UNL d   1      24.604 -16.376  -1.153  0.00  0.00     0.056 A 
ATOM     11  C   UNL d   1      23.196 -16.401  -1.081  0.00  0.00     0.031 A 
ATOM     12  C   UNL d   1      22.544 -17.501  -0.512  0.00  0.00     0.002 A 
ATOM     13  C   UNL d   1      23.283 -18.597  -0.072  0.00  0.00     0.002 A 
ATOM     14  C   UNL d   1      24.671 -18.584  -0.168  0.00  0.00     0.026 A 
ATOM     15  C   UNL d   1      25.336 -17.479  -0.687  0.00  0.00     0.060 A 
ATOM     16 CL   UNL d   1      27.059 -17.494  -0.494  0.00  0.00    -0.082 Cl
ENDBRANCH   8  10
ENDBRANCH   4   6
ENDBRANCH   3   4
ENDBRANCH   1   3
BRANCH   1  17
ATOM     17  C   UNL d   1      27.400 -13.151   0.307  0.00  0.00     0.039 C 
ATOM     18  C   UNL d   1      28.039 -14.366   0.582  0.00  0.00     0.020 C 
ATOM     19  C   UNL d   1      28.143 -14.820   1.919  0.00  0.00     0.030 C 
ATOM     20  C   UNL d   1      27.731 -13.994   2.982  0.00  0.00     0.036 C 
ATOM     21  C   UNL d   1      27.027 -12.842   2.650  0.00  0.00     0.030 C 
ATOM     22  C   UNL d   1      26.794 -12.454   1.337  0.00  0.00     0.020 C 
BRANCH  20  23
ATOM     23  N   UNL d   1      28.045 -14.327   4.321  0.00  0.00    -0.309 N 
ATOM     24  C   UNL d   1      29.210 -14.682   4.939  0.00  0.00     0.318 C 
ATOM     25  N   UNL d   1      30.350 -14.833   4.230  0.00  0.00    -0.352 N 
ATOM     26  O   UNL d   1      29.246 -14.855   6.155  0.00  0.00    -0.247 OA
ATOM     27  H   UNL d   1      30.344 -15.214   3.301  0.00  0.00     0.160 HD
ATOM     28  H   UNL d   1      31.154 -15.136   4.764  0.00  0.00     0.160 HD
ATOM     29  H   UNL d   1      27.283 -14.291   4.992  0.00  0.00     0.170 HD
ENDBRANCH  20  23
ENDBRANCH   1  17
TORSDOF 6
ENDMDL
