MODEL 1
REMARK VINA RESULT:    -9.888      0.000      0.000
REMARK INTER + INTRA:         -13.060
REMARK INTER:                 -11.976
REMARK INTRA:                  -1.084
REMARK CONF_INDEPENDENT:        2.088
REMARK UNBOUND:                -1.084
REMARK  7 active torsions:
REMARK  status: ('A' for Active; 'I' for Inactive)
REMARK    1  A    between atoms: O_2  and  C_3 
REMARK    2  A    between atoms: C_6  and  S_7 
REMARK    3  A    between atoms: S_7  and  N_10 
REMARK    4  A    between atoms: C_13  and  N_14 
REMARK    5  A    between atoms: N_14  and  N_15 
REMARK       I    between atoms: N_15  and  C_16 
REMARK    6  A    between atoms: C_16  and  C_18 
REMARK    7  A    between atoms: C_22  and  O_23 
ROOT
ATOM      1  N   UNL d   1      23.130 -17.048  -1.299  0.00  0.00    -0.160 NA
ATOM      2  C   UNL d   1      24.267 -16.446  -1.564  0.00  0.00     0.079 A 
ATOM      3  C   UNL d   1      24.232 -15.191  -2.395  0.00  0.00     0.068 A 
ATOM      4  C   UNL d   1      25.303 -14.439  -2.729  0.00  0.00     0.101 A 
ATOM      5  C   UNL d   1      26.671 -14.848  -2.251  0.00  0.00     0.207 A 
ATOM      6  O   UNL d   1      27.671 -14.179  -2.530  0.00  0.00    -0.285 OA
ATOM      7  C   UNL d   1      26.780 -16.074  -1.443  0.00  0.00     0.007 A 
ATOM      8  C   UNL d   1      25.682 -16.791  -1.160  0.00  0.00    -0.015 A 
ATOM      9  C   UNL d   1      25.846 -17.990  -0.324  0.00  0.00     0.068 C 
ATOM     10  C   UNL d   1      27.044 -18.169   0.488  0.00  0.00    -0.026 C 
ATOM     11  C   UNL d   1      28.129 -17.450   0.230  0.00  0.00    -0.026 C 
ATOM     12  C   UNL d   1      28.152 -16.469  -0.917  0.00  0.00     0.070 C 
ENDROOT
BRANCH   4  13
ATOM     13  N   UNL d   1      25.276 -13.286  -3.500  0.00  0.00    -0.294 N 
ATOM     14  H   UNL d   1      24.441 -12.685  -3.412  0.00  0.00     0.187 HD
BRANCH  13  15
ATOM     15  N   UNL d   1      26.244 -12.909  -4.417  0.00  0.00    -0.265 N 
ATOM     16  C   UNL d   1      26.765 -13.829  -5.301  0.00  0.00     0.270 C 
ATOM     17  O   UNL d   1      26.444 -15.016  -5.349  0.00  0.00    -0.266 OA
ATOM     18  H   UNL d   1      26.465 -11.925  -4.493  0.00  0.00     0.190 HD
BRANCH  16  19
ATOM     19  C   UNL d   1      27.787 -13.282  -6.234  0.00  0.00     0.036 A 
ATOM     20  C   UNL d   1      27.554 -12.058  -6.871  0.00  0.00     0.017 A 
ATOM     21  C   UNL d   1      28.426 -11.615  -7.871  0.00  0.00     0.004 A 
ATOM     22  C   UNL d   1      29.567 -12.354  -8.189  0.00  0.00     0.036 A 
ATOM     23  C   UNL d   1      29.809 -13.553  -7.525  0.00  0.00     0.066 A 
ATOM     24  C   UNL d   1      28.931 -14.025  -6.554  0.00  0.00     0.053 A 
BRANCH  23  25
ATOM     25  O   UNL d   1      30.888 -14.331  -7.826  0.00  0.00    -0.361 OA
ATOM     26  H   UNL d   1      31.119 -14.207  -8.762  0.00  0.00     0.217 HD
ENDBRANCH  23  25
ENDBRANCH  16  19
ENDBRANCH  13  15
ENDBRANCH   4  13
BRANCH   1  27
ATOM     27  S   UNL d   1      23.014 -18.419  -0.395  0.00  0.00     0.283 S 
ATOM     28  O   UNL d   1      23.371 -18.126   0.980  0.00  0.00    -0.198 OA
ATOM     29  O   UNL d   1      23.610 -19.511  -1.144  0.00  0.00    -0.198 OA
BRANCH  27  30
ATOM     30  C   UNL d   1      21.397 -19.004  -0.183  0.00  0.00     0.081 A 
ATOM     31  C   UNL d   1      21.018 -19.325   1.135  0.00  0.00     0.028 A 
ATOM     32  C   UNL d   1      19.784 -19.907   1.351  0.00  0.00     0.038 A 
ATOM     33  C   UNL d   1      18.929 -20.083   0.264  0.00  0.00     0.068 A 
ATOM     34  C   UNL d   1      19.318 -19.700  -1.032  0.00  0.00     0.038 A 
ATOM     35  C   UNL d   1      20.570 -19.162  -1.267  0.00  0.00     0.028 A 
BRANCH  33  36
ATOM     36  O   UNL d   1      17.684 -20.547   0.574  0.00  0.00    -0.356 OA
ATOM     37  C   UNL d   1      17.655 -21.886   1.047  0.00  0.00     0.210 C 
ENDBRANCH  33  36
ENDBRANCH  27  30
ENDBRANCH   1  27
TORSDOF 7
ENDMDL
MODEL 2
REMARK VINA RESULT:    -9.498      5.619      8.722
REMARK INTER + INTRA:         -12.620
REMARK INTER:                 -11.586
REMARK INTRA:                  -1.034
REMARK CONF_INDEPENDENT:        2.088
REMARK UNBOUND:                -1.034
REMARK  7 active torsions:
REMARK  status: ('A' for Active; 'I' for Inactive)
REMARK    1  A    between atoms: O_2  and  C_3 
REMARK    2  A    between atoms: C_6  and  S_7 
REMARK    3  A    between atoms: S_7  and  N_10 
REMARK    4  A    between atoms: C_13  and  N_14 
REMARK    5  A    between atoms: N_14  and  N_15 
REMARK       I    between atoms: N_15  and  C_16 
REMARK    6  A    between atoms: C_16  and  C_18 
REMARK    7  A    between atoms: C_22  and  O_23 
ROOT
ATOM      1  N   UNL d   1      26.879 -16.083   0.686  0.00  0.00    -0.160 NA
ATOM      2  C   UNL d   1      28.138 -15.744   0.847  0.00  0.00     0.079 A 
ATOM      3  C   UNL d   1      28.458 -14.631   1.809  0.00  0.00     0.068 A 
ATOM      4  C   UNL d   1      29.696 -14.185   2.111  0.00  0.00     0.101 A 
ATOM      5  C   UNL d   1      30.893 -14.826   1.458  0.00  0.00     0.207 A 
ATOM      6  O   UNL d   1      32.040 -14.449   1.718  0.00  0.00    -0.285 OA
ATOM      7  C   UNL d   1      30.651 -15.915   0.496  0.00  0.00     0.007 A 
ATOM      8  C   UNL d   1      29.396 -16.301   0.221  0.00  0.00    -0.015 A 
ATOM      9  C   UNL d   1      29.216 -17.413  -0.724  0.00  0.00     0.068 C 
ATOM     10  C   UNL d   1      30.322 -18.311  -1.033  0.00  0.00    -0.026 C 
ATOM     11  C   UNL d   1      31.566 -17.947  -0.745  0.00  0.00    -0.026 C 
ATOM     12  C   UNL d   1      31.855 -16.598  -0.133  0.00  0.00     0.070 C 
ENDROOT
BRANCH   4  13
ATOM     13  N   UNL d   1      29.996 -13.156   2.991  0.00  0.00    -0.294 N 
ATOM     14  H   UNL d   1      30.197 -12.231   2.578  0.00  0.00     0.187 HD
BRANCH  13  15
ATOM     15  N   UNL d   1      30.105 -13.280   4.367  0.00  0.00    -0.265 N 
ATOM     16  C   UNL d   1      29.034 -12.986   5.182  0.00  0.00     0.270 C 
ATOM     17  O   UNL d   1      27.937 -12.593   4.787  0.00  0.00    -0.266 OA
ATOM     18  H   UNL d   1      30.946 -13.702   4.738  0.00  0.00     0.190 HD
BRANCH  16  19
ATOM     19  C   UNL d   1      29.291 -13.175   6.636  0.00  0.00     0.036 A 
ATOM     20  C   UNL d   1      30.277 -14.078   7.049  0.00  0.00     0.017 A 
ATOM     21  C   UNL d   1      30.416 -14.386   8.406  0.00  0.00     0.004 A 
ATOM     22  C   UNL d   1      29.620 -13.747   9.359  0.00  0.00     0.036 A 
ATOM     23  C   UNL d   1      28.665 -12.825   8.942  0.00  0.00     0.066 A 
ATOM     24  C   UNL d   1      28.492 -12.534   7.591  0.00  0.00     0.053 A 
BRANCH  23  25
ATOM     25  O   UNL d   1      27.838 -12.201   9.828  0.00  0.00    -0.361 OA
ATOM     26  H   UNL d   1      28.157 -11.294   9.978  0.00  0.00     0.217 HD
ENDBRANCH  23  25
ENDBRANCH  16  19
ENDBRANCH  13  15
ENDBRANCH   4  13
BRANCH   1  27
ATOM     27  S   UNL d   1      26.381 -17.287  -0.321  0.00  0.00     0.283 S 
ATOM     28  O   UNL d   1      26.712 -18.574   0.261  0.00  0.00    -0.198 OA
ATOM     29  O   UNL d   1      26.744 -16.924  -1.680  0.00  0.00    -0.198 OA
BRANCH  27  30
ATOM     30  C   UNL d   1      24.662 -17.437  -0.464  0.00  0.00     0.081 A 
ATOM     31  C   UNL d   1      24.136 -18.738  -0.333  0.00  0.00     0.028 A 
ATOM     32  C   UNL d   1      22.788 -18.938  -0.556  0.00  0.00     0.038 A 
ATOM     33  C   UNL d   1      21.984 -17.832  -0.825  0.00  0.00     0.068 A 
ATOM     34  C   UNL d   1      22.532 -16.539  -0.894  0.00  0.00     0.038 A 
ATOM     35  C   UNL d   1      23.889 -16.333  -0.723  0.00  0.00     0.028 A 
BRANCH  33  36
ATOM     36  O   UNL d   1      20.647 -18.092  -0.909  0.00  0.00    -0.356 OA
ATOM     37  C   UNL d   1      20.288 -19.432  -0.609  0.00  0.00     0.210 C 
ENDBRANCH  33  36
ENDBRANCH  27  30
ENDBRANCH   1  27
TORSDOF 7
ENDMDL
MODEL 3
REMARK VINA RESULT:    -9.460      2.628     10.242
REMARK INTER + INTRA:         -12.915
REMARK INTER:                 -11.548
REMARK INTRA:                  -1.367
REMARK CONF_INDEPENDENT:        2.088
REMARK UNBOUND:                -1.367
REMARK  7 active torsions:
REMARK  status: ('A' for Active; 'I' for Inactive)
REMARK    1  A    between atoms: O_2  and  C_3 
REMARK    2  A    between atoms: C_6  and  S_7 
REMARK    3  A    between atoms: S_7  and  N_10 
REMARK    4  A    between atoms: C_13  and  N_14 
REMARK    5  A    between atoms: N_14  and  N_15 
REMARK       I    between atoms: N_15  and  C_16 
REMARK    6  A    between atoms: C_16  and  C_18 
REMARK    7  A    between atoms: C_22  and  O_23 
ROOT
ATOM      1  N   UNL d   1      25.271 -14.135  -2.828  0.00  0.00    -0.160 NA
ATOM      2  C   UNL d   1      25.314 -15.186  -2.039  0.00  0.00     0.079 A 
ATOM      3  C   UNL d   1      24.238 -16.228  -2.183  0.00  0.00     0.068 A 
ATOM      4  C   UNL d   1      24.155 -17.375  -1.475  0.00  0.00     0.101 A 
ATOM      5  C   UNL d   1      25.209 -17.685  -0.445  0.00  0.00     0.207 A 
ATOM      6  O   UNL d   1      25.170 -18.730   0.214  0.00  0.00    -0.285 OA
ATOM      7  C   UNL d   1      26.287 -16.702  -0.244  0.00  0.00     0.007 A 
ATOM      8  C   UNL d   1      26.304 -15.570  -0.963  0.00  0.00    -0.015 A 
ATOM      9  C   UNL d   1      27.420 -14.637  -0.743  0.00  0.00     0.068 C 
ATOM     10  C   UNL d   1      28.644 -15.088  -0.092  0.00  0.00    -0.026 C 
ATOM     11  C   UNL d   1      28.643 -16.217   0.605  0.00  0.00    -0.026 C 
ATOM     12  C   UNL d   1      27.380 -17.028   0.762  0.00  0.00     0.070 C 
ENDROOT
BRANCH   4  13
ATOM     13  N   UNL d   1      23.162 -18.336  -1.599  0.00  0.00    -0.294 N 
ATOM     14  H   UNL d   1      23.051 -18.777  -2.526  0.00  0.00     0.187 HD
BRANCH  13  15
ATOM     15  N   UNL d   1      22.272 -18.706  -0.603  0.00  0.00    -0.265 N 
ATOM     16  C   UNL d   1      21.096 -19.349  -0.921  0.00  0.00     0.270 C 
ATOM     17  O   UNL d   1      20.736 -19.631  -2.064  0.00  0.00    -0.266 OA
ATOM     18  H   UNL d   1      22.566 -18.596   0.358  0.00  0.00     0.190 HD
BRANCH  16  19
ATOM     19  C   UNL d   1      20.243 -19.695   0.248  0.00  0.00     0.036 A 
ATOM     20  C   UNL d   1      20.653 -19.324   1.533  0.00  0.00     0.017 A 
ATOM     21  C   UNL d   1      19.948 -19.785   2.650  0.00  0.00     0.004 A 
ATOM     22  C   UNL d   1      18.796 -20.557   2.487  0.00  0.00     0.036 A 
ATOM     23  C   UNL d   1      18.377 -20.892   1.204  0.00  0.00     0.066 A 
ATOM     24  C   UNL d   1      19.089 -20.471   0.084  0.00  0.00     0.053 A 
BRANCH  23  25
ATOM     25  O   UNL d   1      17.280 -21.676   0.992  0.00  0.00    -0.361 OA
ATOM     26  H   UNL d   1      17.481 -22.322   0.293  0.00  0.00     0.217 HD
ENDBRANCH  23  25
ENDBRANCH  16  19
ENDBRANCH  13  15
ENDBRANCH   4  13
BRANCH   1  27
ATOM     27  S   UNL d   1      26.384 -12.923  -2.792  0.00  0.00     0.283 S 
ATOM     28  O   UNL d   1      27.629 -13.390  -3.374  0.00  0.00    -0.198 OA
ATOM     29  O   UNL d   1      26.319 -12.282  -1.491  0.00  0.00    -0.198 OA
BRANCH  27  30
ATOM     30  C   UNL d   1      26.028 -11.591  -3.839  0.00  0.00     0.081 A 
ATOM     31  C   UNL d   1      26.081 -11.852  -5.223  0.00  0.00     0.028 A 
ATOM     32  C   UNL d   1      25.923 -10.803  -6.106  0.00  0.00     0.038 A 
ATOM     33  C   UNL d   1      25.640  -9.537  -5.597  0.00  0.00     0.068 A 
ATOM     34  C   UNL d   1      25.539  -9.321  -4.211  0.00  0.00     0.038 A 
ATOM     35  C   UNL d   1      25.744 -10.354  -3.315  0.00  0.00     0.028 A 
BRANCH  33  36
ATOM     36  O   UNL d   1      25.374  -8.579  -6.532  0.00  0.00    -0.356 OA
ATOM     37  C   UNL d   1      25.541  -7.246  -6.074  0.00  0.00     0.210 C 
ENDBRANCH  33  36
ENDBRANCH  27  30
ENDBRANCH   1  27
TORSDOF 7
ENDMDL
MODEL 4
REMARK VINA RESULT:    -9.115      4.253      9.786
REMARK INTER + INTRA:         -12.548
REMARK INTER:                 -11.203
REMARK INTRA:                  -1.344
REMARK CONF_INDEPENDENT:        2.088
REMARK UNBOUND:                -1.344
REMARK  7 active torsions:
REMARK  status: ('A' for Active; 'I' for Inactive)
REMARK    1  A    between atoms: O_2  and  C_3 
REMARK    2  A    between atoms: C_6  and  S_7 
REMARK    3  A    between atoms: S_7  and  N_10 
REMARK    4  A    between atoms: C_13  and  N_14 
REMARK    5  A    between atoms: N_14  and  N_15 
REMARK       I    between atoms: N_15  and  C_16 
REMARK    6  A    between atoms: C_16  and  C_18 
REMARK    7  A    between atoms: C_22  and  O_23 
ROOT
ATOM      1  N   UNL d   1      27.224 -14.687   1.396  0.00  0.00    -0.160 NA
ATOM      2  C   UNL d   1      26.707 -14.741   0.189  0.00  0.00     0.079 A 
ATOM      3  C   UNL d   1      25.801 -15.895  -0.146  0.00  0.00     0.068 A 
ATOM      4  C   UNL d   1      25.168 -16.082  -1.325  0.00  0.00     0.101 A 
ATOM      5  C   UNL d   1      25.350 -15.074  -2.429  0.00  0.00     0.207 A 
ATOM      6  O   UNL d   1      24.780 -15.208  -3.516  0.00  0.00    -0.285 OA
ATOM      7  C   UNL d   1      26.234 -13.924  -2.173  0.00  0.00     0.007 A 
ATOM      8  C   UNL d   1      26.852 -13.804  -0.988  0.00  0.00    -0.015 A 
ATOM      9  C   UNL d   1      27.700 -12.620  -0.777  0.00  0.00     0.068 C 
ATOM     10  C   UNL d   1      27.561 -11.448  -1.632  0.00  0.00    -0.026 C 
ATOM     11  C   UNL d   1      26.933 -11.551  -2.797  0.00  0.00    -0.026 C 
ATOM     12  C   UNL d   1      26.388 -12.878  -3.266  0.00  0.00     0.070 C 
ENDROOT
BRANCH   4  13
ATOM     13  N   UNL d   1      24.337 -17.147  -1.640  0.00  0.00    -0.294 N 
ATOM     14  H   UNL d   1      24.532 -17.646  -2.522  0.00  0.00     0.187 HD
BRANCH  13  15
ATOM     15  N   UNL d   1      23.237 -17.555  -0.902  0.00  0.00    -0.265 N 
ATOM     16  C   UNL d   1      22.497 -18.647  -1.299  0.00  0.00     0.270 C 
ATOM     17  O   UNL d   1      22.724 -19.323  -2.302  0.00  0.00    -0.266 OA
ATOM     18  H   UNL d   1      23.070 -17.103  -0.013  0.00  0.00     0.190 HD
BRANCH  16  19
ATOM     19  C   UNL d   1      21.352 -18.976  -0.407  0.00  0.00     0.036 A 
ATOM     20  C   UNL d   1      21.501 -18.855   0.979  0.00  0.00     0.017 A 
ATOM     21  C   UNL d   1      20.493 -19.316   1.832  0.00  0.00     0.004 A 
ATOM     22  C   UNL d   1      19.307 -19.834   1.306  0.00  0.00     0.036 A 
ATOM     23  C   UNL d   1      19.154 -19.919  -0.074  0.00  0.00     0.066 A 
ATOM     24  C   UNL d   1      20.164 -19.497  -0.935  0.00  0.00     0.053 A 
BRANCH  23  25
ATOM     25  O   UNL d   1      18.032 -20.452  -0.637  0.00  0.00    -0.361 OA
ATOM     26  H   UNL d   1      17.654 -19.810  -1.263  0.00  0.00     0.217 HD
ENDBRANCH  23  25
ENDBRANCH  16  19
ENDBRANCH  13  15
ENDBRANCH   4  13
BRANCH   1  27
ATOM     27  S   UNL d   1      28.221 -13.480   1.906  0.00  0.00     0.283 S 
ATOM     28  O   UNL d   1      27.509 -12.216   1.873  0.00  0.00    -0.198 OA
ATOM     29  O   UNL d   1      29.519 -13.665   1.282  0.00  0.00    -0.198 OA
BRANCH  27  30
ATOM     30  C   UNL d   1      28.643 -13.560   3.584  0.00  0.00     0.081 A 
ATOM     31  C   UNL d   1      29.954 -13.165   3.917  0.00  0.00     0.028 A 
ATOM     32  C   UNL d   1      30.386 -13.320   5.219  0.00  0.00     0.038 A 
ATOM     33  C   UNL d   1      29.483 -13.788   6.172  0.00  0.00     0.068 A 
ATOM     34  C   UNL d   1      28.164 -14.122   5.816  0.00  0.00     0.038 A 
ATOM     35  C   UNL d   1      27.735 -14.018   4.506  0.00  0.00     0.028 A 
BRANCH  33  36
ATOM     36  O   UNL d   1      29.944 -13.796   7.456  0.00  0.00    -0.356 OA
ATOM     37  C   UNL d   1      29.220 -12.961   8.347  0.00  0.00     0.210 C 
ENDBRANCH  33  36
ENDBRANCH  27  30
ENDBRANCH   1  27
TORSDOF 7
ENDMDL
MODEL 5
REMARK VINA RESULT:    -9.061      4.136      6.815
REMARK INTER + INTRA:         -12.212
REMARK INTER:                 -11.149
REMARK INTRA:                  -1.064
REMARK CONF_INDEPENDENT:        2.088
REMARK UNBOUND:                -1.064
REMARK  7 active torsions:
REMARK  status: ('A' for Active; 'I' for Inactive)
REMARK    1  A    between atoms: O_2  and  C_3 
REMARK    2  A    between atoms: C_6  and  S_7 
REMARK    3  A    between atoms: S_7  and  N_10 
REMARK    4  A    between atoms: C_13  and  N_14 
REMARK    5  A    between atoms: N_14  and  N_15 
REMARK       I    between atoms: N_15  and  C_16 
REMARK    6  A    between atoms: C_16  and  C_18 
REMARK    7  A    between atoms: C_22  and  O_23 
ROOT
ATOM      1  N   UNL d   1      24.764 -17.106  -0.106  0.00  0.00    -0.160 NA
ATOM      2  C   UNL d   1      25.815 -16.382  -0.420  0.00  0.00     0.079 A 
ATOM      3  C   UNL d   1      26.918 -16.250   0.595  0.00  0.00     0.068 A 
ATOM      4  C   UNL d   1      28.073 -15.572   0.418  0.00  0.00     0.101 A 
ATOM      5  C   UNL d   1      28.326 -14.873  -0.892  0.00  0.00     0.207 A 
ATOM      6  O   UNL d   1      29.374 -14.251  -1.091  0.00  0.00    -0.285 OA
ATOM      7  C   UNL d   1      27.282 -14.951  -1.927  0.00  0.00     0.007 A 
ATOM      8  C   UNL d   1      26.146 -15.623  -1.685  0.00  0.00    -0.015 A 
ATOM      9  C   UNL d   1      25.150 -15.693  -2.766  0.00  0.00     0.068 C 
ATOM     10  C   UNL d   1      25.531 -15.409  -4.143  0.00  0.00    -0.026 C 
ATOM     11  C   UNL d   1      26.663 -14.763  -4.395  0.00  0.00    -0.026 C 
ATOM     12  C   UNL d   1      27.549 -14.286  -3.269  0.00  0.00     0.070 C 
ENDROOT
BRANCH   4  13
ATOM     13  N   UNL d   1      29.089 -15.442   1.353  0.00  0.00    -0.294 N 
ATOM     14  H   UNL d   1      29.938 -16.011   1.203  0.00  0.00     0.187 HD
BRANCH  13  15
ATOM     15  N   UNL d   1      29.035 -14.662   2.498  0.00  0.00    -0.265 N 
ATOM     16  C   UNL d   1      28.021 -13.746   2.670  0.00  0.00     0.270 C 
ATOM     17  O   UNL d   1      27.118 -13.535   1.860  0.00  0.00    -0.266 OA
ATOM     18  H   UNL d   1      29.687 -14.870   3.242  0.00  0.00     0.190 HD
BRANCH  16  19
ATOM     19  C   UNL d   1      28.083 -12.987   3.949  0.00  0.00     0.036 A 
ATOM     20  C   UNL d   1      27.952 -13.670   5.163  0.00  0.00     0.017 A 
ATOM     21  C   UNL d   1      27.843 -12.954   6.359  0.00  0.00     0.004 A 
ATOM     22  C   UNL d   1      27.933 -11.560   6.356  0.00  0.00     0.036 A 
ATOM     23  C   UNL d   1      28.098 -10.891   5.147  0.00  0.00     0.066 A 
ATOM     24  C   UNL d   1      28.172 -11.589   3.945  0.00  0.00     0.053 A 
BRANCH  23  25
ATOM     25  O   UNL d   1      28.154  -9.529   5.086  0.00  0.00    -0.361 OA
ATOM     26  H   UNL d   1      27.691  -9.157   5.856  0.00  0.00     0.217 HD
ENDBRANCH  23  25
ENDBRANCH  16  19
ENDBRANCH  13  15
ENDBRANCH   4  13
BRANCH   1  27
ATOM     27  S   UNL d   1      23.489 -17.347  -1.118  0.00  0.00     0.283 S 
ATOM     28  O   UNL d   1      23.897 -18.201  -2.218  0.00  0.00    -0.198 OA
ATOM     29  O   UNL d   1      22.819 -16.075  -1.320  0.00  0.00    -0.198 OA
BRANCH  27  30
ATOM     30  C   UNL d   1      22.206 -18.295  -0.442  0.00  0.00     0.081 A 
ATOM     31  C   UNL d   1      21.272 -18.822  -1.355  0.00  0.00     0.028 A 
ATOM     32  C   UNL d   1      20.163 -19.485  -0.867  0.00  0.00     0.038 A 
ATOM     33  C   UNL d   1      20.051 -19.675   0.509  0.00  0.00     0.068 A 
ATOM     34  C   UNL d   1      21.031 -19.183   1.390  0.00  0.00     0.038 A 
ATOM     35  C   UNL d   1      22.119 -18.475   0.916  0.00  0.00     0.028 A 
BRANCH  33  36
ATOM     36  O   UNL d   1      18.996 -20.445   0.905  0.00  0.00    -0.356 OA
ATOM     37  C   UNL d   1      18.118 -20.826  -0.144  0.00  0.00     0.210 C 
ENDBRANCH  33  36
ENDBRANCH  27  30
ENDBRANCH   1  27
TORSDOF 7
ENDMDL
MODEL 6
REMARK VINA RESULT:    -9.054      3.746      6.046
REMARK INTER + INTRA:         -12.527
REMARK INTER:                 -11.142
REMARK INTRA:                  -1.385
REMARK CONF_INDEPENDENT:        2.088
REMARK UNBOUND:                -1.385
REMARK  7 active torsions:
REMARK  status: ('A' for Active; 'I' for Inactive)
REMARK    1  A    between atoms: O_2  and  C_3 
REMARK    2  A    between atoms: C_6  and  S_7 
REMARK    3  A    between atoms: S_7  and  N_10 
REMARK    4  A    between atoms: C_13  and  N_14 
REMARK    5  A    between atoms: N_14  and  N_15 
REMARK       I    between atoms: N_15  and  C_16 
REMARK    6  A    between atoms: C_16  and  C_18 
REMARK    7  A    between atoms: C_22  and  O_23 
ROOT
ATOM      1  N   UNL d   1      26.318 -15.410  -3.632  0.00  0.00    -0.160 NA
ATOM      2  C   UNL d   1      26.979 -14.601  -4.429  0.00  0.00     0.079 A 
ATOM      3  C   UNL d   1      27.955 -15.203  -5.404  0.00  0.00     0.068 A 
ATOM      4  C   UNL d   1      28.687 -14.517  -6.308  0.00  0.00     0.101 A 
ATOM      5  C   UNL d   1      28.548 -13.019  -6.390  0.00  0.00     0.207 A 
ATOM      6  O   UNL d   1      29.194 -12.362  -7.211  0.00  0.00    -0.285 OA
ATOM      7  C   UNL d   1      27.618 -12.363  -5.456  0.00  0.00     0.007 A 
ATOM      8  C   UNL d   1      26.933 -13.096  -4.565  0.00  0.00    -0.015 A 
ATOM      9  C   UNL d   1      25.996 -12.391  -3.676  0.00  0.00     0.068 C 
ATOM     10  C   UNL d   1      25.530 -11.050  -4.006  0.00  0.00    -0.026 C 
ATOM     11  C   UNL d   1      26.188 -10.324  -4.901  0.00  0.00    -0.026 C 
ATOM     12  C   UNL d   1      27.437 -10.856  -5.561  0.00  0.00     0.070 C 
ENDROOT
BRANCH   4  13
ATOM     13  N   UNL d   1      29.592 -15.067  -7.204  0.00  0.00    -0.294 N 
ATOM     14  H   UNL d   1      29.935 -14.451  -7.959  0.00  0.00     0.187 HD
BRANCH  13  15
ATOM     15  N   UNL d   1      30.026 -16.383  -7.205  0.00  0.00    -0.265 N 
ATOM     16  C   UNL d   1      30.407 -16.992  -6.029  0.00  0.00     0.270 C 
ATOM     17  O   UNL d   1      30.411 -16.449  -4.925  0.00  0.00    -0.266 OA
ATOM     18  H   UNL d   1      29.940 -16.909  -8.064  0.00  0.00     0.190 HD
BRANCH  16  19
ATOM     19  C   UNL d   1      30.839 -18.409  -6.177  0.00  0.00     0.036 A 
ATOM     20  C   UNL d   1      31.439 -18.825  -7.372  0.00  0.00     0.017 A 
ATOM     21  C   UNL d   1      31.698 -20.182  -7.586  0.00  0.00     0.004 A 
ATOM     22  C   UNL d   1      31.424 -21.118  -6.586  0.00  0.00     0.036 A 
ATOM     23  C   UNL d   1      30.861 -20.691  -5.388  0.00  0.00     0.066 A 
ATOM     24  C   UNL d   1      30.564 -19.347  -5.175  0.00  0.00     0.053 A 
BRANCH  23  25
ATOM     25  O   UNL d   1      30.540 -21.569  -4.395  0.00  0.00    -0.361 OA
ATOM     26  H   UNL d   1      30.007 -22.291  -4.769  0.00  0.00     0.217 HD
ENDBRANCH  23  25
ENDBRANCH  16  19
ENDBRANCH  13  15
ENDBRANCH   4  13
BRANCH   1  27
ATOM     27  S   UNL d   1      25.213 -14.896  -2.525  0.00  0.00     0.283 S 
ATOM     28  O   UNL d   1      24.068 -14.327  -3.212  0.00  0.00    -0.198 OA
ATOM     29  O   UNL d   1      25.918 -14.198  -1.466  0.00  0.00    -0.198 OA
BRANCH  27  30
ATOM     30  C   UNL d   1      24.446 -16.167  -1.634  0.00  0.00     0.081 A 
ATOM     31  C   UNL d   1      23.100 -15.956  -1.278  0.00  0.00     0.028 A 
ATOM     32  C   UNL d   1      22.472 -16.879  -0.465  0.00  0.00     0.038 A 
ATOM     33  C   UNL d   1      23.170 -18.026  -0.093  0.00  0.00     0.068 A 
ATOM     34  C   UNL d   1      24.497 -18.233  -0.512  0.00  0.00     0.038 A 
ATOM     35  C   UNL d   1      25.152 -17.291  -1.284  0.00  0.00     0.028 A 
BRANCH  33  36
ATOM     36  O   UNL d   1      22.445 -18.948   0.604  0.00  0.00    -0.356 OA
ATOM     37  C   UNL d   1      21.180 -19.254   0.036  0.00  0.00     0.210 C 
ENDBRANCH  33  36
ENDBRANCH  27  30
ENDBRANCH   1  27
TORSDOF 7
ENDMDL
MODEL 7
REMARK VINA RESULT:    -8.769      4.425      6.918
REMARK INTER + INTRA:         -12.072
REMARK INTER:                 -10.857
REMARK INTRA:                  -1.214
REMARK CONF_INDEPENDENT:        2.088
REMARK UNBOUND:                -1.214
REMARK  7 active torsions:
REMARK  status: ('A' for Active; 'I' for Inactive)
REMARK    1  A    between atoms: O_2  and  C_3 
REMARK    2  A    between atoms: C_6  and  S_7 
REMARK    3  A    between atoms: S_7  and  N_10 
REMARK    4  A    between atoms: C_13  and  N_14 
REMARK    5  A    between atoms: N_14  and  N_15 
REMARK       I    between atoms: N_15  and  C_16 
REMARK    6  A    between atoms: C_16  and  C_18 
REMARK    7  A    between atoms: C_22  and  O_23 
ROOT
ATOM      1  N   UNL d   1      25.554 -13.791  -2.954  0.00  0.00    -0.160 NA
ATOM      2  C   UNL d   1      25.963 -12.928  -3.856  0.00  0.00     0.079 A 
ATOM      3  C   UNL d   1      25.540 -11.491  -3.709  0.00  0.00     0.068 A 
ATOM      4  C   UNL d   1      25.898 -10.478  -4.527  0.00  0.00     0.101 A 
ATOM      5  C   UNL d   1      26.801 -10.759  -5.700  0.00  0.00     0.207 A 
ATOM      6  O   UNL d   1      27.156  -9.856  -6.464  0.00  0.00    -0.285 OA
ATOM      7  C   UNL d   1      27.243 -12.148  -5.911  0.00  0.00     0.007 A 
ATOM      8  C   UNL d   1      26.837 -13.116  -5.074  0.00  0.00    -0.015 A 
ATOM      9  C   UNL d   1      27.335 -14.479  -5.315  0.00  0.00     0.068 C 
ATOM     10  C   UNL d   1      28.509 -14.703  -6.149  0.00  0.00    -0.026 C 
ATOM     11  C   UNL d   1      28.932 -13.744  -6.964  0.00  0.00    -0.026 C 
ATOM     12  C   UNL d   1      28.191 -12.433  -7.066  0.00  0.00     0.070 C 
ENDROOT
BRANCH   4  13
ATOM     13  N   UNL d   1      25.506  -9.154  -4.400  0.00  0.00    -0.294 N 
ATOM     14  H   UNL d   1      25.430  -8.603  -5.270  0.00  0.00     0.187 HD
BRANCH  13  15
ATOM     15  N   UNL d   1      25.268  -8.497  -3.202  0.00  0.00    -0.265 N 
ATOM     16  C   UNL d   1      26.231  -8.471  -2.217  0.00  0.00     0.270 C 
ATOM     17  O   UNL d   1      27.334  -9.011  -2.298  0.00  0.00    -0.266 OA
ATOM     18  H   UNL d   1      24.424  -7.946  -3.125  0.00  0.00     0.190 HD
BRANCH  16  19
ATOM     19  C   UNL d   1      25.843  -7.722  -0.991  0.00  0.00     0.036 A 
ATOM     20  C   UNL d   1      25.231  -6.469  -1.114  0.00  0.00     0.017 A 
ATOM     21  C   UNL d   1      25.012  -5.685   0.023  0.00  0.00     0.004 A 
ATOM     22  C   UNL d   1      25.338  -6.175   1.290  0.00  0.00     0.036 A 
ATOM     23  C   UNL d   1      25.915  -7.436   1.405  0.00  0.00     0.066 A 
ATOM     24  C   UNL d   1      26.172  -8.212   0.279  0.00  0.00     0.053 A 
BRANCH  23  25
ATOM     25  O   UNL d   1      26.287  -7.944   2.615  0.00  0.00    -0.361 OA
ATOM     26  H   UNL d   1      27.197  -8.280   2.553  0.00  0.00     0.217 HD
ENDBRANCH  23  25
ENDBRANCH  16  19
ENDBRANCH  13  15
ENDBRANCH   4  13
BRANCH   1  27
ATOM     27  S   UNL d   1      25.946 -15.390  -2.980  0.00  0.00     0.283 S 
ATOM     28  O   UNL d   1      27.283 -15.570  -2.445  0.00  0.00    -0.198 OA
ATOM     29  O   UNL d   1      25.532 -15.941  -4.258  0.00  0.00    -0.198 OA
BRANCH  27  30
ATOM     30  C   UNL d   1      25.033 -16.370  -1.883  0.00  0.00     0.081 A 
ATOM     31  C   UNL d   1      23.704 -15.968  -1.645  0.00  0.00     0.028 A 
ATOM     32  C   UNL d   1      22.965 -16.639  -0.691  0.00  0.00     0.038 A 
ATOM     33  C   UNL d   1      23.537 -17.739  -0.054  0.00  0.00     0.068 A 
ATOM     34  C   UNL d   1      24.848 -18.148  -0.355  0.00  0.00     0.038 A 
ATOM     35  C   UNL d   1      25.615 -17.453  -1.272  0.00  0.00     0.028 A 
BRANCH  33  36
ATOM     36  O   UNL d   1      22.704 -18.424   0.783  0.00  0.00    -0.356 OA
ATOM     37  C   UNL d   1      21.550 -18.961   0.155  0.00  0.00     0.210 C 
ENDBRANCH  33  36
ENDBRANCH  27  30
ENDBRANCH   1  27
TORSDOF 7
ENDMDL
MODEL 8
REMARK VINA RESULT:    -8.267      7.419      9.897
REMARK INTER + INTRA:         -12.031
REMARK INTER:                 -10.355
REMARK INTRA:                  -1.675
REMARK CONF_INDEPENDENT:        2.088
REMARK UNBOUND:                -1.675
REMARK  7 active torsions:
REMARK  status: ('A' for Active; 'I' for Inactive)
REMARK    1  A    between atoms: O_2  and  C_3 
REMARK    2  A    between atoms: C_6  and  S_7 
REMARK    3  A    between atoms: S_7  and  N_10 
REMARK    4  A    between atoms: C_13  and  N_14 
REMARK    5  A    between atoms: N_14  and  N_15 
REMARK       I    between atoms: N_15  and  C_16 
REMARK    6  A    between atoms: C_16  and  C_18 
REMARK    7  A    between atoms: C_22  and  O_23 
ROOT
ATOM      1  N   UNL d   1      28.795 -14.100   5.852  0.00  0.00    -0.160 NA
ATOM      2  C   UNL d   1      28.440 -13.680   4.658  0.00  0.00     0.079 A 
ATOM      3  C   UNL d   1      28.200 -14.706   3.585  0.00  0.00     0.068 A 
ATOM      4  C   UNL d   1      27.802 -14.444   2.321  0.00  0.00     0.101 A 
ATOM      5  C   UNL d   1      27.562 -13.017   1.903  0.00  0.00     0.207 A 
ATOM      6  O   UNL d   1      27.189 -12.741   0.758  0.00  0.00    -0.285 OA
ATOM      7  C   UNL d   1      27.791 -11.959   2.902  0.00  0.00     0.007 A 
ATOM      8  C   UNL d   1      28.206 -12.281   4.136  0.00  0.00    -0.015 A 
ATOM      9  C   UNL d   1      28.389 -11.186   5.102  0.00  0.00     0.068 C 
ATOM     10  C   UNL d   1      27.773  -9.885   4.872  0.00  0.00    -0.026 C 
ATOM     11  C   UNL d   1      27.340  -9.565   3.659  0.00  0.00    -0.026 C 
ATOM     12  C   UNL d   1      27.507 -10.519   2.502  0.00  0.00     0.070 C 
ENDROOT
BRANCH   4  13
ATOM     13  N   UNL d   1      27.585 -15.386   1.326  0.00  0.00    -0.294 N 
ATOM     14  H   UNL d   1      27.645 -16.379   1.602  0.00  0.00     0.187 HD
BRANCH  13  15
ATOM     15  N   UNL d   1      27.355 -15.105  -0.012  0.00  0.00    -0.265 N 
ATOM     16  C   UNL d   1      26.640 -15.983  -0.796  0.00  0.00     0.270 C 
ATOM     17  O   UNL d   1      26.171 -17.052  -0.407  0.00  0.00    -0.266 OA
ATOM     18  H   UNL d   1      27.623 -14.193  -0.356  0.00  0.00     0.190 HD
BRANCH  16  19
ATOM     19  C   UNL d   1      26.461 -15.548  -2.208  0.00  0.00     0.036 A 
ATOM     20  C   UNL d   1      27.540 -15.630  -3.096  0.00  0.00     0.017 A 
ATOM     21  C   UNL d   1      27.435 -15.074  -4.375  0.00  0.00     0.004 A 
ATOM     22  C   UNL d   1      26.235 -14.497  -4.796  0.00  0.00     0.036 A 
ATOM     23  C   UNL d   1      25.156 -14.451  -3.918  0.00  0.00     0.066 A 
ATOM     24  C   UNL d   1      25.258 -14.968  -2.630  0.00  0.00     0.053 A 
BRANCH  23  25
ATOM     25  O   UNL d   1      23.975 -13.865  -4.267  0.00  0.00    -0.361 OA
ATOM     26  H   UNL d   1      24.082 -13.420  -5.126  0.00  0.00     0.217 HD
ENDBRANCH  23  25
ENDBRANCH  16  19
ENDBRANCH  13  15
ENDBRANCH   4  13
BRANCH   1  27
ATOM     27  S   UNL d   1      29.080 -13.095   7.124  0.00  0.00     0.283 S 
ATOM     28  O   UNL d   1      27.843 -12.449   7.519  0.00  0.00    -0.198 OA
ATOM     29  O   UNL d   1      30.300 -12.355   6.856  0.00  0.00    -0.198 OA
BRANCH  27  30
ATOM     30  C   UNL d   1      29.498 -13.904   8.598  0.00  0.00     0.081 A 
ATOM     31  C   UNL d   1      28.507 -13.927   9.599  0.00  0.00     0.028 A 
ATOM     32  C   UNL d   1      28.823 -14.452  10.837  0.00  0.00     0.038 A 
ATOM     33  C   UNL d   1      30.085 -15.011  11.024  0.00  0.00     0.068 A 
ATOM     34  C   UNL d   1      31.033 -15.021   9.985  0.00  0.00     0.038 A 
ATOM     35  C   UNL d   1      30.745 -14.453   8.757  0.00  0.00     0.028 A 
BRANCH  33  36
ATOM     36  O   UNL d   1      30.280 -15.619  12.230  0.00  0.00    -0.356 OA
ATOM     37  C   UNL d   1      31.239 -16.666  12.213  0.00  0.00     0.210 C 
ENDBRANCH  33  36
ENDBRANCH  27  30
ENDBRANCH   1  27
TORSDOF 7
ENDMDL
MODEL 9
REMARK VINA RESULT:    -8.188      1.837      2.138
REMARK INTER + INTRA:         -11.936
REMARK INTER:                 -10.277
REMARK INTRA:                  -1.659
REMARK CONF_INDEPENDENT:        2.088
REMARK UNBOUND:                -1.659
REMARK  7 active torsions:
REMARK  status: ('A' for Active; 'I' for Inactive)
REMARK    1  A    between atoms: O_2  and  C_3 
REMARK    2  A    between atoms: C_6  and  S_7 
REMARK    3  A    between atoms: S_7  and  N_10 
REMARK    4  A    between atoms: C_13  and  N_14 
REMARK    5  A    between atoms: N_14  and  N_15 
REMARK       I    between atoms: N_15  and  C_16 
REMARK    6  A    between atoms: C_16  and  C_18 
REMARK    7  A    between atoms: C_22  and  O_23 
ROOT
ATOM      1  N   UNL d   1      23.283 -16.737  -1.522  0.00  0.00    -0.160 NA
ATOM      2  C   UNL d   1      24.391 -16.098  -1.823  0.00  0.00     0.079 A 
ATOM      3  C   UNL d   1      24.285 -14.821  -2.612  0.00  0.00     0.068 A 
ATOM      4  C   UNL d   1      25.320 -14.032  -2.974  0.00  0.00     0.101 A 
ATOM      5  C   UNL d   1      26.719 -14.419  -2.575  0.00  0.00     0.207 A 
ATOM      6  O   UNL d   1      27.688 -13.716  -2.881  0.00  0.00    -0.285 OA
ATOM      7  C   UNL d   1      26.898 -15.665  -1.811  0.00  0.00     0.007 A 
ATOM      8  C   UNL d   1      25.832 -16.418  -1.498  0.00  0.00    -0.015 A 
ATOM      9  C   UNL d   1      26.066 -17.637  -0.708  0.00  0.00     0.068 C 
ATOM     10  C   UNL d   1      27.306 -17.809   0.039  0.00  0.00    -0.026 C 
ATOM     11  C   UNL d   1      28.359 -17.055  -0.248  0.00  0.00    -0.026 C 
ATOM     12  C   UNL d   1      28.302 -16.040  -1.364  0.00  0.00     0.070 C 
ENDROOT
BRANCH   4  13
ATOM     13  N   UNL d   1      25.227 -12.857  -3.706  0.00  0.00    -0.294 N 
ATOM     14  H   UNL d   1      24.277 -12.508  -3.912  0.00  0.00     0.187 HD
BRANCH  13  15
ATOM     15  N   UNL d   1      26.298 -12.151  -4.233  0.00  0.00    -0.265 N 
ATOM     16  C   UNL d   1      26.172 -11.486  -5.433  0.00  0.00     0.270 C 
ATOM     17  O   UNL d   1      25.153 -11.466  -6.123  0.00  0.00    -0.266 OA
ATOM     18  H   UNL d   1      27.122 -12.044  -3.658  0.00  0.00     0.190 HD
BRANCH  16  19
ATOM     19  C   UNL d   1      27.396 -10.763  -5.871  0.00  0.00     0.036 A 
ATOM     20  C   UNL d   1      28.648 -11.185  -5.410  0.00  0.00     0.017 A 
ATOM     21  C   UNL d   1      29.786 -10.418  -5.680  0.00  0.00     0.004 A 
ATOM     22  C   UNL d   1      29.691  -9.268  -6.466  0.00  0.00     0.036 A 
ATOM     23  C   UNL d   1      28.447  -8.875  -6.950  0.00  0.00     0.066 A 
ATOM     24  C   UNL d   1      27.300  -9.609  -6.659  0.00  0.00     0.053 A 
BRANCH  23  25
ATOM     25  O   UNL d   1      28.294  -7.740  -7.690  0.00  0.00    -0.361 OA
ATOM     26  H   UNL d   1      28.281  -6.971  -7.095  0.00  0.00     0.217 HD
ENDBRANCH  23  25
ENDBRANCH  16  19
ENDBRANCH  13  15
ENDBRANCH   4  13
BRANCH   1  27
ATOM     27  S   UNL d   1      23.245 -18.137  -0.657  0.00  0.00     0.283 S 
ATOM     28  O   UNL d   1      23.770 -17.899   0.674  0.00  0.00    -0.198 OA
ATOM     29  O   UNL d   1      23.723 -19.212  -1.508  0.00  0.00    -0.198 OA
BRANCH  27  30
ATOM     30  C   UNL d   1      21.652 -18.699  -0.272  0.00  0.00     0.081 A 
ATOM     31  C   UNL d   1      21.391 -18.951   1.089  0.00  0.00     0.028 A 
ATOM     32  C   UNL d   1      20.181 -19.513   1.443  0.00  0.00     0.038 A 
ATOM     33  C   UNL d   1      19.232 -19.737   0.448  0.00  0.00     0.068 A 
ATOM     34  C   UNL d   1      19.504 -19.423  -0.896  0.00  0.00     0.038 A 
ATOM     35  C   UNL d   1      20.731 -18.906  -1.269  0.00  0.00     0.028 A 
BRANCH  33  36
ATOM     36  O   UNL d   1      18.018 -20.177   0.890  0.00  0.00    -0.356 OA
ATOM     37  C   UNL d   1      17.952 -21.573   1.139  0.00  0.00     0.210 C 
ENDBRANCH  33  36
ENDBRANCH  27  30
ENDBRANCH   1  27
TORSDOF 7
ENDMDL
