MODEL 1
REMARK VINA RESULT:    -7.941      0.000      0.000
REMARK INTER + INTRA:          -9.721
REMARK INTER:                  -9.432
REMARK INTRA:                  -0.289
REMARK CONF_INDEPENDENT:        1.492
REMARK UNBOUND:                -0.289
REMARK  5 active torsions:
REMARK  status: ('A' for Active; 'I' for Inactive)
REMARK    1  A    between atoms: C_2  and  C_4 
REMARK       I    between atoms: C_4  and  N_6 
REMARK    2  A    between atoms: N_6  and  C_7 
REMARK    3  A    between atoms: C_7  and  C_8 
REMARK    4  A    between atoms: C_8  and  C_9 
REMARK    5  A    between atoms: C_12  and  O_13 
ROOT
ATOM      1  C   UNL d   1      22.875 -17.473  -0.582  0.00  0.00     0.058 C 
ENDROOT
BRANCH   1   2
ATOM      2  C   UNL d   1      22.328 -18.809  -1.103  0.00  0.00     0.127 C 
BRANCH   2   3
ATOM      3  N   UNL d   1      21.555 -19.569  -0.145  0.00  0.00    -0.360 N 
ATOM      4  C   UNL d   1      20.279 -19.970  -0.491  0.00  0.00     0.221 C 
ATOM      5  O   UNL d   1      19.787 -19.700  -1.587  0.00  0.00    -0.273 OA
ATOM      6  H   UNL d   1      21.911 -19.723   0.788  0.00  0.00     0.162 HD
BRANCH   4   7
ATOM      7  C   UNL d   1      19.517 -20.741   0.583  0.00  0.00     0.070 C 
ATOM      8  C   UNL d   1      19.663 -20.039   1.935  0.00  0.00     0.019 C 
ATOM      9  C   UNL d   1      18.037 -20.857   0.231  0.00  0.00     0.019 C 
ENDBRANCH   4   7
ENDBRANCH   2   3
ENDBRANCH   1   2
BRANCH   1  10
ATOM     10  C   UNL d   1      24.391 -17.453  -0.535  0.00  0.00    -0.057 A 
ATOM     11  C   UNL d   1      25.140 -16.709  -1.461  0.00  0.00     0.010 A 
ATOM     12  C   UNL d   1      26.541 -16.671  -1.378  0.00  0.00     0.037 A 
ATOM     13  C   UNL d   1      27.191 -17.383  -0.374  0.00  0.00     0.065 A 
ATOM     14  C   UNL d   1      26.471 -18.151   0.524  0.00  0.00     0.037 A 
ATOM     15  C   UNL d   1      25.085 -18.200   0.431  0.00  0.00     0.010 A 
BRANCH  13  16
ATOM     16  O   UNL d   1      28.545 -17.369  -0.221  0.00  0.00    -0.361 OA
ATOM     17  H   UNL d   1      28.777 -17.822   0.604  0.00  0.00     0.217 HD
ENDBRANCH  13  16
ENDBRANCH   1  10
TORSDOF 5
ENDMDL
MODEL 2
REMARK VINA RESULT:    -7.936      0.088      1.247
REMARK INTER + INTRA:          -9.721
REMARK INTER:                  -9.428
REMARK INTRA:                  -0.293
REMARK CONF_INDEPENDENT:        1.492
REMARK UNBOUND:                -0.293
REMARK  5 active torsions:
REMARK  status: ('A' for Active; 'I' for Inactive)
REMARK    1  A    between atoms: C_2  and  C_4 
REMARK       I    between atoms: C_4  and  N_6 
REMARK    2  A    between atoms: N_6  and  C_7 
REMARK    3  A    between atoms: C_7  and  C_8 
REMARK    4  A    between atoms: C_8  and  C_9 
REMARK    5  A    between atoms: C_12  and  O_13 
ROOT
ATOM      1  C   UNL d   1      22.879 -17.450  -0.548  0.00  0.00     0.058 C 
ENDROOT
BRANCH   1   2
ATOM      2  C   UNL d   1      22.344 -18.792  -1.066  0.00  0.00     0.127 C 
BRANCH   2   3
ATOM      3  N   UNL d   1      21.567 -19.551  -0.111  0.00  0.00    -0.360 N 
ATOM      4  C   UNL d   1      20.295 -19.961  -0.466  0.00  0.00     0.221 C 
ATOM      5  O   UNL d   1      19.812 -19.699  -1.568  0.00  0.00    -0.273 OA
ATOM      6  H   UNL d   1      21.916 -19.699   0.826  0.00  0.00     0.162 HD
BRANCH   4   7
ATOM      7  C   UNL d   1      19.529 -20.729   0.605  0.00  0.00     0.070 C 
ATOM      8  C   UNL d   1      19.639 -20.007   1.950  0.00  0.00     0.019 C 
ATOM      9  C   UNL d   1      18.057 -20.876   0.230  0.00  0.00     0.019 C 
ENDBRANCH   4   7
ENDBRANCH   2   3
ENDBRANCH   1   2
BRANCH   1  10
ATOM     10  C   UNL d   1      24.392 -17.440  -0.435  0.00  0.00    -0.057 A 
ATOM     11  C   UNL d   1      25.055 -18.200   0.542  0.00  0.00     0.010 A 
ATOM     12  C   UNL d   1      26.458 -18.209   0.607  0.00  0.00     0.037 A 
ATOM     13  C   UNL d   1      27.193 -17.451  -0.300  0.00  0.00     0.065 A 
ATOM     14  C   UNL d   1      26.556 -16.668  -1.244  0.00  0.00     0.037 A 
ATOM     15  C   UNL d   1      25.166 -16.649  -1.298  0.00  0.00     0.010 A 
BRANCH  13  16
ATOM     16  O   UNL d   1      28.556 -17.434  -0.308  0.00  0.00    -0.361 OA
ATOM     17  H   UNL d   1      28.880 -17.450   0.605  0.00  0.00     0.217 HD
ENDBRANCH  13  16
ENDBRANCH   1  10
TORSDOF 5
ENDMDL
MODEL 3
REMARK VINA RESULT:    -7.092      0.964      1.551
REMARK INTER + INTRA:          -8.832
REMARK INTER:                  -8.583
REMARK INTRA:                  -0.249
REMARK CONF_INDEPENDENT:        1.492
REMARK UNBOUND:                -0.249
REMARK  5 active torsions:
REMARK  status: ('A' for Active; 'I' for Inactive)
REMARK    1  A    between atoms: C_2  and  C_4 
REMARK       I    between atoms: C_4  and  N_6 
REMARK    2  A    between atoms: N_6  and  C_7 
REMARK    3  A    between atoms: C_7  and  C_8 
REMARK    4  A    between atoms: C_8  and  C_9 
REMARK    5  A    between atoms: C_12  and  O_13 
ROOT
ATOM      1  C   UNL d   1      23.599 -18.919  -0.782  0.00  0.00     0.058 C 
ENDROOT
BRANCH   1   2
ATOM      2  C   UNL d   1      22.214 -18.360  -0.427  0.00  0.00     0.127 C 
BRANCH   2   3
ATOM      3  N   UNL d   1      21.379 -19.242   0.356  0.00  0.00    -0.360 N 
ATOM      4  C   UNL d   1      20.314 -19.871  -0.262  0.00  0.00     0.221 C 
ATOM      5  O   UNL d   1      20.062 -19.700  -1.455  0.00  0.00    -0.273 OA
ATOM      6  H   UNL d   1      21.521 -19.325   1.353  0.00  0.00     0.162 HD
BRANCH   4   7
ATOM      7  C   UNL d   1      19.463 -20.761   0.638  0.00  0.00     0.070 C 
ATOM      8  C   UNL d   1      19.457 -20.211   2.066  0.00  0.00     0.019 C 
ATOM      9  C   UNL d   1      18.029 -20.852   0.125  0.00  0.00     0.019 C 
ENDBRANCH   4   7
ENDBRANCH   2   3
ENDBRANCH   1   2
BRANCH   1  10
ATOM     10  C   UNL d   1      24.695 -17.884  -0.624  0.00  0.00    -0.057 A 
ATOM     11  C   UNL d   1      25.839 -18.143   0.149  0.00  0.00     0.010 A 
ATOM     12  C   UNL d   1      26.861 -17.187   0.252  0.00  0.00     0.037 A 
ATOM     13  C   UNL d   1      26.735 -15.970  -0.411  0.00  0.00     0.065 A 
ATOM     14  C   UNL d   1      25.599 -15.682  -1.145  0.00  0.00     0.037 A 
ATOM     15  C   UNL d   1      24.580 -16.625  -1.235  0.00  0.00     0.010 A 
BRANCH  13  16
ATOM     16  O   UNL d   1      27.700 -15.009  -0.374  0.00  0.00    -0.361 OA
ATOM     17  H   UNL d   1      28.235 -15.063  -1.180  0.00  0.00     0.217 HD
ENDBRANCH  13  16
ENDBRANCH   1  10
TORSDOF 5
ENDMDL
MODEL 4
REMARK VINA RESULT:    -6.504      2.249      6.987
REMARK INTER + INTRA:          -8.285
REMARK INTER:                  -7.996
REMARK INTRA:                  -0.289
REMARK CONF_INDEPENDENT:        1.492
REMARK UNBOUND:                -0.289
REMARK  5 active torsions:
REMARK  status: ('A' for Active; 'I' for Inactive)
REMARK    1  A    between atoms: C_2  and  C_4 
REMARK       I    between atoms: C_4  and  N_6 
REMARK    2  A    between atoms: N_6  and  C_7 
REMARK    3  A    between atoms: C_7  and  C_8 
REMARK    4  A    between atoms: C_8  and  C_9 
REMARK    5  A    between atoms: C_12  and  O_13 
ROOT
ATOM      1  C   UNL d   1      21.963 -18.549   0.556  0.00  0.00     0.058 C 
ENDROOT
BRANCH   1   2
ATOM      2  C   UNL d   1      22.648 -18.835  -0.788  0.00  0.00     0.127 C 
BRANCH   2   3
ATOM      3  N   UNL d   1      23.917 -18.169  -0.982  0.00  0.00    -0.360 N 
ATOM      4  C   UNL d   1      23.935 -16.792  -1.095  0.00  0.00     0.221 C 
ATOM      5  O   UNL d   1      22.904 -16.122  -1.033  0.00  0.00    -0.273 OA
ATOM      6  H   UNL d   1      24.760 -18.711  -1.121  0.00  0.00     0.162 HD
BRANCH   4   7
ATOM      7  C   UNL d   1      25.307 -16.168  -1.328  0.00  0.00     0.070 C 
ATOM      8  C   UNL d   1      26.403 -17.102  -0.808  0.00  0.00     0.019 C 
ATOM      9  C   UNL d   1      25.541 -15.891  -2.810  0.00  0.00     0.019 C 
ENDBRANCH   4   7
ENDBRANCH   2   3
ENDBRANCH   1   2
BRANCH   1  10
ATOM     10  C   UNL d   1      20.688 -19.350   0.732  0.00  0.00    -0.057 A 
ATOM     11  C   UNL d   1      19.874 -19.679  -0.364  0.00  0.00     0.010 A 
ATOM     12  C   UNL d   1      18.718 -20.454  -0.186  0.00  0.00     0.037 A 
ATOM     13  C   UNL d   1      18.373 -20.893   1.089  0.00  0.00     0.065 A 
ATOM     14  C   UNL d   1      19.141 -20.547   2.185  0.00  0.00     0.037 A 
ATOM     15  C   UNL d   1      20.279 -19.767   2.009  0.00  0.00     0.010 A 
BRANCH  13  16
ATOM     16  O   UNL d   1      17.279 -21.669   1.328  0.00  0.00    -0.361 OA
ATOM     17  H   UNL d   1      17.176 -22.306   0.605  0.00  0.00     0.217 HD
ENDBRANCH  13  16
ENDBRANCH   1  10
TORSDOF 5
ENDMDL
MODEL 5
REMARK VINA RESULT:    -6.440      1.892      7.112
REMARK INTER + INTRA:          -8.232
REMARK INTER:                  -7.932
REMARK INTRA:                  -0.300
REMARK CONF_INDEPENDENT:        1.492
REMARK UNBOUND:                -0.300
REMARK  5 active torsions:
REMARK  status: ('A' for Active; 'I' for Inactive)
REMARK    1  A    between atoms: C_2  and  C_4 
REMARK       I    between atoms: C_4  and  N_6 
REMARK    2  A    between atoms: N_6  and  C_7 
REMARK    3  A    between atoms: C_7  and  C_8 
REMARK    4  A    between atoms: C_8  and  C_9 
REMARK    5  A    between atoms: C_12  and  O_13 
ROOT
ATOM      1  C   UNL d   1      21.544 -18.242  -0.728  0.00  0.00     0.058 C 
ENDROOT
BRANCH   1   2
ATOM      2  C   UNL d   1      22.857 -18.968  -1.049  0.00  0.00     0.127 C 
BRANCH   2   3
ATOM      3  N   UNL d   1      23.974 -18.105  -1.362  0.00  0.00    -0.360 N 
ATOM      4  C   UNL d   1      24.991 -17.973  -0.435  0.00  0.00     0.221 C 
ATOM      5  O   UNL d   1      24.971 -18.571   0.642  0.00  0.00    -0.273 OA
ATOM      6  H   UNL d   1      23.963 -17.543  -2.202  0.00  0.00     0.162 HD
BRANCH   4   7
ATOM      7  C   UNL d   1      26.118 -17.022  -0.825  0.00  0.00     0.070 C 
ATOM      8  C   UNL d   1      25.564 -15.611  -1.038  0.00  0.00     0.019 C 
ATOM      9  C   UNL d   1      27.200 -16.983   0.250  0.00  0.00     0.019 C 
ENDBRANCH   4   7
ENDBRANCH   2   3
ENDBRANCH   1   2
BRANCH   1  10
ATOM     10  C   UNL d   1      20.497 -19.175  -0.152  0.00  0.00    -0.057 A 
ATOM     11  C   UNL d   1      20.566 -19.617   1.179  0.00  0.00     0.010 A 
ATOM     12  C   UNL d   1      19.567 -20.450   1.707  0.00  0.00     0.037 A 
ATOM     13  C   UNL d   1      18.504 -20.846   0.900  0.00  0.00     0.065 A 
ATOM     14  C   UNL d   1      18.439 -20.451  -0.423  0.00  0.00     0.037 A 
ATOM     15  C   UNL d   1      19.437 -19.638  -0.949  0.00  0.00     0.010 A 
BRANCH  13  16
ATOM     16  O   UNL d   1      17.488 -21.632   1.356  0.00  0.00    -0.361 OA
ATOM     17  H   UNL d   1      17.202 -22.226   0.646  0.00  0.00     0.217 HD
ENDBRANCH  13  16
ENDBRANCH   1  10
TORSDOF 5
ENDMDL
MODEL 6
REMARK VINA RESULT:    -6.175      2.852      6.725
REMARK INTER + INTRA:          -8.163
REMARK INTER:                  -7.666
REMARK INTRA:                  -0.497
REMARK CONF_INDEPENDENT:        1.492
REMARK UNBOUND:                -0.497
REMARK  5 active torsions:
REMARK  status: ('A' for Active; 'I' for Inactive)
REMARK    1  A    between atoms: C_2  and  C_4 
REMARK       I    between atoms: C_4  and  N_6 
REMARK    2  A    between atoms: N_6  and  C_7 
REMARK    3  A    between atoms: C_7  and  C_8 
REMARK    4  A    between atoms: C_8  and  C_9 
REMARK    5  A    between atoms: C_12  and  O_13 
ROOT
ATOM      1  C   UNL d   1      25.879 -17.724  -0.038  0.00  0.00     0.058 C 
ENDROOT
BRANCH   1   2
ATOM      2  C   UNL d   1      26.582 -16.538  -0.713  0.00  0.00     0.127 C 
BRANCH   2   3
ATOM      3  N   UNL d   1      26.226 -16.323  -2.098  0.00  0.00    -0.360 N 
ATOM      4  C   UNL d   1      25.938 -15.039  -2.518  0.00  0.00     0.221 C 
ATOM      5  O   UNL d   1      25.979 -14.079  -1.747  0.00  0.00    -0.273 OA
ATOM      6  H   UNL d   1      26.104 -17.111  -2.720  0.00  0.00     0.162 HD
BRANCH   4   7
ATOM      7  C   UNL d   1      25.541 -14.898  -3.984  0.00  0.00     0.070 C 
ATOM      8  C   UNL d   1      25.010 -13.487  -4.251  0.00  0.00     0.019 C 
ATOM      9  C   UNL d   1      26.728 -15.173  -4.903  0.00  0.00     0.019 C 
ENDBRANCH   4   7
ENDBRANCH   2   3
ENDBRANCH   1   2
BRANCH   1  10
ATOM     10  C   UNL d   1      24.389 -17.742  -0.316  0.00  0.00    -0.057 A 
ATOM     11  C   UNL d   1      23.677 -16.557  -0.561  0.00  0.00     0.010 A 
ATOM     12  C   UNL d   1      22.305 -16.597  -0.855  0.00  0.00     0.037 A 
ATOM     13  C   UNL d   1      21.645 -17.821  -0.895  0.00  0.00     0.065 A 
ATOM     14  C   UNL d   1      22.322 -18.996  -0.619  0.00  0.00     0.037 A 
ATOM     15  C   UNL d   1      23.678 -18.953  -0.314  0.00  0.00     0.010 A 
BRANCH  13  16
ATOM     16  O   UNL d   1      20.321 -17.934  -1.199  0.00  0.00    -0.361 OA
ATOM     17  H   UNL d   1      20.028 -17.126  -1.646  0.00  0.00     0.217 HD
ENDBRANCH  13  16
ENDBRANCH   1  10
TORSDOF 5
ENDMDL
MODEL 7
REMARK VINA RESULT:    -6.134      2.973      6.722
REMARK INTER + INTRA:          -8.130
REMARK INTER:                  -7.625
REMARK INTRA:                  -0.505
REMARK CONF_INDEPENDENT:        1.492
REMARK UNBOUND:                -0.505
REMARK  5 active torsions:
REMARK  status: ('A' for Active; 'I' for Inactive)
REMARK    1  A    between atoms: C_2  and  C_4 
REMARK       I    between atoms: C_4  and  N_6 
REMARK    2  A    between atoms: N_6  and  C_7 
REMARK    3  A    between atoms: C_7  and  C_8 
REMARK    4  A    between atoms: C_8  and  C_9 
REMARK    5  A    between atoms: C_12  and  O_13 
ROOT
ATOM      1  C   UNL d   1      25.907 -17.583  -0.116  0.00  0.00     0.058 C 
ENDROOT
BRANCH   1   2
ATOM      2  C   UNL d   1      26.680 -16.891  -1.247  0.00  0.00     0.127 C 
BRANCH   2   3
ATOM      3  N   UNL d   1      26.309 -15.515  -1.491  0.00  0.00    -0.360 N 
ATOM      4  C   UNL d   1      25.732 -15.187  -2.703  0.00  0.00     0.221 C 
ATOM      5  O   UNL d   1      25.526 -16.033  -3.574  0.00  0.00    -0.273 OA
ATOM      6  H   UNL d   1      26.550 -14.797  -0.821  0.00  0.00     0.162 HD
BRANCH   4   7
ATOM      7  C   UNL d   1      25.397 -13.712  -2.895  0.00  0.00     0.070 C 
ATOM      8  C   UNL d   1      26.657 -12.860  -2.727  0.00  0.00     0.019 C 
ATOM      9  C   UNL d   1      24.797 -13.459  -4.275  0.00  0.00     0.019 C 
ENDBRANCH   4   7
ENDBRANCH   2   3
ENDBRANCH   1   2
BRANCH   1  10
ATOM     10  C   UNL d   1      24.423 -17.683  -0.411  0.00  0.00    -0.057 A 
ATOM     11  C   UNL d   1      23.783 -18.928  -0.521  0.00  0.00     0.010 A 
ATOM     12  C   UNL d   1      22.401 -19.000  -0.756  0.00  0.00     0.037 A 
ATOM     13  C   UNL d   1      21.663 -17.827  -0.889  0.00  0.00     0.065 A 
ATOM     14  C   UNL d   1      22.283 -16.593  -0.822  0.00  0.00     0.037 A 
ATOM     15  C   UNL d   1      23.655 -16.523  -0.603  0.00  0.00     0.010 A 
BRANCH  13  16
ATOM     16  O   UNL d   1      20.316 -17.826  -1.093  0.00  0.00    -0.361 OA
ATOM     17  H   UNL d   1      20.089 -17.123  -1.721  0.00  0.00     0.217 HD
ENDBRANCH  13  16
ENDBRANCH   1  10
TORSDOF 5
ENDMDL
MODEL 8
REMARK VINA RESULT:    -5.927      3.305      7.304
REMARK INTER + INTRA:          -7.749
REMARK INTER:                  -7.418
REMARK INTRA:                  -0.330
REMARK CONF_INDEPENDENT:        1.492
REMARK UNBOUND:                -0.330
REMARK  5 active torsions:
REMARK  status: ('A' for Active; 'I' for Inactive)
REMARK    1  A    between atoms: C_2  and  C_4 
REMARK       I    between atoms: C_4  and  N_6 
REMARK    2  A    between atoms: N_6  and  C_7 
REMARK    3  A    between atoms: C_7  and  C_8 
REMARK    4  A    between atoms: C_8  and  C_9 
REMARK    5  A    between atoms: C_12  and  O_13 
ROOT
ATOM      1  C   UNL d   1      26.074 -17.848  -0.078  0.00  0.00     0.058 C 
ENDROOT
BRANCH   1   2
ATOM      2  C   UNL d   1      26.719 -16.459  -0.175  0.00  0.00     0.127 C 
BRANCH   2   3
ATOM      3  N   UNL d   1      27.513 -16.071   0.970  0.00  0.00    -0.360 N 
ATOM      4  C   UNL d   1      27.405 -14.779   1.446  0.00  0.00     0.221 C 
ATOM      5  O   UNL d   1      26.652 -13.955   0.925  0.00  0.00    -0.273 OA
ATOM      6  H   UNL d   1      28.198 -16.709   1.354  0.00  0.00     0.162 HD
BRANCH   4   7
ATOM      7  C   UNL d   1      28.296 -14.438   2.636  0.00  0.00     0.070 C 
ATOM      8  C   UNL d   1      29.465 -13.560   2.183  0.00  0.00     0.019 C 
ATOM      9  C   UNL d   1      27.509 -13.711   3.722  0.00  0.00     0.019 C 
ENDBRANCH   4   7
ENDBRANCH   2   3
ENDBRANCH   1   2
BRANCH   1  10
ATOM     10  C   UNL d   1      24.576 -17.803  -0.308  0.00  0.00    -0.057 A 
ATOM     11  C   UNL d   1      23.913 -16.592  -0.563  0.00  0.00     0.010 A 
ATOM     12  C   UNL d   1      22.531 -16.575  -0.811  0.00  0.00     0.037 A 
ATOM     13  C   UNL d   1      21.814 -17.768  -0.797  0.00  0.00     0.065 A 
ATOM     14  C   UNL d   1      22.444 -18.965  -0.510  0.00  0.00     0.037 A 
ATOM     15  C   UNL d   1      23.810 -18.979  -0.250  0.00  0.00     0.010 A 
BRANCH  13  16
ATOM     16  O   UNL d   1      20.477 -17.825  -1.055  0.00  0.00    -0.361 OA
ATOM     17  H   UNL d   1      20.262 -17.198  -1.761  0.00  0.00     0.217 HD
ENDBRANCH  13  16
ENDBRANCH   1  10
TORSDOF 5
ENDMDL
MODEL 9
REMARK VINA RESULT:    -5.772      3.714      7.704
REMARK INTER + INTRA:          -7.516
REMARK INTER:                  -7.263
REMARK INTRA:                  -0.253
REMARK CONF_INDEPENDENT:        1.492
REMARK UNBOUND:                -0.253
REMARK  5 active torsions:
REMARK  status: ('A' for Active; 'I' for Inactive)
REMARK    1  A    between atoms: C_2  and  C_4 
REMARK       I    between atoms: C_4  and  N_6 
REMARK    2  A    between atoms: N_6  and  C_7 
REMARK    3  A    between atoms: C_7  and  C_8 
REMARK    4  A    between atoms: C_8  and  C_9 
REMARK    5  A    between atoms: C_12  and  O_13 
ROOT
ATOM      1  C   UNL d   1      25.653 -15.768  -1.270  0.00  0.00     0.058 C 
ENDROOT
BRANCH   1   2
ATOM      2  C   UNL d   1      25.660 -15.435  -2.769  0.00  0.00     0.127 C 
BRANCH   2   3
ATOM      3  N   UNL d   1      26.954 -15.086  -3.312  0.00  0.00    -0.360 N 
ATOM      4  C   UNL d   1      27.153 -15.194  -4.675  0.00  0.00     0.221 C 
ATOM      5  O   UNL d   1      26.261 -15.575  -5.434  0.00  0.00    -0.273 OA
ATOM      6  H   UNL d   1      27.720 -14.854  -2.694  0.00  0.00     0.162 HD
BRANCH   4   7
ATOM      7  C   UNL d   1      28.551 -14.836  -5.167  0.00  0.00     0.070 C 
ATOM      8  C   UNL d   1      29.490 -16.034  -4.998  0.00  0.00     0.019 C 
ATOM      9  C   UNL d   1      28.528 -14.417  -6.634  0.00  0.00     0.019 C 
ENDBRANCH   4   7
ENDBRANCH   2   3
ENDBRANCH   1   2
BRANCH   1  10
ATOM     10  C   UNL d   1      24.549 -16.740  -0.903  0.00  0.00    -0.057 A 
ATOM     11  C   UNL d   1      24.833 -18.075  -0.571  0.00  0.00     0.010 A 
ATOM     12  C   UNL d   1      23.801 -18.951  -0.196  0.00  0.00     0.037 A 
ATOM     13  C   UNL d   1      22.488 -18.492  -0.160  0.00  0.00     0.065 A 
ATOM     14  C   UNL d   1      22.185 -17.192  -0.520  0.00  0.00     0.037 A 
ATOM     15  C   UNL d   1      23.206 -16.329  -0.906  0.00  0.00     0.010 A 
BRANCH  13  16
ATOM     16  O   UNL d   1      21.444 -19.281   0.219  0.00  0.00    -0.361 OA
ATOM     17  H   UNL d   1      21.779 -20.023   0.745  0.00  0.00     0.217 HD
ENDBRANCH  13  16
ENDBRANCH   1  10
TORSDOF 5
ENDMDL
