MODEL 1
REMARK VINA RESULT:   -10.008      0.000      0.000
REMARK INTER + INTRA:         -15.754
REMARK INTER:                 -13.588
REMARK INTRA:                  -2.166
REMARK CONF_INDEPENDENT:        3.580
REMARK UNBOUND:                -2.166
REMARK  12 active torsions:
REMARK  status: ('A' for Active; 'I' for Inactive)
REMARK    1  A    between atoms: C_2  and  C_3 
REMARK    2  A    between atoms: C_3  and  C_4 
REMARK    3  A    between atoms: C_4  and  O_5 
REMARK    4  A    between atoms: O_5  and  C_6 
REMARK    5  A    between atoms: C_9  and  C_10 
REMARK    6  A    between atoms: C_10  and  C_12 
REMARK    7  A    between atoms: C_13  and  O_14 
REMARK    8  A    between atoms: N_17  and  C_18 
REMARK    9  A    between atoms: C_18  and  C_19 
REMARK   10  A    between atoms: C_19  and  N_20 
REMARK   11  A    between atoms: C_23  and  C_24 
REMARK   12  A    between atoms: C_28  and  N_29 
ROOT
ATOM      1  C   UNL d   1      28.664 -13.517   3.416  0.00  0.00     0.054 C 
ATOM      2  C   UNL d   1      28.805 -14.248   4.542  0.00  0.00     0.140 C 
ATOM      3  C   UNL d   1      28.517 -13.373   5.686  0.00  0.00     0.258 C 
ATOM      4  O   UNL d   1      27.432 -13.148   6.186  0.00  0.00    -0.272 OA
ATOM      5  N   UNL d   1      29.451 -12.327   5.553  0.00  0.00    -0.232 NA
ATOM      6  C   UNL d   1      28.656 -12.003   3.932  0.00  0.00     0.139 C 
ENDROOT
BRANCH   1   7
ATOM      7  C   UNL d   1      28.869 -14.306   2.108  0.00  0.00     0.193 C 
ATOM      8  O   UNL d   1      30.028 -14.506   1.744  0.00  0.00    -0.287 OA
BRANCH   7   9
ATOM      9  C   UNL d   1      27.782 -14.983   1.278  0.00  0.00     0.015 C 
ATOM     10  C   UNL d   1      26.792 -14.247   0.671  0.00  0.00     0.018 C 
ATOM     11  C   UNL d   1      25.908 -14.780  -0.292  0.00  0.00     0.038 C 
ATOM     12  C   UNL d   1      25.911 -16.110  -0.621  0.00  0.00     0.074 C 
ATOM     13  C   UNL d   1      26.646 -16.932   0.230  0.00  0.00    -0.028 C 
ATOM     14  C   UNL d   1      27.607 -16.376   1.148  0.00  0.00     0.025 C 
ATOM     15  C   UNL d   1      26.309 -18.391   0.222  0.00  0.00     0.051 C 
BRANCH  12  16
ATOM     16  O   UNL d   1      25.052 -16.638  -1.552  0.00  0.00    -0.351 OA
BRANCH  16  17
ATOM     17  C   UNL d   1      23.640 -16.505  -1.273  0.00  0.00     0.175 C 
BRANCH  17  18
ATOM     18  C   UNL d   1      23.215 -17.601  -0.288  0.00  0.00     0.026 C 
BRANCH  18  19
ATOM     19  C   UNL d   1      22.468 -18.758  -0.961  0.00  0.00    -0.002 C 
ATOM     20  C   UNL d   1      21.368 -19.292  -0.053  0.00  0.00     0.005 C 
ENDBRANCH  18  19
ENDBRANCH  17  18
ENDBRANCH  16  17
ENDBRANCH  12  16
ENDBRANCH   7   9
ENDBRANCH   1   7
BRANCH   2  21
ATOM     21  O   UNL d   1      29.570 -15.366   4.732  0.00  0.00    -0.356 OA
ATOM     22  H   UNL d   1      29.955 -15.590   3.855  0.00  0.00     0.218 HD
ENDBRANCH   2  21
BRANCH   6  23
ATOM     23  C   UNL d   1      28.294 -10.892   2.630  0.00  0.00    -0.033 C 
ATOM     24  C   UNL d   1      28.005 -11.326   1.297  0.00  0.00     0.009 C 
ATOM     25  C   UNL d   1      27.320 -10.506   0.296  0.00  0.00     0.003 C 
ATOM     26  C   UNL d   1      26.865  -9.199   0.532  0.00  0.00     0.036 C 
ATOM     27  C   UNL d   1      26.937  -8.735   1.846  0.00  0.00     0.103 C 
ATOM     28  C   UNL d   1      27.608  -9.566   2.874  0.00  0.00     0.045 C 
BRANCH  27  29
ATOM     29  N   UNL d   1      26.060  -7.527   2.138  0.00  0.00    -0.116 N 
ATOM     30  O   UNL d   1      25.159  -7.234   1.356  0.00  0.00    -0.532 OA
ATOM     31  O   UNL d   1      26.280  -6.910   3.214  0.00  0.00    -0.532 OA
ENDBRANCH  27  29
ENDBRANCH   6  23
BRANCH   5  32
ATOM     32  C   UNL d   1      29.666 -12.063   7.315  0.00  0.00     0.127 C 
BRANCH  32  33
ATOM     33  C   UNL d   1      31.162 -12.202   8.430  0.00  0.00     0.248 C 
BRANCH  33  34
ATOM     34  N   UNL d   1      32.678 -12.308   7.572  0.00  0.00    -0.078 N 
ATOM     35  C   UNL d   1      32.741 -11.443   6.334  0.00  0.00     0.269 C 
ATOM     36  C   UNL d   1      34.018 -12.020   8.336  0.00  0.00     0.269 C 
ATOM     37  H   UNL d   1      32.769 -13.289   7.285  0.00  0.00     0.279 HD
ENDBRANCH  33  34
ENDBRANCH  32  33
ENDBRANCH   5  32
TORSDOF 12
ENDMDL
MODEL 2
REMARK VINA RESULT:    -9.983      1.235      2.023
REMARK INTER + INTRA:         -15.902
REMARK INTER:                 -13.562
REMARK INTRA:                  -2.339
REMARK CONF_INDEPENDENT:        3.580
REMARK UNBOUND:                -2.339
REMARK  12 active torsions:
REMARK  status: ('A' for Active; 'I' for Inactive)
REMARK    1  A    between atoms: C_2  and  C_3 
REMARK    2  A    between atoms: C_3  and  C_4 
REMARK    3  A    between atoms: C_4  and  O_5 
REMARK    4  A    between atoms: O_5  and  C_6 
REMARK    5  A    between atoms: C_9  and  C_10 
REMARK    6  A    between atoms: C_10  and  C_12 
REMARK    7  A    between atoms: C_13  and  O_14 
REMARK    8  A    between atoms: N_17  and  C_18 
REMARK    9  A    between atoms: C_18  and  C_19 
REMARK   10  A    between atoms: C_19  and  N_20 
REMARK   11  A    between atoms: C_23  and  C_24 
REMARK   12  A    between atoms: C_28  and  N_29 
ROOT
ATOM      1  C   UNL d   1      28.509 -13.687   3.429  0.00  0.00     0.054 C 
ATOM      2  C   UNL d   1      28.548 -14.448   4.543  0.00  0.00     0.140 C 
ATOM      3  C   UNL d   1      28.157 -13.604   5.680  0.00  0.00     0.258 C 
ATOM      4  O   UNL d   1      27.030 -13.392   6.085  0.00  0.00    -0.272 OA
ATOM      5  N   UNL d   1      29.097 -12.555   5.660  0.00  0.00    -0.232 NA
ATOM      6  C   UNL d   1      28.451 -12.187   3.983  0.00  0.00     0.139 C 
ENDROOT
BRANCH   1   7
ATOM      7  C   UNL d   1      28.833 -14.441   2.125  0.00  0.00     0.193 C 
ATOM      8  O   UNL d   1      29.996 -14.807   1.958  0.00  0.00    -0.287 OA
BRANCH   7   9
ATOM      9  C   UNL d   1      27.830 -14.899   1.069  0.00  0.00     0.015 C 
ATOM     10  C   UNL d   1      27.405 -16.205   1.016  0.00  0.00     0.018 C 
ATOM     11  C   UNL d   1      26.315 -16.635   0.227  0.00  0.00     0.038 C 
ATOM     12  C   UNL d   1      25.660 -15.787  -0.627  0.00  0.00     0.074 C 
ATOM     13  C   UNL d   1      26.294 -14.569  -0.858  0.00  0.00    -0.028 C 
ATOM     14  C   UNL d   1      27.347 -14.106   0.009  0.00  0.00     0.025 C 
ATOM     15  C   UNL d   1      25.908 -13.829  -2.102  0.00  0.00     0.051 C 
BRANCH  12  16
ATOM     16  O   UNL d   1      24.604 -16.198  -1.401  0.00  0.00    -0.351 OA
BRANCH  16  17
ATOM     17  C   UNL d   1      24.184 -17.572  -1.241  0.00  0.00     0.175 C 
BRANCH  17  18
ATOM     18  C   UNL d   1      22.735 -17.600  -0.739  0.00  0.00     0.026 C 
BRANCH  18  19
ATOM     19  C   UNL d   1      22.331 -18.955  -0.145  0.00  0.00    -0.002 C 
ATOM     20  C   UNL d   1      20.890 -19.295  -0.504  0.00  0.00     0.005 C 
ENDBRANCH  18  19
ENDBRANCH  17  18
ENDBRANCH  16  17
ENDBRANCH  12  16
ENDBRANCH   7   9
ENDBRANCH   1   7
BRANCH   2  21
ATOM     21  O   UNL d   1      29.295 -15.571   4.773  0.00  0.00    -0.356 OA
ATOM     22  H   UNL d   1      29.865 -15.691   3.979  0.00  0.00     0.218 HD
ENDBRANCH   2  21
BRANCH   6  23
ATOM     23  C   UNL d   1      28.207 -11.042   2.684  0.00  0.00    -0.033 C 
ATOM     24  C   UNL d   1      28.020 -11.440   1.322  0.00  0.00     0.009 C 
ATOM     25  C   UNL d   1      27.427 -10.588   0.289  0.00  0.00     0.003 C 
ATOM     26  C   UNL d   1      26.969  -9.282   0.520  0.00  0.00     0.036 C 
ATOM     27  C   UNL d   1      26.941  -8.849   1.846  0.00  0.00     0.103 C 
ATOM     28  C   UNL d   1      27.519  -9.712   2.904  0.00  0.00     0.045 C 
BRANCH  27  29
ATOM     29  N   UNL d   1      26.057  -7.637   2.097  0.00  0.00    -0.116 N 
ATOM     30  O   UNL d   1      26.280  -6.922   3.071  0.00  0.00    -0.532 OA
ATOM     31  O   UNL d   1      25.156  -7.402   1.249  0.00  0.00    -0.532 OA
ENDBRANCH  27  29
ENDBRANCH   6  23
BRANCH   5  32
ATOM     32  C   UNL d   1      29.151 -12.338   7.441  0.00  0.00     0.127 C 
BRANCH  32  33
ATOM     33  C   UNL d   1      30.357 -12.935   8.740  0.00  0.00     0.248 C 
BRANCH  33  34
ATOM     34  N   UNL d   1      30.186 -14.625   9.142  0.00  0.00    -0.078 N 
ATOM     35  C   UNL d   1      31.438 -15.246   9.715  0.00  0.00     0.269 C 
ATOM     36  C   UNL d   1      29.033 -15.075  10.105  0.00  0.00     0.269 C 
ATOM     37  H   UNL d   1      29.964 -15.101   8.260  0.00  0.00     0.279 HD
ENDBRANCH  33  34
ENDBRANCH  32  33
ENDBRANCH   5  32
TORSDOF 12
ENDMDL
MODEL 3
REMARK VINA RESULT:    -9.825      3.229      5.292
REMARK INTER + INTRA:         -15.937
REMARK INTER:                 -13.405
REMARK INTRA:                  -2.532
REMARK CONF_INDEPENDENT:        3.580
REMARK UNBOUND:                -2.532
REMARK  12 active torsions:
REMARK  status: ('A' for Active; 'I' for Inactive)
REMARK    1  A    between atoms: C_2  and  C_3 
REMARK    2  A    between atoms: C_3  and  C_4 
REMARK    3  A    between atoms: C_4  and  O_5 
REMARK    4  A    between atoms: O_5  and  C_6 
REMARK    5  A    between atoms: C_9  and  C_10 
REMARK    6  A    between atoms: C_10  and  C_12 
REMARK    7  A    between atoms: C_13  and  O_14 
REMARK    8  A    between atoms: N_17  and  C_18 
REMARK    9  A    between atoms: C_18  and  C_19 
REMARK   10  A    between atoms: C_19  and  N_20 
REMARK   11  A    between atoms: C_23  and  C_24 
REMARK   12  A    between atoms: C_28  and  N_29 
ROOT
ATOM      1  C   UNL d   1      28.207 -14.417   0.166  0.00  0.00     0.054 C 
ATOM      2  C   UNL d   1      28.967 -14.319   1.276  0.00  0.00     0.140 C 
ATOM      3  C   UNL d   1      29.097 -12.894   1.609  0.00  0.00     0.258 C 
ATOM      4  O   UNL d   1      28.342 -12.225   2.288  0.00  0.00    -0.272 OA
ATOM      5  N   UNL d   1      29.677 -12.331   0.457  0.00  0.00    -0.232 NA
ATOM      6  C   UNL d   1      28.186 -12.931  -0.426  0.00  0.00     0.139 C 
ENDROOT
BRANCH   1   7
ATOM      7  C   UNL d   1      27.915 -15.861  -0.288  0.00  0.00     0.193 C 
ATOM      8  O   UNL d   1      28.879 -16.559  -0.602  0.00  0.00    -0.287 OA
BRANCH   7   9
ATOM      9  C   UNL d   1      26.560 -16.563  -0.264  0.00  0.00     0.015 C 
ATOM     10  C   UNL d   1      26.468 -17.916  -0.042  0.00  0.00     0.018 C 
ATOM     11  C   UNL d   1      25.249 -18.577   0.226  0.00  0.00     0.038 C 
ATOM     12  C   UNL d   1      24.045 -17.924   0.184  0.00  0.00     0.074 C 
ATOM     13  C   UNL d   1      24.078 -16.653  -0.388  0.00  0.00    -0.028 C 
ATOM     14  C   UNL d   1      25.326 -15.958  -0.574  0.00  0.00     0.025 C 
ATOM     15  C   UNL d   1      22.780 -16.104  -0.894  0.00  0.00     0.051 C 
BRANCH  12  16
ATOM     16  O   UNL d   1      22.856 -18.559   0.436  0.00  0.00    -0.351 OA
BRANCH  16  17
ATOM     17  C   UNL d   1      22.265 -19.283  -0.667  0.00  0.00     0.175 C 
BRANCH  17  18
ATOM     18  C   UNL d   1      20.737 -19.208  -0.557  0.00  0.00     0.026 C 
BRANCH  18  19
ATOM     19  C   UNL d   1      20.162 -20.176   0.483  0.00  0.00    -0.002 C 
ATOM     20  C   UNL d   1      18.691 -20.457   0.206  0.00  0.00     0.005 C 
ENDBRANCH  18  19
ENDBRANCH  17  18
ENDBRANCH  16  17
ENDBRANCH  12  16
ENDBRANCH   7   9
ENDBRANCH   1   7
BRANCH   2  21
ATOM     21  O   UNL d   1      29.907 -15.199   1.736  0.00  0.00    -0.356 OA
ATOM     22  H   UNL d   1      29.553 -16.100   1.559  0.00  0.00     0.218 HD
ENDBRANCH   2  21
BRANCH   6  23
ATOM     23  C   UNL d   1      27.089 -12.805  -1.782  0.00  0.00    -0.033 C 
ATOM     24  C   UNL d   1      26.863 -11.580  -2.487  0.00  0.00     0.009 C 
ATOM     25  C   UNL d   1      26.292 -11.499  -3.833  0.00  0.00     0.003 C 
ATOM     26  C   UNL d   1      25.904 -12.616  -4.588  0.00  0.00     0.036 C 
ATOM     27  C   UNL d   1      26.236 -13.870  -4.074  0.00  0.00     0.103 C 
ATOM     28  C   UNL d   1      26.835 -13.964  -2.720  0.00  0.00     0.045 C 
BRANCH  27  29
ATOM     29  N   UNL d   1      26.197 -15.001  -5.089  0.00  0.00    -0.116 N 
ATOM     30  O   UNL d   1      25.156 -15.633  -5.246  0.00  0.00    -0.532 OA
ATOM     31  O   UNL d   1      27.244 -15.200  -5.762  0.00  0.00    -0.532 OA
ENDBRANCH  27  29
ENDBRANCH   6  23
BRANCH   5  32
ATOM     32  C   UNL d   1      30.631 -11.088   1.334  0.00  0.00     0.127 C 
BRANCH  32  33
ATOM     33  C   UNL d   1      32.015 -11.221   2.584  0.00  0.00     0.248 C 
BRANCH  33  34
ATOM     34  N   UNL d   1      31.967 -12.681   3.540  0.00  0.00    -0.078 N 
ATOM     35  C   UNL d   1      30.670 -12.878   4.290  0.00  0.00     0.269 C 
ATOM     36  C   UNL d   1      32.251 -14.062   2.853  0.00  0.00     0.269 C 
ATOM     37  H   UNL d   1      32.726 -12.591   4.226  0.00  0.00     0.279 HD
ENDBRANCH  33  34
ENDBRANCH  32  33
ENDBRANCH   5  32
TORSDOF 12
ENDMDL
MODEL 4
REMARK VINA RESULT:    -9.553      3.791      7.834
REMARK INTER + INTRA:         -15.833
REMARK INTER:                 -13.133
REMARK INTRA:                  -2.700
REMARK CONF_INDEPENDENT:        3.580
REMARK UNBOUND:                -2.700
REMARK  12 active torsions:
REMARK  status: ('A' for Active; 'I' for Inactive)
REMARK    1  A    between atoms: C_2  and  C_3 
REMARK    2  A    between atoms: C_3  and  C_4 
REMARK    3  A    between atoms: C_4  and  O_5 
REMARK    4  A    between atoms: O_5  and  C_6 
REMARK    5  A    between atoms: C_9  and  C_10 
REMARK    6  A    between atoms: C_10  and  C_12 
REMARK    7  A    between atoms: C_13  and  O_14 
REMARK    8  A    between atoms: N_17  and  C_18 
REMARK    9  A    between atoms: C_18  and  C_19 
REMARK   10  A    between atoms: C_19  and  N_20 
REMARK   11  A    between atoms: C_23  and  C_24 
REMARK   12  A    between atoms: C_28  and  N_29 
ROOT
ATOM      1  C   UNL d   1      26.135 -13.424  -3.166  0.00  0.00     0.054 C 
ATOM      2  C   UNL d   1      26.102 -12.606  -4.239  0.00  0.00     0.140 C 
ATOM      3  C   UNL d   1      26.871 -11.399  -3.909  0.00  0.00     0.258 C 
ATOM      4  O   UNL d   1      28.067 -11.229  -4.045  0.00  0.00    -0.272 OA
ATOM      5  N   UNL d   1      26.221 -10.888  -2.769  0.00  0.00    -0.232 NA
ATOM      6  C   UNL d   1      26.645 -12.486  -1.975  0.00  0.00     0.139 C 
ENDROOT
BRANCH   1   7
ATOM      7  C   UNL d   1      25.425 -14.777  -3.367  0.00  0.00     0.193 C 
ATOM      8  O   UNL d   1      25.327 -15.198  -4.520  0.00  0.00    -0.287 OA
BRANCH   7   9
ATOM      9  C   UNL d   1      24.942 -15.720  -2.269  0.00  0.00     0.015 C 
ATOM     10  C   UNL d   1      23.685 -15.591  -1.727  0.00  0.00     0.018 C 
ATOM     11  C   UNL d   1      23.098 -16.564  -0.889  0.00  0.00     0.038 C 
ATOM     12  C   UNL d   1      23.787 -17.673  -0.472  0.00  0.00     0.074 C 
ATOM     13  C   UNL d   1      25.159 -17.644  -0.708  0.00  0.00    -0.028 C 
ATOM     14  C   UNL d   1      25.731 -16.699  -1.632  0.00  0.00     0.025 C 
ATOM     15  C   UNL d   1      26.010 -18.556   0.123  0.00  0.00     0.051 C 
BRANCH  12  16
ATOM     16  O   UNL d   1      23.226 -18.621   0.347  0.00  0.00    -0.351 OA
BRANCH  16  17
ATOM     17  C   UNL d   1      21.783 -18.623   0.435  0.00  0.00     0.175 C 
BRANCH  17  18
ATOM     18  C   UNL d   1      21.198 -19.108  -0.897  0.00  0.00     0.026 C 
BRANCH  18  19
ATOM     19  C   UNL d   1      19.688 -19.366  -0.831  0.00  0.00    -0.002 C 
ATOM     20  C   UNL d   1      19.260 -19.709   0.590  0.00  0.00     0.005 C 
ENDBRANCH  18  19
ENDBRANCH  17  18
ENDBRANCH  16  17
ENDBRANCH  12  16
ENDBRANCH   7   9
ENDBRANCH   1   7
BRANCH   2  21
ATOM     21  O   UNL d   1      25.156 -12.546  -5.225  0.00  0.00    -0.356 OA
ATOM     22  H   UNL d   1      24.834 -13.467  -5.356  0.00  0.00     0.218 HD
ENDBRANCH   2  21
BRANCH   6  23
ATOM     23  C   UNL d   1      26.936 -13.412  -0.520  0.00  0.00    -0.033 C 
ATOM     24  C   UNL d   1      27.945 -14.422  -0.431  0.00  0.00     0.009 C 
ATOM     25  C   UNL d   1      28.493 -14.930   0.829  0.00  0.00     0.003 C 
ATOM     26  C   UNL d   1      28.092 -14.478   2.096  0.00  0.00     0.036 C 
ATOM     27  C   UNL d   1      27.240 -13.373   2.130  0.00  0.00     0.103 C 
ATOM     28  C   UNL d   1      26.696 -12.836   0.859  0.00  0.00     0.045 C 
BRANCH  27  29
ATOM     29  N   UNL d   1      27.181 -12.661   3.472  0.00  0.00    -0.116 N 
ATOM     30  O   UNL d   1      27.267 -13.319   4.506  0.00  0.00    -0.532 OA
ATOM     31  O   UNL d   1      27.092 -11.405   3.448  0.00  0.00    -0.532 OA
ENDBRANCH  27  29
ENDBRANCH   6  23
BRANCH   5  32
ATOM     32  C   UNL d   1      26.522  -9.161  -3.159  0.00  0.00     0.127 C 
BRANCH  32  33
ATOM     33  C   UNL d   1      25.994  -8.092  -4.600  0.00  0.00     0.248 C 
BRANCH  33  34
ATOM     34  N   UNL d   1      24.406  -7.391  -4.418  0.00  0.00    -0.078 N 
ATOM     35  C   UNL d   1      24.405  -5.881  -4.374  0.00  0.00     0.269 C 
ATOM     36  C   UNL d   1      23.276  -7.767  -5.440  0.00  0.00     0.269 C 
ATOM     37  H   UNL d   1      24.047  -7.741  -3.522  0.00  0.00     0.279 HD
ENDBRANCH  33  34
ENDBRANCH  32  33
ENDBRANCH   5  32
TORSDOF 12
ENDMDL
MODEL 5
REMARK VINA RESULT:    -9.266      1.773      2.671
REMARK INTER + INTRA:         -15.364
REMARK INTER:                 -12.845
REMARK INTRA:                  -2.519
REMARK CONF_INDEPENDENT:        3.580
REMARK UNBOUND:                -2.519
REMARK  12 active torsions:
REMARK  status: ('A' for Active; 'I' for Inactive)
REMARK    1  A    between atoms: C_2  and  C_3 
REMARK    2  A    between atoms: C_3  and  C_4 
REMARK    3  A    between atoms: C_4  and  O_5 
REMARK    4  A    between atoms: O_5  and  C_6 
REMARK    5  A    between atoms: C_9  and  C_10 
REMARK    6  A    between atoms: C_10  and  C_12 
REMARK    7  A    between atoms: C_13  and  O_14 
REMARK    8  A    between atoms: N_17  and  C_18 
REMARK    9  A    between atoms: C_18  and  C_19 
REMARK   10  A    between atoms: C_19  and  N_20 
REMARK   11  A    between atoms: C_23  and  C_24 
REMARK   12  A    between atoms: C_28  and  N_29 
ROOT
ATOM      1  C   UNL d   1      28.618 -13.649   3.533  0.00  0.00     0.054 C 
ATOM      2  C   UNL d   1      28.654 -14.420   4.640  0.00  0.00     0.140 C 
ATOM      3  C   UNL d   1      28.330 -13.568   5.793  0.00  0.00     0.258 C 
ATOM      4  O   UNL d   1      27.225 -13.312   6.229  0.00  0.00    -0.272 OA
ATOM      5  N   UNL d   1      29.313 -12.561   5.754  0.00  0.00    -0.232 NA
ATOM      6  C   UNL d   1      28.640 -12.153   4.098  0.00  0.00     0.139 C 
ENDROOT
BRANCH   1   7
ATOM      7  C   UNL d   1      28.874 -14.406   2.215  0.00  0.00     0.193 C 
ATOM      8  O   UNL d   1      30.023 -14.790   1.999  0.00  0.00    -0.287 OA
BRANCH   7   9
ATOM      9  C   UNL d   1      27.820 -14.845   1.202  0.00  0.00     0.015 C 
ATOM     10  C   UNL d   1      27.090 -13.921   0.494  0.00  0.00     0.018 C 
ATOM     11  C   UNL d   1      26.281 -14.256  -0.614  0.00  0.00     0.038 C 
ATOM     12  C   UNL d   1      26.086 -15.555  -1.004  0.00  0.00     0.074 C 
ATOM     13  C   UNL d   1      26.516 -16.519  -0.094  0.00  0.00    -0.028 C 
ATOM     14  C   UNL d   1      27.411 -16.175   0.981  0.00  0.00     0.025 C 
ATOM     15  C   UNL d   1      25.918 -17.886  -0.223  0.00  0.00     0.051 C 
BRANCH  12  16
ATOM     16  O   UNL d   1      25.297 -15.890  -2.075  0.00  0.00    -0.351 OA
BRANCH  16  17
ATOM     17  C   UNL d   1      24.828 -14.796  -2.896  0.00  0.00     0.175 C 
BRANCH  17  18
ATOM     18  C   UNL d   1      25.569 -14.822  -4.239  0.00  0.00     0.026 C 
BRANCH  18  19
ATOM     19  C   UNL d   1      26.238 -13.486  -4.582  0.00  0.00    -0.002 C 
ATOM     20  C   UNL d   1      25.576 -12.340  -3.828  0.00  0.00     0.005 C 
ENDBRANCH  18  19
ENDBRANCH  17  18
ENDBRANCH  16  17
ENDBRANCH  12  16
ENDBRANCH   7   9
ENDBRANCH   1   7
BRANCH   2  21
ATOM     21  O   UNL d   1      29.358 -15.575   4.842  0.00  0.00    -0.356 OA
ATOM     22  H   UNL d   1      29.810 -15.776   3.990  0.00  0.00     0.218 HD
ENDBRANCH   2  21
BRANCH   6  23
ATOM     23  C   UNL d   1      28.411 -10.987   2.814  0.00  0.00    -0.033 C 
ATOM     24  C   UNL d   1      28.541 -11.323   1.429  0.00  0.00     0.009 C 
ATOM     25  C   UNL d   1      27.985 -10.526   0.333  0.00  0.00     0.003 C 
ATOM     26  C   UNL d   1      27.253  -9.342   0.519  0.00  0.00     0.036 C 
ATOM     27  C   UNL d   1      26.915  -9.010   1.831  0.00  0.00     0.103 C 
ATOM     28  C   UNL d   1      27.455  -9.822   2.948  0.00  0.00     0.045 C 
BRANCH  27  29
ATOM     29  N   UNL d   1      25.787  -7.998   1.956  0.00  0.00    -0.116 N 
ATOM     30  O   UNL d   1      24.803  -8.101   1.228  0.00  0.00    -0.532 OA
ATOM     31  O   UNL d   1      25.906  -7.119   2.850  0.00  0.00    -0.532 OA
ENDBRANCH  27  29
ENDBRANCH   6  23
BRANCH   5  32
ATOM     32  C   UNL d   1      29.425 -12.361   7.535  0.00  0.00     0.127 C 
BRANCH  32  33
ATOM     33  C   UNL d   1      28.919 -13.468   8.955  0.00  0.00     0.248 C 
BRANCH  33  34
ATOM     34  N   UNL d   1      30.035 -14.772   9.269  0.00  0.00    -0.078 N 
ATOM     35  C   UNL d   1      31.455 -14.478   8.842  0.00  0.00     0.269 C 
ATOM     36  C   UNL d   1      30.160 -15.346  10.724  0.00  0.00     0.269 C 
ATOM     37  H   UNL d   1      29.693 -15.571   8.722  0.00  0.00     0.279 HD
ENDBRANCH  33  34
ENDBRANCH  32  33
ENDBRANCH   5  32
TORSDOF 12
ENDMDL
MODEL 6
REMARK VINA RESULT:    -9.153      4.744      8.006
REMARK INTER + INTRA:         -15.382
REMARK INTER:                 -12.733
REMARK INTRA:                  -2.650
REMARK CONF_INDEPENDENT:        3.580
REMARK UNBOUND:                -2.650
REMARK  12 active torsions:
REMARK  status: ('A' for Active; 'I' for Inactive)
REMARK    1  A    between atoms: C_2  and  C_3 
REMARK    2  A    between atoms: C_3  and  C_4 
REMARK    3  A    between atoms: C_4  and  O_5 
REMARK    4  A    between atoms: O_5  and  C_6 
REMARK    5  A    between atoms: C_9  and  C_10 
REMARK    6  A    between atoms: C_10  and  C_12 
REMARK    7  A    between atoms: C_13  and  O_14 
REMARK    8  A    between atoms: N_17  and  C_18 
REMARK    9  A    between atoms: C_18  and  C_19 
REMARK   10  A    between atoms: C_19  and  N_20 
REMARK   11  A    between atoms: C_23  and  C_24 
REMARK   12  A    between atoms: C_28  and  N_29 
ROOT
ATOM      1  C   UNL d   1      27.234 -14.447  -3.773  0.00  0.00     0.054 C 
ATOM      2  C   UNL d   1      27.939 -14.790  -4.871  0.00  0.00     0.140 C 
ATOM      3  C   UNL d   1      29.237 -14.107  -4.806  0.00  0.00     0.258 C 
ATOM      4  O   UNL d   1      30.248 -14.500  -4.258  0.00  0.00    -0.272 OA
ATOM      5  N   UNL d   1      28.896 -12.742  -4.739  0.00  0.00    -0.232 NA
ATOM      6  C   UNL d   1      28.013 -13.176  -3.191  0.00  0.00     0.139 C 
ENDROOT
BRANCH   1   7
ATOM      7  C   UNL d   1      25.860 -15.133  -3.650  0.00  0.00     0.193 C 
ATOM      8  O   UNL d   1      25.155 -15.170  -4.659  0.00  0.00    -0.287 OA
BRANCH   7   9
ATOM      9  C   UNL d   1      25.330 -15.892  -2.437  0.00  0.00     0.015 C 
ATOM     10  C   UNL d   1      24.062 -15.665  -1.958  0.00  0.00     0.018 C 
ATOM     11  C   UNL d   1      23.434 -16.492  -1.001  0.00  0.00     0.038 C 
ATOM     12  C   UNL d   1      24.091 -17.534  -0.401  0.00  0.00     0.074 C 
ATOM     13  C   UNL d   1      25.470 -17.560  -0.597  0.00  0.00    -0.028 C 
ATOM     14  C   UNL d   1      26.084 -16.774  -1.637  0.00  0.00     0.025 C 
ATOM     15  C   UNL d   1      26.281 -18.347   0.386  0.00  0.00     0.051 C 
BRANCH  12  16
ATOM     16  O   UNL d   1      23.491 -18.339   0.535  0.00  0.00    -0.351 OA
BRANCH  16  17
ATOM     17  C   UNL d   1      22.068 -18.545   0.389  0.00  0.00     0.175 C 
BRANCH  17  18
ATOM     18  C   UNL d   1      21.763 -18.953  -1.057  0.00  0.00     0.026 C 
BRANCH  18  19
ATOM     19  C   UNL d   1      20.349 -19.519  -1.236  0.00  0.00    -0.002 C 
ATOM     20  C   UNL d   1      19.525 -19.326   0.030  0.00  0.00     0.005 C 
ENDBRANCH  18  19
ENDBRANCH  17  18
ENDBRANCH  16  17
ENDBRANCH  12  16
ENDBRANCH   7   9
ENDBRANCH   1   7
BRANCH   2  21
ATOM     21  O   UNL d   1      27.462 -15.201  -6.086  0.00  0.00    -0.356 OA
ATOM     22  H   UNL d   1      26.556 -15.550  -5.923  0.00  0.00     0.218 HD
ENDBRANCH   2  21
BRANCH   6  23
ATOM     23  C   UNL d   1      27.358 -12.685  -1.645  0.00  0.00    -0.033 C 
ATOM     24  C   UNL d   1      27.130 -13.603  -0.572  0.00  0.00     0.009 C 
ATOM     25  C   UNL d   1      26.974 -13.208   0.830  0.00  0.00     0.003 C 
ATOM     26  C   UNL d   1      27.035 -11.880   1.280  0.00  0.00     0.036 C 
ATOM     27  C   UNL d   1      27.425 -10.917   0.350  0.00  0.00     0.103 C 
ATOM     28  C   UNL d   1      27.607 -11.308  -1.069  0.00  0.00     0.045 C 
BRANCH  27  29
ATOM     29  N   UNL d   1      27.893  -9.604   0.957  0.00  0.00    -0.116 N 
ATOM     30  O   UNL d   1      28.815  -8.990   0.426  0.00  0.00    -0.532 OA
ATOM     31  O   UNL d   1      27.264  -9.185   1.966  0.00  0.00    -0.532 OA
ENDBRANCH  27  29
ENDBRANCH   6  23
BRANCH   5  32
ATOM     32  C   UNL d   1      30.321 -12.162  -5.664  0.00  0.00     0.127 C 
BRANCH  32  33
ATOM     33  C   UNL d   1      30.758 -12.253  -7.480  0.00  0.00     0.248 C 
BRANCH  33  34
ATOM     34  N   UNL d   1      29.414 -12.673  -8.512  0.00  0.00    -0.078 N 
ATOM     35  C   UNL d   1      28.070 -12.247  -7.968  0.00  0.00     0.269 C 
ATOM     36  C   UNL d   1      29.414 -12.201 -10.008  0.00  0.00     0.269 C 
ATOM     37  H   UNL d   1      29.425 -13.697  -8.581  0.00  0.00     0.279 HD
ENDBRANCH  33  34
ENDBRANCH  32  33
ENDBRANCH   5  32
TORSDOF 12
ENDMDL
MODEL 7
REMARK VINA RESULT:    -9.138      5.185      8.263
REMARK INTER + INTRA:         -15.276
REMARK INTER:                 -12.718
REMARK INTRA:                  -2.558
REMARK CONF_INDEPENDENT:        3.580
REMARK UNBOUND:                -2.558
REMARK  12 active torsions:
REMARK  status: ('A' for Active; 'I' for Inactive)
REMARK    1  A    between atoms: C_2  and  C_3 
REMARK    2  A    between atoms: C_3  and  C_4 
REMARK    3  A    between atoms: C_4  and  O_5 
REMARK    4  A    between atoms: O_5  and  C_6 
REMARK    5  A    between atoms: C_9  and  C_10 
REMARK    6  A    between atoms: C_10  and  C_12 
REMARK    7  A    between atoms: C_13  and  O_14 
REMARK    8  A    between atoms: N_17  and  C_18 
REMARK    9  A    between atoms: C_18  and  C_19 
REMARK   10  A    between atoms: C_19  and  N_20 
REMARK   11  A    between atoms: C_23  and  C_24 
REMARK   12  A    between atoms: C_28  and  N_29 
ROOT
ATOM      1  C   UNL d   1      26.656 -14.940  -1.728  0.00  0.00     0.054 C 
ATOM      2  C   UNL d   1      27.464 -13.955  -1.283  0.00  0.00     0.140 C 
ATOM      3  C   UNL d   1      27.582 -14.093   0.175  0.00  0.00     0.258 C 
ATOM      4  O   UNL d   1      28.381 -14.775   0.787  0.00  0.00    -0.272 OA
ATOM      5  N   UNL d   1      26.253 -14.002   0.630  0.00  0.00    -0.232 NA
ATOM      6  C   UNL d   1      25.938 -15.484  -0.405  0.00  0.00     0.139 C 
ENDROOT
BRANCH   1   7
ATOM      7  C   UNL d   1      26.475 -14.981  -3.258  0.00  0.00     0.193 C 
ATOM      8  O   UNL d   1      25.340 -14.796  -3.697  0.00  0.00    -0.287 OA
BRANCH   7   9
ATOM      9  C   UNL d   1      27.584 -15.099  -4.300  0.00  0.00     0.015 C 
ATOM     10  C   UNL d   1      28.675 -15.907  -4.084  0.00  0.00     0.018 C 
ATOM     11  C   UNL d   1      29.605 -16.240  -5.092  0.00  0.00     0.038 C 
ATOM     12  C   UNL d   1      29.539 -15.697  -6.348  0.00  0.00     0.074 C 
ATOM     13  C   UNL d   1      28.672 -14.615  -6.483  0.00  0.00    -0.028 C 
ATOM     14  C   UNL d   1      27.671 -14.340  -5.483  0.00  0.00     0.025 C 
ATOM     15  C   UNL d   1      28.905 -13.699  -7.645  0.00  0.00     0.051 C 
BRANCH  12  16
ATOM     16  O   UNL d   1      30.442 -16.011  -7.332  0.00  0.00    -0.351 OA
BRANCH  16  17
ATOM     17  C   UNL d   1      31.798 -16.269  -6.904  0.00  0.00     0.175 C 
BRANCH  17  18
ATOM     18  C   UNL d   1      32.294 -17.566  -7.554  0.00  0.00     0.026 C 
BRANCH  18  19
ATOM     19  C   UNL d   1      31.154 -18.511  -7.954  0.00  0.00    -0.002 C 
ATOM     20  C   UNL d   1      30.681 -19.324  -6.756  0.00  0.00     0.005 C 
ENDBRANCH  18  19
ENDBRANCH  17  18
ENDBRANCH  16  17
ENDBRANCH  12  16
ENDBRANCH   7   9
ENDBRANCH   1   7
BRANCH   2  21
ATOM     21  O   UNL d   1      27.709 -12.740  -1.860  0.00  0.00    -0.356 OA
ATOM     22  H   UNL d   1      27.900 -12.116  -1.123  0.00  0.00     0.218 HD
ENDBRANCH   2  21
BRANCH   6  23
ATOM     23  C   UNL d   1      24.975 -16.904  -0.745  0.00  0.00    -0.033 C 
ATOM     24  C   UNL d   1      25.296 -18.200  -0.232  0.00  0.00     0.009 C 
ATOM     25  C   UNL d   1      24.344 -19.309  -0.145  0.00  0.00     0.003 C 
ATOM     26  C   UNL d   1      23.003 -19.224  -0.552  0.00  0.00     0.036 C 
ATOM     27  C   UNL d   1      22.532 -17.960  -0.908  0.00  0.00     0.103 C 
ATOM     28  C   UNL d   1      23.482 -16.824  -0.979  0.00  0.00     0.045 C 
BRANCH  27  29
ATOM     29  N   UNL d   1      21.017 -17.830  -0.918  0.00  0.00    -0.116 N 
ATOM     30  O   UNL d   1      20.507 -16.769  -1.270  0.00  0.00    -0.532 OA
ATOM     31  O   UNL d   1      20.354 -18.854  -0.604  0.00  0.00    -0.532 OA
ENDBRANCH  27  29
ENDBRANCH   6  23
BRANCH   5  32
ATOM     32  C   UNL d   1      26.655 -13.181   2.175  0.00  0.00     0.127 C 
BRANCH  32  33
ATOM     33  C   UNL d   1      28.262 -12.993   3.113  0.00  0.00     0.248 C 
BRANCH  33  34
ATOM     34  N   UNL d   1      28.946 -14.504   3.657  0.00  0.00    -0.078 N 
ATOM     35  C   UNL d   1      30.437 -14.450   3.893  0.00  0.00     0.269 C 
ATOM     36  C   UNL d   1      28.358 -15.200   4.934  0.00  0.00     0.269 C 
ATOM     37  H   UNL d   1      28.762 -15.180   2.907  0.00  0.00     0.279 HD
ENDBRANCH  33  34
ENDBRANCH  32  33
ENDBRANCH   5  32
TORSDOF 12
ENDMDL
MODEL 8
REMARK VINA RESULT:    -8.951      4.959      8.276
REMARK INTER + INTRA:         -15.424
REMARK INTER:                 -12.531
REMARK INTRA:                  -2.893
REMARK CONF_INDEPENDENT:        3.580
REMARK UNBOUND:                -2.893
REMARK  12 active torsions:
REMARK  status: ('A' for Active; 'I' for Inactive)
REMARK    1  A    between atoms: C_2  and  C_3 
REMARK    2  A    between atoms: C_3  and  C_4 
REMARK    3  A    between atoms: C_4  and  O_5 
REMARK    4  A    between atoms: O_5  and  C_6 
REMARK    5  A    between atoms: C_9  and  C_10 
REMARK    6  A    between atoms: C_10  and  C_12 
REMARK    7  A    between atoms: C_13  and  O_14 
REMARK    8  A    between atoms: N_17  and  C_18 
REMARK    9  A    between atoms: C_18  and  C_19 
REMARK   10  A    between atoms: C_19  and  N_20 
REMARK   11  A    between atoms: C_23  and  C_24 
REMARK   12  A    between atoms: C_28  and  N_29 
ROOT
ATOM      1  C   UNL d   1      27.715 -15.369  -3.790  0.00  0.00     0.054 C 
ATOM      2  C   UNL d   1      28.030 -15.442  -5.100  0.00  0.00     0.140 C 
ATOM      3  C   UNL d   1      29.490 -15.573  -5.206  0.00  0.00     0.258 C 
ATOM      4  O   UNL d   1      30.139 -16.600  -5.180  0.00  0.00    -0.272 OA
ATOM      5  N   UNL d   1      29.979 -14.425  -4.554  0.00  0.00    -0.232 NA
ATOM      6  C   UNL d   1      29.109 -15.060  -3.069  0.00  0.00     0.139 C 
ENDROOT
BRANCH   1   7
ATOM      7  C   UNL d   1      26.204 -15.292  -3.496  0.00  0.00     0.193 C 
ATOM      8  O   UNL d   1      25.496 -14.719  -4.323  0.00  0.00    -0.287 OA
BRANCH   7   9
ATOM      9  C   UNL d   1      25.469 -15.969  -2.342  0.00  0.00     0.015 C 
ATOM     10  C   UNL d   1      24.181 -15.616  -2.019  0.00  0.00     0.018 C 
ATOM     11  C   UNL d   1      23.372 -16.358  -1.130  0.00  0.00     0.038 C 
ATOM     12  C   UNL d   1      23.855 -17.441  -0.443  0.00  0.00     0.074 C 
ATOM     13  C   UNL d   1      25.239 -17.597  -0.476  0.00  0.00    -0.028 C 
ATOM     14  C   UNL d   1      26.040 -16.896  -1.447  0.00  0.00     0.025 C 
ATOM     15  C   UNL d   1      25.853 -18.430   0.607  0.00  0.00     0.051 C 
BRANCH  12  16
ATOM     16  O   UNL d   1      23.078 -18.164   0.427  0.00  0.00    -0.351 OA
BRANCH  16  17
ATOM     17  C   UNL d   1      22.294 -19.234  -0.147  0.00  0.00     0.175 C 
BRANCH  17  18
ATOM     18  C   UNL d   1      21.186 -18.634  -1.022  0.00  0.00     0.026 C 
BRANCH  18  19
ATOM     19  C   UNL d   1      19.824 -19.306  -0.811  0.00  0.00    -0.002 C 
ATOM     20  C   UNL d   1      19.681 -19.800   0.623  0.00  0.00     0.005 C 
ENDBRANCH  18  19
ENDBRANCH  17  18
ENDBRANCH  16  17
ENDBRANCH  12  16
ENDBRANCH   7   9
ENDBRANCH   1   7
BRANCH   2  21
ATOM     21  O   UNL d   1      27.325 -14.954  -6.166  0.00  0.00    -0.356 OA
ATOM     22  H   UNL d   1      26.387 -15.214  -6.020  0.00  0.00     0.218 HD
ENDBRANCH   2  21
BRANCH   6  23
ATOM     23  C   UNL d   1      28.948 -15.111  -1.328  0.00  0.00    -0.033 C 
ATOM     24  C   UNL d   1      30.053 -15.353  -0.452  0.00  0.00     0.009 C 
ATOM     25  C   UNL d   1      30.063 -15.017   0.973  0.00  0.00     0.003 C 
ATOM     26  C   UNL d   1      28.987 -14.413   1.642  0.00  0.00     0.036 C 
ATOM     27  C   UNL d   1      27.922 -13.973   0.855  0.00  0.00     0.103 C 
ATOM     28  C   UNL d   1      27.911 -14.289  -0.594  0.00  0.00     0.045 C 
BRANCH  27  29
ATOM     29  N   UNL d   1      27.009 -12.964   1.533  0.00  0.00    -0.116 N 
ATOM     30  O   UNL d   1      25.794 -13.051   1.374  0.00  0.00    -0.532 OA
ATOM     31  O   UNL d   1      27.557 -12.106   2.275  0.00  0.00    -0.532 OA
ENDBRANCH  27  29
ENDBRANCH   6  23
BRANCH   5  32
ATOM     32  C   UNL d   1      31.419 -14.229  -5.608  0.00  0.00     0.127 C 
BRANCH  32  33
ATOM     33  C   UNL d   1      31.695 -13.261  -7.185  0.00  0.00     0.248 C 
BRANCH  33  34
ATOM     34  N   UNL d   1      30.275 -13.124  -8.190  0.00  0.00    -0.078 N 
ATOM     35  C   UNL d   1      29.018 -12.773  -7.428  0.00  0.00     0.269 C 
ATOM     36  C   UNL d   1      30.290 -12.146  -9.417  0.00  0.00     0.269 C 
ATOM     37  H   UNL d   1      30.145 -14.048  -8.619  0.00  0.00     0.279 HD
ENDBRANCH  33  34
ENDBRANCH  32  33
ENDBRANCH   5  32
TORSDOF 12
ENDMDL
MODEL 9
REMARK VINA RESULT:    -8.774      6.208     10.180
REMARK INTER + INTRA:         -15.368
REMARK INTER:                 -12.354
REMARK INTRA:                  -3.015
REMARK CONF_INDEPENDENT:        3.580
REMARK UNBOUND:                -3.015
REMARK  12 active torsions:
REMARK  status: ('A' for Active; 'I' for Inactive)
REMARK    1  A    between atoms: C_2  and  C_3 
REMARK    2  A    between atoms: C_3  and  C_4 
REMARK    3  A    between atoms: C_4  and  O_5 
REMARK    4  A    between atoms: O_5  and  C_6 
REMARK    5  A    between atoms: C_9  and  C_10 
REMARK    6  A    between atoms: C_10  and  C_12 
REMARK    7  A    between atoms: C_13  and  O_14 
REMARK    8  A    between atoms: N_17  and  C_18 
REMARK    9  A    between atoms: C_18  and  C_19 
REMARK   10  A    between atoms: C_19  and  N_20 
REMARK   11  A    between atoms: C_23  and  C_24 
REMARK   12  A    between atoms: C_28  and  N_29 
ROOT
ATOM      1  C   UNL d   1      25.986 -10.165  -4.283  0.00  0.00     0.054 C 
ATOM      2  C   UNL d   1      25.171  -9.167  -3.885  0.00  0.00     0.140 C 
ATOM      3  C   UNL d   1      24.640  -8.511  -5.088  0.00  0.00     0.258 C 
ATOM      4  O   UNL d   1      23.649  -8.823  -5.719  0.00  0.00    -0.272 OA
ATOM      5  N   UNL d   1      25.793  -8.081  -5.772  0.00  0.00    -0.232 NA
ATOM      6  C   UNL d   1      26.260  -9.854  -5.828  0.00  0.00     0.139 C 
ENDROOT
BRANCH   1   7
ATOM      7  C   UNL d   1      26.582 -11.005  -3.136  0.00  0.00     0.193 C 
ATOM      8  O   UNL d   1      27.388 -10.449  -2.389  0.00  0.00    -0.287 OA
BRANCH   7   9
ATOM      9  C   UNL d   1      26.178 -12.424  -2.746  0.00  0.00     0.015 C 
ATOM     10  C   UNL d   1      25.157 -13.073  -3.396  0.00  0.00     0.018 C 
ATOM     11  C   UNL d   1      24.895 -14.453  -3.247  0.00  0.00     0.038 C 
ATOM     12  C   UNL d   1      25.587 -15.230  -2.356  0.00  0.00     0.074 C 
ATOM     13  C   UNL d   1      26.368 -14.531  -1.438  0.00  0.00    -0.028 C 
ATOM     14  C   UNL d   1      26.696 -13.144  -1.651  0.00  0.00     0.025 C 
ATOM     15  C   UNL d   1      26.746 -15.252  -0.181  0.00  0.00     0.051 C 
BRANCH  12  16
ATOM     16  O   UNL d   1      25.336 -16.570  -2.200  0.00  0.00    -0.351 OA
BRANCH  16  17
ATOM     17  C   UNL d   1      24.049 -16.923  -1.645  0.00  0.00     0.175 C 
BRANCH  17  18
ATOM     18  C   UNL d   1      24.247 -17.970  -0.542  0.00  0.00     0.026 C 
BRANCH  18  19
ATOM     19  C   UNL d   1      23.130 -19.021  -0.503  0.00  0.00    -0.002 C 
ATOM     20  C   UNL d   1      21.780 -18.386  -0.814  0.00  0.00     0.005 C 
ENDBRANCH  18  19
ENDBRANCH  17  18
ENDBRANCH  16  17
ENDBRANCH  12  16
ENDBRANCH   7   9
ENDBRANCH   1   7
BRANCH   2  21
ATOM     21  O   UNL d   1      25.197  -8.475  -2.705  0.00  0.00    -0.356 OA
ATOM     22  H   UNL d   1      24.405  -7.891  -2.709  0.00  0.00     0.218 HD
ENDBRANCH   2  21
BRANCH   6  23
ATOM     23  C   UNL d   1      27.158 -11.149  -6.586  0.00  0.00    -0.033 C 
ATOM     24  C   UNL d   1      28.458 -10.963  -7.154  0.00  0.00     0.009 C 
ATOM     25  C   UNL d   1      29.400 -12.051  -7.429  0.00  0.00     0.003 C 
ATOM     26  C   UNL d   1      29.134 -13.403  -7.160  0.00  0.00     0.036 C 
ATOM     27  C   UNL d   1      27.969 -13.686  -6.448  0.00  0.00     0.103 C 
ATOM     28  C   UNL d   1      27.017 -12.590  -6.145  0.00  0.00     0.045 C 
BRANCH  27  29
ATOM     29  N   UNL d   1      27.936 -15.067  -5.812  0.00  0.00    -0.116 N 
ATOM     30  O   UNL d   1      28.993 -15.609  -5.495  0.00  0.00    -0.532 OA
ATOM     31  O   UNL d   1      26.801 -15.570  -5.597  0.00  0.00    -0.532 OA
ENDBRANCH  27  29
ENDBRANCH   6  23
BRANCH   5  32
ATOM     32  C   UNL d   1      25.046  -6.597  -6.452  0.00  0.00     0.127 C 
BRANCH  32  33
ATOM     33  C   UNL d   1      23.418  -6.299  -7.323  0.00  0.00     0.248 C 
BRANCH  33  34
ATOM     34  N   UNL d   1      22.017  -6.612  -6.331  0.00  0.00    -0.078 N 
ATOM     35  C   UNL d   1      22.115  -6.040  -4.936  0.00  0.00     0.269 C 
ATOM     36  C   UNL d   1      20.597  -6.184  -6.846  0.00  0.00     0.269 C 
ATOM     37  H   UNL d   1      21.949  -7.634  -6.257  0.00  0.00     0.279 HD
ENDBRANCH  33  34
ENDBRANCH  32  33
ENDBRANCH   5  32
TORSDOF 12
ENDMDL
