MODEL 1
REMARK VINA RESULT:    -9.336      0.000      0.000
REMARK INTER + INTRA:         -11.521
REMARK INTER:                 -10.529
REMARK INTRA:                  -0.992
REMARK CONF_INDEPENDENT:        1.193
REMARK UNBOUND:                -0.992
REMARK  4 active torsions:
REMARK  status: ('A' for Active; 'I' for Inactive)
REMARK       I    between atoms: C_2  and  N_3 
REMARK    1  A    between atoms: C_2  and  C_15 
REMARK    2  A    between atoms: N_3  and  N_4 
REMARK       I    between atoms: N_4  and  C_5 
REMARK    3  A    between atoms: C_5  and  C_7 
REMARK    4  A    between atoms: C_20  and  O_21 
ROOT
ATOM      1  O   UNL d   1      20.886 -17.980  -1.216  0.00  0.00    -0.266 OA
ATOM      2  C   UNL d   1      21.211 -18.863  -0.422  0.00  0.00     0.272 C 
ATOM      3  N   UNL d   1      22.545 -19.147  -0.144  0.00  0.00    -0.263 N 
ATOM      4  H   UNL d   1      22.853 -19.908   0.457  0.00  0.00     0.190 HD
ENDROOT
BRANCH   3   5
ATOM      5  N   UNL d   1      23.557 -18.415  -0.822  0.00  0.00    -0.263 N 
ATOM      6  C   UNL d   1      23.614 -17.033  -0.687  0.00  0.00     0.271 C 
ATOM      7  O   UNL d   1      22.783 -16.396  -0.039  0.00  0.00    -0.266 OA
ATOM      8  H   UNL d   1      24.257 -18.977  -1.304  0.00  0.00     0.190 HD
BRANCH   6   9
ATOM      9  C   UNL d   1      24.734 -16.334  -1.396  0.00  0.00     0.057 A 
ATOM     10  C   UNL d   1      24.425 -15.382  -2.383  0.00  0.00     0.042 A 
ATOM     11  C   UNL d   1      25.448 -14.713  -3.066  0.00  0.00     0.035 A 
ATOM     12 CL   UNL d   1      25.055 -13.547  -4.270  0.00  0.00    -0.084 Cl
ATOM     13  C   UNL d   1      26.786 -14.979  -2.788  0.00  0.00     0.025 A 
ATOM     14  C   UNL d   1      27.104 -15.901  -1.791  0.00  0.00     0.026 A 
ATOM     15  C   UNL d   1      26.086 -16.565  -1.083  0.00  0.00     0.050 A 
ATOM     16 CL   UNL d   1      26.599 -17.680   0.132  0.00  0.00    -0.083 Cl
ENDBRANCH   6   9
ENDBRANCH   3   5
BRANCH   2  17
ATOM     17  C   UNL d   1      20.175 -19.638   0.337  0.00  0.00     0.066 A 
ATOM     18  C   UNL d   1      20.295 -19.763   1.729  0.00  0.00     0.020 A 
ATOM     19  C   UNL d   1      19.292 -20.395   2.479  0.00  0.00     0.001 A 
ATOM     20  C   UNL d   1      18.162 -20.913   1.847  0.00  0.00     0.003 A 
ATOM     21  C   UNL d   1      18.030 -20.800   0.462  0.00  0.00     0.037 A 
ATOM     22  C   UNL d   1      19.028 -20.160  -0.287  0.00  0.00     0.081 A 
BRANCH  22  23
ATOM     23  O   UNL d   1      18.886 -20.075  -1.645  0.00  0.00    -0.360 OA
ATOM     24  H   UNL d   1      18.976 -19.151  -1.931  0.00  0.00     0.217 HD
ENDBRANCH  22  23
ENDBRANCH   2  17
TORSDOF 4
ENDMDL
MODEL 2
REMARK VINA RESULT:    -9.022      1.282      1.745
REMARK INTER + INTRA:         -11.774
REMARK INTER:                 -10.215
REMARK INTRA:                  -1.558
REMARK CONF_INDEPENDENT:        1.193
REMARK UNBOUND:                -1.558
REMARK  4 active torsions:
REMARK  status: ('A' for Active; 'I' for Inactive)
REMARK       I    between atoms: C_2  and  N_3 
REMARK    1  A    between atoms: C_2  and  C_15 
REMARK    2  A    between atoms: N_3  and  N_4 
REMARK       I    between atoms: N_4  and  C_5 
REMARK    3  A    between atoms: C_5  and  C_7 
REMARK    4  A    between atoms: C_20  and  O_21 
ROOT
ATOM      1  O   UNL d   1      20.308 -17.884  -1.274  0.00  0.00    -0.266 OA
ATOM      2  C   UNL d   1      20.683 -18.621  -0.362  0.00  0.00     0.272 C 
ATOM      3  N   UNL d   1      21.989 -18.591   0.118  0.00  0.00    -0.263 N 
ATOM      4  H   UNL d   1      22.353 -19.227   0.825  0.00  0.00     0.190 HD
ENDROOT
BRANCH   3   5
ATOM      5  N   UNL d   1      22.920 -17.703  -0.487  0.00  0.00    -0.263 N 
ATOM      6  C   UNL d   1      24.280 -17.981  -0.419  0.00  0.00     0.271 C 
ATOM      7  O   UNL d   1      24.728 -18.948   0.196  0.00  0.00    -0.266 OA
ATOM      8  H   UNL d   1      22.513 -16.944  -1.031  0.00  0.00     0.190 HD
BRANCH   6   9
ATOM      9  C   UNL d   1      25.198 -17.023  -1.117  0.00  0.00     0.057 A 
ATOM     10  C   UNL d   1      24.651 -16.091  -2.016  0.00  0.00     0.042 A 
ATOM     11  C   UNL d   1      25.482 -15.185  -2.687  0.00  0.00     0.035 A 
ATOM     12 CL   UNL d   1      24.799 -14.046  -3.782  0.00  0.00    -0.084 Cl
ATOM     13  C   UNL d   1      26.859 -15.191  -2.483  0.00  0.00     0.025 A 
ATOM     14  C   UNL d   1      27.408 -16.093  -1.572  0.00  0.00     0.026 A 
ATOM     15  C   UNL d   1      26.583 -16.996  -0.876  0.00  0.00     0.050 A 
ATOM     16 CL   UNL d   1      27.374 -18.061   0.229  0.00  0.00    -0.083 Cl
ENDBRANCH   6   9
ENDBRANCH   3   5
BRANCH   2  17
ATOM     17  C   UNL d   1      19.726 -19.551   0.322  0.00  0.00     0.066 A 
ATOM     18  C   UNL d   1      18.734 -20.195  -0.433  0.00  0.00     0.020 A 
ATOM     19  C   UNL d   1      17.890 -21.146   0.158  0.00  0.00     0.001 A 
ATOM     20  C   UNL d   1      18.021 -21.459   1.510  0.00  0.00     0.003 A 
ATOM     21  C   UNL d   1      19.000 -20.825   2.276  0.00  0.00     0.037 A 
ATOM     22  C   UNL d   1      19.851 -19.881   1.684  0.00  0.00     0.081 A 
BRANCH  22  23
ATOM     23  O   UNL d   1      20.792 -19.259   2.458  0.00  0.00    -0.360 OA
ATOM     24  H   UNL d   1      21.382 -19.919   2.857  0.00  0.00     0.217 HD
ENDBRANCH  22  23
ENDBRANCH   2  17
TORSDOF 4
ENDMDL
MODEL 3
REMARK VINA RESULT:    -7.458      1.905      2.619
REMARK INTER + INTRA:         -10.340
REMARK INTER:                  -8.651
REMARK INTRA:                  -1.688
REMARK CONF_INDEPENDENT:        1.193
REMARK UNBOUND:                -1.688
REMARK  4 active torsions:
REMARK  status: ('A' for Active; 'I' for Inactive)
REMARK       I    between atoms: C_2  and  N_3 
REMARK    1  A    between atoms: C_2  and  C_15 
REMARK    2  A    between atoms: N_3  and  N_4 
REMARK       I    between atoms: N_4  and  C_5 
REMARK    3  A    between atoms: C_5  and  C_7 
REMARK    4  A    between atoms: C_20  and  O_21 
ROOT
ATOM      1  O   UNL d   1      21.742 -17.589  -1.270  0.00  0.00    -0.266 OA
ATOM      2  C   UNL d   1      21.927 -18.252  -0.249  0.00  0.00     0.272 C 
ATOM      3  N   UNL d   1      23.073 -18.104   0.526  0.00  0.00    -0.263 N 
ATOM      4  H   UNL d   1      23.291 -18.677   1.340  0.00  0.00     0.190 HD
ENDROOT
BRANCH   3   5
ATOM      5  N   UNL d   1      24.070 -17.182   0.106  0.00  0.00    -0.263 N 
ATOM      6  C   UNL d   1      25.413 -17.514   0.233  0.00  0.00     0.271 C 
ATOM      7  O   UNL d   1      25.788 -18.567   0.750  0.00  0.00    -0.266 OA
ATOM      8  H   UNL d   1      23.724 -16.347  -0.364  0.00  0.00     0.190 HD
BRANCH   6   9
ATOM      9  C   UNL d   1      26.405 -16.511  -0.272  0.00  0.00     0.057 A 
ATOM     10  C   UNL d   1      27.445 -16.097   0.579  0.00  0.00     0.042 A 
ATOM     11  C   UNL d   1      28.386 -15.158   0.139  0.00  0.00     0.035 A 
ATOM     12 CL   UNL d   1      29.657 -14.663   1.189  0.00  0.00    -0.084 Cl
ATOM     13  C   UNL d   1      28.310 -14.614  -1.140  0.00  0.00     0.025 A 
ATOM     14  C   UNL d   1      27.299 -15.039  -2.001  0.00  0.00     0.026 A 
ATOM     15  C   UNL d   1      26.358 -15.996  -1.580  0.00  0.00     0.050 A 
ATOM     16 CL   UNL d   1      25.156 -16.449  -2.733  0.00  0.00    -0.083 Cl
ENDBRANCH   6   9
ENDBRANCH   3   5
BRANCH   2  17
ATOM     17  C   UNL d   1      20.888 -19.214   0.245  0.00  0.00     0.066 A 
ATOM     18  C   UNL d   1      20.654 -19.323   1.624  0.00  0.00     0.020 A 
ATOM     19  C   UNL d   1      19.621 -20.138   2.112  0.00  0.00     0.001 A 
ATOM     20  C   UNL d   1      18.816 -20.856   1.230  0.00  0.00     0.003 A 
ATOM     21  C   UNL d   1      19.038 -20.762  -0.145  0.00  0.00     0.037 A 
ATOM     22  C   UNL d   1      20.065 -19.940  -0.634  0.00  0.00     0.081 A 
BRANCH  22  23
ATOM     23  O   UNL d   1      20.275 -19.875  -1.984  0.00  0.00    -0.360 OA
ATOM     24  H   UNL d   1      20.369 -18.949  -2.261  0.00  0.00     0.217 HD
ENDBRANCH  22  23
ENDBRANCH   2  17
TORSDOF 4
ENDMDL
MODEL 4
REMARK VINA RESULT:    -7.140      4.519      9.134
REMARK INTER + INTRA:         -10.207
REMARK INTER:                  -8.334
REMARK INTRA:                  -1.873
REMARK CONF_INDEPENDENT:        1.193
REMARK UNBOUND:                -1.873
REMARK  4 active torsions:
REMARK  status: ('A' for Active; 'I' for Inactive)
REMARK       I    between atoms: C_2  and  N_3 
REMARK    1  A    between atoms: C_2  and  C_15 
REMARK    2  A    between atoms: N_3  and  N_4 
REMARK       I    between atoms: N_4  and  C_5 
REMARK    3  A    between atoms: C_5  and  C_7 
REMARK    4  A    between atoms: C_20  and  O_21 
ROOT
ATOM      1  O   UNL d   1      26.959 -15.504  -5.762  0.00  0.00    -0.266 OA
ATOM      2  C   UNL d   1      26.943 -14.381  -5.258  0.00  0.00     0.272 C 
ATOM      3  N   UNL d   1      26.526 -14.170  -3.947  0.00  0.00    -0.263 N 
ATOM      4  H   UNL d   1      26.439 -13.252  -3.516  0.00  0.00     0.190 HD
ENDROOT
BRANCH   3   5
ATOM      5  N   UNL d   1      26.076 -15.282  -3.184  0.00  0.00    -0.263 N 
ATOM      6  C   UNL d   1      25.762 -15.113  -1.841  0.00  0.00     0.271 C 
ATOM      7  O   UNL d   1      25.907 -14.039  -1.257  0.00  0.00    -0.266 OA
ATOM      8  H   UNL d   1      25.917 -16.139  -3.710  0.00  0.00     0.190 HD
BRANCH   6   9
ATOM      9  C   UNL d   1      25.253 -16.319  -1.112  0.00  0.00     0.057 A 
ATOM     10  C   UNL d   1      23.920 -16.721  -1.310  0.00  0.00     0.042 A 
ATOM     11  C   UNL d   1      23.412 -17.841  -0.641  0.00  0.00     0.035 A 
ATOM     12 CL   UNL d   1      21.779 -18.324  -0.895  0.00  0.00    -0.084 Cl
ATOM     13  C   UNL d   1      24.210 -18.575   0.232  0.00  0.00     0.025 A 
ATOM     14  C   UNL d   1      25.542 -18.202   0.413  0.00  0.00     0.026 A 
ATOM     15  C   UNL d   1      26.071 -17.091  -0.267  0.00  0.00     0.050 A 
ATOM     16 CL   UNL d   1      27.732 -16.728   0.032  0.00  0.00    -0.083 Cl
ENDBRANCH   6   9
ENDBRANCH   3   5
BRANCH   2  17
ATOM     17  C   UNL d   1      27.437 -13.186  -6.018  0.00  0.00     0.066 A 
ATOM     18  C   UNL d   1      28.438 -13.354  -6.986  0.00  0.00     0.020 A 
ATOM     19  C   UNL d   1      28.849 -12.276  -7.784  0.00  0.00     0.001 A 
ATOM     20  C   UNL d   1      28.271 -11.018  -7.618  0.00  0.00     0.003 A 
ATOM     21  C   UNL d   1      27.277 -10.834  -6.656  0.00  0.00     0.037 A 
ATOM     22  C   UNL d   1      26.859 -11.914  -5.865  0.00  0.00     0.081 A 
BRANCH  22  23
ATOM     23  O   UNL d   1      25.894 -11.707  -4.917  0.00  0.00    -0.360 OA
ATOM     24  H   UNL d   1      25.055 -11.468  -5.343  0.00  0.00     0.217 HD
ENDBRANCH  22  23
ENDBRANCH   2  17
TORSDOF 4
ENDMDL
MODEL 5
REMARK VINA RESULT:    -7.127      5.080      9.439
REMARK INTER + INTRA:         -10.185
REMARK INTER:                  -8.320
REMARK INTRA:                  -1.864
REMARK CONF_INDEPENDENT:        1.193
REMARK UNBOUND:                -1.864
REMARK  4 active torsions:
REMARK  status: ('A' for Active; 'I' for Inactive)
REMARK       I    between atoms: C_2  and  N_3 
REMARK    1  A    between atoms: C_2  and  C_15 
REMARK    2  A    between atoms: N_3  and  N_4 
REMARK       I    between atoms: N_4  and  C_5 
REMARK    3  A    between atoms: C_5  and  C_7 
REMARK    4  A    between atoms: C_20  and  O_21 
ROOT
ATOM      1  O   UNL d   1      26.582 -10.722  -2.300  0.00  0.00    -0.266 OA
ATOM      2  C   UNL d   1      25.904 -10.873  -3.316  0.00  0.00     0.272 C 
ATOM      3  N   UNL d   1      25.291 -12.086  -3.616  0.00  0.00    -0.263 N 
ATOM      4  H   UNL d   1      24.775 -12.269  -4.475  0.00  0.00     0.190 HD
ENDROOT
BRANCH   3   5
ATOM      5  N   UNL d   1      25.481 -13.186  -2.736  0.00  0.00    -0.263 N 
ATOM      6  C   UNL d   1      25.225 -14.477  -3.182  0.00  0.00     0.271 C 
ATOM      7  O   UNL d   1      24.780 -14.713  -4.306  0.00  0.00    -0.266 OA
ATOM      8  H   UNL d   1      25.900 -12.960  -1.835  0.00  0.00     0.190 HD
BRANCH   6   9
ATOM      9  C   UNL d   1      25.491 -15.589  -2.214  0.00  0.00     0.057 A 
ATOM     10  C   UNL d   1      24.403 -16.308  -1.688  0.00  0.00     0.042 A 
ATOM     11  C   UNL d   1      24.617 -17.350  -0.778  0.00  0.00     0.035 A 
ATOM     12 CL   UNL d   1      23.276 -18.224  -0.145  0.00  0.00    -0.084 Cl
ATOM     13  C   UNL d   1      25.904 -17.692  -0.374  0.00  0.00     0.025 A 
ATOM     14  C   UNL d   1      26.992 -17.005  -0.911  0.00  0.00     0.026 A 
ATOM     15  C   UNL d   1      26.793 -15.969  -1.841  0.00  0.00     0.050 A 
ATOM     16 CL   UNL d   1      28.214 -15.193  -2.441  0.00  0.00    -0.083 Cl
ENDBRANCH   6   9
ENDBRANCH   3   5
BRANCH   2  17
ATOM     17  C   UNL d   1      25.653  -9.731  -4.254  0.00  0.00     0.066 A 
ATOM     18  C   UNL d   1      25.630  -8.421  -3.751  0.00  0.00     0.020 A 
ATOM     19  C   UNL d   1      25.499  -7.325  -4.616  0.00  0.00     0.001 A 
ATOM     20  C   UNL d   1      25.382  -7.525  -5.991  0.00  0.00     0.003 A 
ATOM     21  C   UNL d   1      25.399  -8.821  -6.507  0.00  0.00     0.037 A 
ATOM     22  C   UNL d   1      25.539  -9.918  -5.643  0.00  0.00     0.081 A 
BRANCH  22  23
ATOM     23  O   UNL d   1      25.537 -11.180  -6.169  0.00  0.00    -0.360 OA
ATOM     24  H   UNL d   1      24.727 -11.648  -5.907  0.00  0.00     0.217 HD
ENDBRANCH  22  23
ENDBRANCH   2  17
TORSDOF 4
ENDMDL
MODEL 6
REMARK VINA RESULT:    -7.106      4.543      9.256
REMARK INTER + INTRA:          -9.531
REMARK INTER:                  -8.300
REMARK INTRA:                  -1.232
REMARK CONF_INDEPENDENT:        1.193
REMARK UNBOUND:                -1.232
REMARK  4 active torsions:
REMARK  status: ('A' for Active; 'I' for Inactive)
REMARK       I    between atoms: C_2  and  N_3 
REMARK    1  A    between atoms: C_2  and  C_15 
REMARK    2  A    between atoms: N_3  and  N_4 
REMARK       I    between atoms: N_4  and  C_5 
REMARK    3  A    between atoms: C_5  and  C_7 
REMARK    4  A    between atoms: C_20  and  O_21 
ROOT
ATOM      1  O   UNL d   1      27.048 -15.471  -5.767  0.00  0.00    -0.266 OA
ATOM      2  C   UNL d   1      27.031 -14.351  -5.255  0.00  0.00     0.272 C 
ATOM      3  N   UNL d   1      26.601 -14.147  -3.947  0.00  0.00    -0.263 N 
ATOM      4  H   UNL d   1      26.513 -13.231  -3.511  0.00  0.00     0.190 HD
ENDROOT
BRANCH   3   5
ATOM      5  N   UNL d   1      26.140 -15.262  -3.196  0.00  0.00    -0.263 N 
ATOM      6  C   UNL d   1      25.798 -15.097  -1.859  0.00  0.00     0.271 C 
ATOM      7  O   UNL d   1      25.928 -14.024  -1.270  0.00  0.00    -0.266 OA
ATOM      8  H   UNL d   1      25.994 -16.119  -3.727  0.00  0.00     0.190 HD
BRANCH   6   9
ATOM      9  C   UNL d   1      25.279 -16.307  -1.144  0.00  0.00     0.057 A 
ATOM     10  C   UNL d   1      23.932 -16.673  -1.316  0.00  0.00     0.042 A 
ATOM     11  C   UNL d   1      23.415 -17.796  -0.658  0.00  0.00     0.035 A 
ATOM     12 CL   UNL d   1      21.766 -18.235  -0.881  0.00  0.00    -0.084 Cl
ATOM     13  C   UNL d   1      24.217 -18.566   0.179  0.00  0.00     0.025 A 
ATOM     14  C   UNL d   1      25.561 -18.228   0.335  0.00  0.00     0.026 A 
ATOM     15  C   UNL d   1      26.099 -17.115  -0.336  0.00  0.00     0.050 A 
ATOM     16 CL   UNL d   1      27.776 -16.797  -0.071  0.00  0.00    -0.083 Cl
ENDBRANCH   6   9
ENDBRANCH   3   5
BRANCH   2  17
ATOM     17  C   UNL d   1      27.536 -13.153  -6.003  0.00  0.00     0.066 A 
ATOM     18  C   UNL d   1      27.122 -11.872  -5.608  0.00  0.00     0.020 A 
ATOM     19  C   UNL d   1      27.654 -10.728  -6.220  0.00  0.00     0.001 A 
ATOM     20  C   UNL d   1      28.600 -10.850  -7.237  0.00  0.00     0.003 A 
ATOM     21  C   UNL d   1      29.020 -12.117  -7.644  0.00  0.00     0.037 A 
ATOM     22  C   UNL d   1      28.495 -13.262  -7.026  0.00  0.00     0.081 A 
BRANCH  22  23
ATOM     23  O   UNL d   1      28.908 -14.494  -7.452  0.00  0.00    -0.360 OA
ATOM     24  H   UNL d   1      28.697 -14.608  -8.393  0.00  0.00     0.217 HD
ENDBRANCH  22  23
ENDBRANCH   2  17
TORSDOF 4
ENDMDL
MODEL 7
REMARK VINA RESULT:    -6.360      5.675      8.430
REMARK INTER + INTRA:          -9.375
REMARK INTER:                  -7.553
REMARK INTRA:                  -1.822
REMARK CONF_INDEPENDENT:        1.193
REMARK UNBOUND:                -1.822
REMARK  4 active torsions:
REMARK  status: ('A' for Active; 'I' for Inactive)
REMARK       I    between atoms: C_2  and  N_3 
REMARK    1  A    between atoms: C_2  and  C_15 
REMARK    2  A    between atoms: N_3  and  N_4 
REMARK       I    between atoms: N_4  and  C_5 
REMARK    3  A    between atoms: C_5  and  C_7 
REMARK    4  A    between atoms: C_20  and  O_21 
ROOT
ATOM      1  O   UNL d   1      26.890 -12.348   2.854  0.00  0.00    -0.266 OA
ATOM      2  C   UNL d   1      27.585 -13.275   3.270  0.00  0.00     0.272 C 
ATOM      3  N   UNL d   1      27.880 -14.383   2.480  0.00  0.00    -0.263 N 
ATOM      4  H   UNL d   1      28.397 -15.197   2.808  0.00  0.00     0.190 HD
ENDROOT
BRANCH   3   5
ATOM      5  N   UNL d   1      27.335 -14.455   1.169  0.00  0.00    -0.263 N 
ATOM      6  C   UNL d   1      27.304 -15.673   0.502  0.00  0.00     0.271 C 
ATOM      7  O   UNL d   1      27.784 -16.702   0.980  0.00  0.00    -0.266 OA
ATOM      8  H   UNL d   1      26.900 -13.599   0.828  0.00  0.00     0.190 HD
BRANCH   6   9
ATOM      9  C   UNL d   1      26.675 -15.680  -0.858  0.00  0.00     0.057 A 
ATOM     10  C   UNL d   1      27.079 -14.717  -1.799  0.00  0.00     0.042 A 
ATOM     11  C   UNL d   1      26.508 -14.694  -3.077  0.00  0.00     0.035 A 
ATOM     12 CL   UNL d   1      27.016 -13.512  -4.221  0.00  0.00    -0.084 Cl
ATOM     13  C   UNL d   1      25.530 -15.616  -3.440  0.00  0.00     0.025 A 
ATOM     14  C   UNL d   1      25.142 -16.593  -2.523  0.00  0.00     0.026 A 
ATOM     15  C   UNL d   1      25.721 -16.640  -1.243  0.00  0.00     0.050 A 
ATOM     16 CL   UNL d   1      25.166 -17.896  -0.196  0.00  0.00    -0.083 Cl
ENDBRANCH   6   9
ENDBRANCH   3   5
BRANCH   2  17
ATOM     17  C   UNL d   1      28.204 -13.225   4.634  0.00  0.00     0.066 A 
ATOM     18  C   UNL d   1      28.494 -11.980   5.212  0.00  0.00     0.020 A 
ATOM     19  C   UNL d   1      28.978 -11.897   6.526  0.00  0.00     0.001 A 
ATOM     20  C   UNL d   1      29.185 -13.055   7.274  0.00  0.00     0.003 A 
ATOM     21  C   UNL d   1      28.905 -14.301   6.713  0.00  0.00     0.037 A 
ATOM     22  C   UNL d   1      28.411 -14.385   5.402  0.00  0.00     0.081 A 
BRANCH  22  23
ATOM     23  O   UNL d   1      28.159 -15.618   4.866  0.00  0.00    -0.360 OA
ATOM     24  H   UNL d   1      28.922 -15.916   4.344  0.00  0.00     0.217 HD
ENDBRANCH  22  23
ENDBRANCH   2  17
TORSDOF 4
ENDMDL
