MODEL 1
REMARK VINA RESULT:    -8.049      0.000      0.000
REMARK INTER + INTRA:         -11.299
REMARK INTER:                 -10.138
REMARK INTRA:                  -1.161
REMARK CONF_INDEPENDENT:        2.088
REMARK UNBOUND:                -1.161
REMARK  7 active torsions:
REMARK  status: ('A' for Active; 'I' for Inactive)
REMARK    1  A    between atoms: C_4  and  C_5 
REMARK    2  A    between atoms: C_6  and  C_7 
REMARK       I    between atoms: C_7  and  N_9 
REMARK    3  A    between atoms: N_9  and  C_10 
REMARK    4  A    between atoms: C_11  and  C_10 
REMARK    5  A    between atoms: C_11  and  C_13 
REMARK    6  A    between atoms: C_11  and  O_12 
REMARK    7  A    between atoms: C_16  and  N_17 
ROOT
ATOM      1  C   UNL d   1      25.765 -15.754  -2.809  0.00  0.00     0.223 C 
ATOM      2  O   UNL d   1      25.155 -16.764  -3.125  0.00  0.00    -0.273 OA
ATOM      3  N   UNL d   1      26.613 -15.716  -1.740  0.00  0.00    -0.358 N 
ATOM      4  H   UNL d   1      27.004 -14.848  -1.452  0.00  0.00     0.162 HD
ENDROOT
BRANCH   3   5
ATOM      5  C   UNL d   1      27.009 -16.900  -1.008  0.00  0.00     0.159 C 
BRANCH   5   6
ATOM      6  C   UNL d   1      26.090 -17.136   0.215  0.00  0.00     0.169 C 
BRANCH   6   7
ATOM      7  C   UNL d   1      24.703 -17.526  -0.251  0.00  0.00    -0.028 A 
ATOM      8  C   UNL d   1      23.742 -16.555  -0.565  0.00  0.00     0.012 A 
ATOM      9  C   UNL d   1      22.421 -16.918  -0.804  0.00  0.00     0.037 A 
ATOM     10  C   UNL d   1      22.075 -18.272  -0.835  0.00  0.00     0.102 A 
ATOM     11  C   UNL d   1      23.021 -19.261  -0.542  0.00  0.00     0.037 A 
ATOM     12  C   UNL d   1      24.331 -18.883  -0.243  0.00  0.00     0.012 A 
BRANCH  10  13
ATOM     13  N   UNL d   1      20.723 -18.655  -1.252  0.00  0.00    -0.116 N 
ATOM     14  O   UNL d   1      20.598 -19.697  -1.912  0.00  0.00    -0.532 OA
ATOM     15  O   UNL d   1      19.783 -17.930  -0.895  0.00  0.00    -0.532 OA
ENDBRANCH  10  13
ENDBRANCH   6   7
BRANCH   6  16
ATOM     16  O   UNL d   1      26.650 -18.111   1.089  0.00  0.00    -0.389 OA
ATOM     17  H   UNL d   1      27.456 -17.731   1.475  0.00  0.00     0.210 HD
ENDBRANCH   6  16
ENDBRANCH   5   6
ENDBRANCH   3   5
BRANCH   1  18
ATOM     18  C   UNL d   1      25.547 -14.497  -3.580  0.00  0.00     0.094 A 
ATOM     19  C   UNL d   1      26.326 -14.122  -4.825  0.00  0.00     0.030 A 
ATOM     20  C   UNL d   1      26.349 -13.196  -3.627  0.00  0.00    -0.027 A 
ATOM     21  C   UNL d   1      27.611 -12.957  -2.841  0.00  0.00     0.016 C 
ATOM     22  C   UNL d   1      25.545 -11.917  -3.776  0.00  0.00     0.016 C 
BRANCH  19  23
ATOM     23  C   UNL d   1      27.533 -14.816  -5.313  0.00  0.00    -0.019 C 
ATOM     24  C   UNL d   1      28.421 -14.297  -6.190  0.00  0.00    -0.091 C 
ATOM     25  C   UNL d   1      29.634 -15.066  -6.640  0.00  0.00     0.042 C 
ATOM     26  C   UNL d   1      28.231 -12.924  -6.778  0.00  0.00     0.042 C 
ENDBRANCH  19  23
ENDBRANCH   1  18
TORSDOF 7
ENDMDL
MODEL 2
REMARK VINA RESULT:    -7.285      4.090      5.832
REMARK INTER + INTRA:         -10.543
REMARK INTER:                  -9.373
REMARK INTRA:                  -1.170
REMARK CONF_INDEPENDENT:        2.088
REMARK UNBOUND:                -1.170
REMARK  7 active torsions:
REMARK  status: ('A' for Active; 'I' for Inactive)
REMARK    1  A    between atoms: C_4  and  C_5 
REMARK    2  A    between atoms: C_6  and  C_7 
REMARK       I    between atoms: C_7  and  N_9 
REMARK    3  A    between atoms: N_9  and  C_10 
REMARK    4  A    between atoms: C_11  and  C_10 
REMARK    5  A    between atoms: C_11  and  C_13 
REMARK    6  A    between atoms: C_11  and  O_12 
REMARK    7  A    between atoms: C_16  and  N_17 
ROOT
ATOM      1  C   UNL d   1      27.407 -13.720   2.044  0.00  0.00     0.223 C 
ATOM      2  O   UNL d   1      26.487 -13.166   1.460  0.00  0.00    -0.273 OA
ATOM      3  N   UNL d   1      27.960 -14.885   1.596  0.00  0.00    -0.358 N 
ATOM      4  H   UNL d   1      28.631 -15.359   2.157  0.00  0.00     0.162 HD
ENDROOT
BRANCH   3   5
ATOM      5  C   UNL d   1      27.642 -15.462   0.307  0.00  0.00     0.159 C 
BRANCH   5   6
ATOM      6  C   UNL d   1      27.386 -16.985   0.425  0.00  0.00     0.169 C 
BRANCH   6   7
ATOM      7  C   UNL d   1      25.982 -17.307  -0.041  0.00  0.00    -0.028 A 
ATOM      8  C   UNL d   1      25.333 -16.513  -0.997  0.00  0.00     0.012 A 
ATOM      9  C   UNL d   1      23.983 -16.701  -1.274  0.00  0.00     0.037 A 
ATOM     10  C   UNL d   1      23.297 -17.758  -0.670  0.00  0.00     0.102 A 
ATOM     11  C   UNL d   1      23.929 -18.575   0.275  0.00  0.00     0.037 A 
ATOM     12  C   UNL d   1      25.267 -18.341   0.592  0.00  0.00     0.012 A 
BRANCH  10  13
ATOM     13  N   UNL d   1      21.925 -18.054  -1.091  0.00  0.00    -0.116 N 
ATOM     14  O   UNL d   1      21.063 -17.184  -0.895  0.00  0.00    -0.532 OA
ATOM     15  O   UNL d   1      21.713 -19.142  -1.645  0.00  0.00    -0.532 OA
ENDBRANCH  10  13
ENDBRANCH   6   7
BRANCH   6  16
ATOM     16  O   UNL d   1      28.367 -17.721  -0.300  0.00  0.00    -0.389 OA
ATOM     17  H   UNL d   1      28.926 -18.181   0.348  0.00  0.00     0.210 HD
ENDBRANCH   6  16
ENDBRANCH   5   6
ENDBRANCH   3   5
BRANCH   1  18
ATOM     18  C   UNL d   1      27.920 -13.139   3.316  0.00  0.00     0.094 A 
ATOM     19  C   UNL d   1      29.311 -13.392   3.863  0.00  0.00     0.030 A 
ATOM     20  C   UNL d   1      28.105 -13.761   4.702  0.00  0.00    -0.027 A 
ATOM     21  C   UNL d   1      27.782 -15.195   5.029  0.00  0.00     0.016 C 
ATOM     22  C   UNL d   1      27.833 -12.852   5.887  0.00  0.00     0.016 C 
BRANCH  19  23
ATOM     23  C   UNL d   1      30.255 -14.402   3.346  0.00  0.00    -0.019 C 
ATOM     24  C   UNL d   1      31.109 -14.205   2.317  0.00  0.00    -0.091 C 
ATOM     25  C   UNL d   1      32.048 -15.284   1.848  0.00  0.00     0.042 C 
ATOM     26  C   UNL d   1      31.152 -12.897   1.572  0.00  0.00     0.042 C 
ENDBRANCH  19  23
ENDBRANCH   1  18
TORSDOF 7
ENDMDL
MODEL 3
REMARK VINA RESULT:    -7.062      2.534      4.143
REMARK INTER + INTRA:         -10.938
REMARK INTER:                  -9.150
REMARK INTRA:                  -1.789
REMARK CONF_INDEPENDENT:        2.088
REMARK UNBOUND:                -1.789
REMARK  7 active torsions:
REMARK  status: ('A' for Active; 'I' for Inactive)
REMARK    1  A    between atoms: C_4  and  C_5 
REMARK    2  A    between atoms: C_6  and  C_7 
REMARK       I    between atoms: C_7  and  N_9 
REMARK    3  A    between atoms: N_9  and  C_10 
REMARK    4  A    between atoms: C_11  and  C_10 
REMARK    5  A    between atoms: C_11  and  C_13 
REMARK    6  A    between atoms: C_11  and  O_12 
REMARK    7  A    between atoms: C_16  and  N_17 
ROOT
ATOM      1  C   UNL d   1      26.127 -17.231  -0.262  0.00  0.00     0.223 C 
ATOM      2  O   UNL d   1      26.687 -18.292  -0.494  0.00  0.00    -0.273 OA
ATOM      3  N   UNL d   1      24.768 -17.112  -0.235  0.00  0.00    -0.358 N 
ATOM      4  H   UNL d   1      24.354 -16.211  -0.151  0.00  0.00     0.162 HD
ENDROOT
BRANCH   3   5
ATOM      5  C   UNL d   1      23.877 -18.252  -0.291  0.00  0.00     0.159 C 
BRANCH   5   6
ATOM      6  C   UNL d   1      22.549 -17.891  -1.000  0.00  0.00     0.169 C 
BRANCH   6   7
ATOM      7  C   UNL d   1      21.420 -18.725  -0.433  0.00  0.00    -0.028 A 
ATOM      8  C   UNL d   1      20.365 -19.166  -1.245  0.00  0.00     0.012 A 
ATOM      9  C   UNL d   1      19.242 -19.763  -0.682  0.00  0.00     0.037 A 
ATOM     10  C   UNL d   1      19.214 -20.019   0.692  0.00  0.00     0.102 A 
ATOM     11  C   UNL d   1      20.264 -19.603   1.519  0.00  0.00     0.037 A 
ATOM     12  C   UNL d   1      21.360 -18.950   0.954  0.00  0.00     0.012 A 
BRANCH  10  13
ATOM     13  N   UNL d   1      18.106 -20.797   1.252  0.00  0.00    -0.116 N 
ATOM     14  O   UNL d   1      17.704 -21.775   0.604  0.00  0.00    -0.532 OA
ATOM     15  O   UNL d   1      17.655 -20.450   2.352  0.00  0.00    -0.532 OA
ENDBRANCH  10  13
ENDBRANCH   6   7
BRANCH   6  16
ATOM     16  O   UNL d   1      22.282 -16.495  -0.895  0.00  0.00    -0.389 OA
ATOM     17  H   UNL d   1      23.007 -16.024  -1.337  0.00  0.00     0.210 HD
ENDBRANCH   6  16
ENDBRANCH   5   6
ENDBRANCH   3   5
BRANCH   1  18
ATOM     18  C   UNL d   1      26.946 -16.005  -0.046  0.00  0.00     0.094 A 
ATOM     19  C   UNL d   1      27.361 -15.057  -1.152  0.00  0.00     0.030 A 
ATOM     20  C   UNL d   1      28.427 -15.726  -0.310  0.00  0.00    -0.027 A 
ATOM     21  C   UNL d   1      29.379 -16.733  -0.899  0.00  0.00     0.016 C 
ATOM     22  C   UNL d   1      29.129 -14.824   0.689  0.00  0.00     0.016 C 
BRANCH  19  23
ATOM     23  C   UNL d   1      27.211 -15.320  -2.596  0.00  0.00    -0.019 C 
ATOM     24  C   UNL d   1      26.058 -15.189  -3.290  0.00  0.00    -0.091 C 
ATOM     25  C   UNL d   1      25.983 -15.473  -4.766  0.00  0.00     0.042 C 
ATOM     26  C   UNL d   1      24.780 -14.767  -2.614  0.00  0.00     0.042 C 
ENDBRANCH  19  23
ENDBRANCH   1  18
TORSDOF 7
ENDMDL
MODEL 4
REMARK VINA RESULT:    -6.946      1.388      2.767
REMARK INTER + INTRA:         -10.838
REMARK INTER:                  -9.035
REMARK INTRA:                  -1.803
REMARK CONF_INDEPENDENT:        2.088
REMARK UNBOUND:                -1.803
REMARK  7 active torsions:
REMARK  status: ('A' for Active; 'I' for Inactive)
REMARK    1  A    between atoms: C_4  and  C_5 
REMARK    2  A    between atoms: C_6  and  C_7 
REMARK       I    between atoms: C_7  and  N_9 
REMARK    3  A    between atoms: N_9  and  C_10 
REMARK    4  A    between atoms: C_11  and  C_10 
REMARK    5  A    between atoms: C_11  and  C_13 
REMARK    6  A    between atoms: C_11  and  O_12 
REMARK    7  A    between atoms: C_16  and  N_17 
ROOT
ATOM      1  C   UNL d   1      26.824 -14.196  -1.930  0.00  0.00     0.223 C 
ATOM      2  O   UNL d   1      26.273 -13.204  -1.477  0.00  0.00    -0.273 OA
ATOM      3  N   UNL d   1      26.858 -15.384  -1.259  0.00  0.00    -0.358 N 
ATOM      4  H   UNL d   1      27.409 -16.134  -1.612  0.00  0.00     0.162 HD
ENDROOT
BRANCH   3   5
ATOM      5  C   UNL d   1      26.095 -15.629  -0.054  0.00  0.00     0.159 C 
BRANCH   5   6
ATOM      6  C   UNL d   1      25.905 -17.146   0.191  0.00  0.00     0.169 C 
BRANCH   6   7
ATOM      7  C   UNL d   1      24.530 -17.574  -0.273  0.00  0.00    -0.028 A 
ATOM      8  C   UNL d   1      23.556 -16.630  -0.627  0.00  0.00     0.012 A 
ATOM      9  C   UNL d   1      22.242 -17.023  -0.864  0.00  0.00     0.037 A 
ATOM     10  C   UNL d   1      21.919 -18.383  -0.853  0.00  0.00     0.102 A 
ATOM     11  C   UNL d   1      22.878 -19.345  -0.520  0.00  0.00     0.037 A 
ATOM     12  C   UNL d   1      24.179 -18.936  -0.223  0.00  0.00     0.012 A 
BRANCH  10  13
ATOM     13  N   UNL d   1      20.577 -18.801  -1.268  0.00  0.00    -0.116 N 
ATOM     14  O   UNL d   1      19.609 -18.197  -0.780  0.00  0.00    -0.532 OA
ATOM     15  O   UNL d   1      20.489 -19.712  -2.102  0.00  0.00    -0.532 OA
ENDBRANCH  10  13
ENDBRANCH   6   7
BRANCH   6  16
ATOM     16  O   UNL d   1      26.937 -17.894  -0.446  0.00  0.00    -0.389 OA
ATOM     17  H   UNL d   1      27.785 -17.602  -0.073  0.00  0.00     0.210 HD
ENDBRANCH   6  16
ENDBRANCH   5   6
ENDBRANCH   3   5
BRANCH   1  18
ATOM     18  C   UNL d   1      27.528 -14.107  -3.240  0.00  0.00     0.094 A 
ATOM     19  C   UNL d   1      27.291 -13.008  -4.257  0.00  0.00     0.030 A 
ATOM     20  C   UNL d   1      27.064 -14.451  -4.656  0.00  0.00    -0.027 A 
ATOM     21  C   UNL d   1      25.690 -14.970  -4.987  0.00  0.00     0.016 C 
ATOM     22  C   UNL d   1      28.112 -15.044  -5.581  0.00  0.00     0.016 C 
BRANCH  19  23
ATOM     23  C   UNL d   1      26.196 -12.021  -4.199  0.00  0.00    -0.019 C 
ATOM     24  C   UNL d   1      26.364 -10.691  -4.022  0.00  0.00    -0.091 C 
ATOM     25  C   UNL d   1      25.195  -9.743  -3.977  0.00  0.00     0.042 C 
ATOM     26  C   UNL d   1      27.733 -10.090  -3.841  0.00  0.00     0.042 C 
ENDBRANCH  19  23
ENDBRANCH   1  18
TORSDOF 7
ENDMDL
MODEL 5
REMARK VINA RESULT:    -6.814      4.502      8.160
REMARK INTER + INTRA:         -10.666
REMARK INTER:                  -8.902
REMARK INTRA:                  -1.764
REMARK CONF_INDEPENDENT:        2.088
REMARK UNBOUND:                -1.764
REMARK  7 active torsions:
REMARK  status: ('A' for Active; 'I' for Inactive)
REMARK    1  A    between atoms: C_4  and  C_5 
REMARK    2  A    between atoms: C_6  and  C_7 
REMARK       I    between atoms: C_7  and  N_9 
REMARK    3  A    between atoms: N_9  and  C_10 
REMARK    4  A    between atoms: C_11  and  C_10 
REMARK    5  A    between atoms: C_11  and  C_13 
REMARK    6  A    between atoms: C_11  and  O_12 
REMARK    7  A    between atoms: C_16  and  N_17 
ROOT
ATOM      1  C   UNL d   1      25.904 -14.246  -3.176  0.00  0.00     0.223 C 
ATOM      2  O   UNL d   1      24.884 -14.315  -3.846  0.00  0.00    -0.273 OA
ATOM      3  N   UNL d   1      26.548 -13.065  -2.947  0.00  0.00    -0.358 N 
ATOM      4  H   UNL d   1      27.432 -13.067  -2.490  0.00  0.00     0.162 HD
ENDROOT
BRANCH   3   5
ATOM      5  C   UNL d   1      25.989 -11.780  -3.310  0.00  0.00     0.159 C 
BRANCH   5   6
ATOM      6  C   UNL d   1      27.053 -10.660  -3.216  0.00  0.00     0.169 C 
BRANCH   6   7
ATOM      7  C   UNL d   1      26.813  -9.823  -1.978  0.00  0.00    -0.028 A 
ATOM      8  C   UNL d   1      27.411 -10.150  -0.753  0.00  0.00     0.012 A 
ATOM      9  C   UNL d   1      27.035  -9.495   0.415  0.00  0.00     0.037 A 
ATOM     10  C   UNL d   1      26.131  -8.431   0.347  0.00  0.00     0.102 A 
ATOM     11  C   UNL d   1      25.533  -8.076  -0.868  0.00  0.00     0.037 A 
ATOM     12  C   UNL d   1      25.871  -8.779  -2.025  0.00  0.00     0.012 A 
BRANCH  10  13
ATOM     13  N   UNL d   1      25.867  -7.639   1.551  0.00  0.00    -0.116 N 
ATOM     14  O   UNL d   1      25.222  -6.588   1.419  0.00  0.00    -0.532 OA
ATOM     15  O   UNL d   1      26.278  -8.080   2.633  0.00  0.00    -0.532 OA
ENDBRANCH  10  13
ENDBRANCH   6   7
BRANCH   6  16
ATOM     16  O   UNL d   1      28.369 -11.207  -3.240  0.00  0.00    -0.389 OA
ATOM     17  H   UNL d   1      28.995 -10.466  -3.247  0.00  0.00     0.210 HD
ENDBRANCH   6  16
ENDBRANCH   5   6
ENDBRANCH   3   5
BRANCH   1  18
ATOM     18  C   UNL d   1      26.502 -15.494  -2.624  0.00  0.00     0.094 A 
ATOM     19  C   UNL d   1      25.697 -16.615  -1.999  0.00  0.00     0.030 A 
ATOM     20  C   UNL d   1      26.771 -15.927  -1.182  0.00  0.00    -0.027 A 
ATOM     21  C   UNL d   1      26.430 -15.092   0.023  0.00  0.00     0.016 C 
ATOM     22  C   UNL d   1      28.033 -16.739  -0.949  0.00  0.00     0.016 C 
BRANCH  19  23
ATOM     23  C   UNL d   1      24.266 -16.539  -1.649  0.00  0.00    -0.019 C 
ATOM     24  C   UNL d   1      23.623 -17.406  -0.834  0.00  0.00    -0.091 C 
ATOM     25  C   UNL d   1      22.158 -17.261  -0.521  0.00  0.00     0.042 C 
ATOM     26  C   UNL d   1      24.338 -18.575  -0.212  0.00  0.00     0.042 C 
ENDBRANCH  19  23
ENDBRANCH   1  18
TORSDOF 7
ENDMDL
MODEL 6
REMARK VINA RESULT:    -6.568      8.761     11.663
REMARK INTER + INTRA:         -10.359
REMARK INTER:                  -8.656
REMARK INTRA:                  -1.703
REMARK CONF_INDEPENDENT:        2.088
REMARK UNBOUND:                -1.703
REMARK  7 active torsions:
REMARK  status: ('A' for Active; 'I' for Inactive)
REMARK    1  A    between atoms: C_4  and  C_5 
REMARK    2  A    between atoms: C_6  and  C_7 
REMARK       I    between atoms: C_7  and  N_9 
REMARK    3  A    between atoms: N_9  and  C_10 
REMARK    4  A    between atoms: C_11  and  C_10 
REMARK    5  A    between atoms: C_11  and  C_13 
REMARK    6  A    between atoms: C_11  and  O_12 
REMARK    7  A    between atoms: C_16  and  N_17 
ROOT
ATOM      1  C   UNL d   1      29.232 -13.637   6.930  0.00  0.00     0.223 C 
ATOM      2  O   UNL d   1      28.192 -13.325   7.490  0.00  0.00    -0.273 OA
ATOM      3  N   UNL d   1      29.253 -14.411   5.806  0.00  0.00    -0.358 N 
ATOM      4  H   UNL d   1      30.122 -14.733   5.445  0.00  0.00     0.162 HD
ENDROOT
BRANCH   3   5
ATOM      5  C   UNL d   1      28.055 -14.771   5.077  0.00  0.00     0.159 C 
BRANCH   5   6
ATOM      6  C   UNL d   1      28.153 -14.341   3.593  0.00  0.00     0.169 C 
BRANCH   6   7
ATOM      7  C   UNL d   1      27.584 -12.949   3.422  0.00  0.00    -0.028 A 
ATOM      8  C   UNL d   1      26.956 -12.562   2.230  0.00  0.00     0.012 A 
ATOM      9  C   UNL d   1      26.611 -11.232   2.012  0.00  0.00     0.037 A 
ATOM     10  C   UNL d   1      26.796 -10.296   3.034  0.00  0.00     0.102 A 
ATOM     11  C   UNL d   1      27.405 -10.663   4.239  0.00  0.00     0.037 A 
ATOM     12  C   UNL d   1      27.804 -11.988   4.426  0.00  0.00     0.012 A 
BRANCH  10  13
ATOM     13  N   UNL d   1      26.278  -8.937   2.860  0.00  0.00    -0.116 N 
ATOM     14  O   UNL d   1      25.316  -8.781   2.093  0.00  0.00    -0.532 OA
ATOM     15  O   UNL d   1      26.811  -8.028   3.513  0.00  0.00    -0.532 OA
ENDBRANCH  10  13
ENDBRANCH   6   7
BRANCH   6  16
ATOM     16  O   UNL d   1      29.497 -14.426   3.128  0.00  0.00    -0.389 OA
ATOM     17  H   UNL d   1      29.777 -15.352   3.206  0.00  0.00     0.210 HD
ENDBRANCH   6  16
ENDBRANCH   5   6
ENDBRANCH   3   5
BRANCH   1  18
ATOM     18  C   UNL d   1      30.534 -13.203   7.510  0.00  0.00     0.094 A 
ATOM     19  C   UNL d   1      30.730 -12.828   8.965  0.00  0.00     0.030 A 
ATOM     20  C   UNL d   1      31.053 -11.814   7.887  0.00  0.00    -0.027 A 
ATOM     21  C   UNL d   1      30.253 -10.548   7.732  0.00  0.00     0.016 C 
ATOM     22  C   UNL d   1      32.532 -11.563   7.651  0.00  0.00     0.016 C 
BRANCH  19  23
ATOM     23  C   UNL d   1      29.644 -12.625   9.943  0.00  0.00    -0.019 C 
ATOM     24  C   UNL d   1      28.869 -13.609  10.452  0.00  0.00    -0.091 C 
ATOM     25  C   UNL d   1      27.779 -13.325  11.451  0.00  0.00     0.042 C 
ATOM     26  C   UNL d   1      29.046 -15.044  10.030  0.00  0.00     0.042 C 
ENDBRANCH  19  23
ENDBRANCH   1  18
TORSDOF 7
ENDMDL
MODEL 7
REMARK VINA RESULT:    -6.561      1.597      3.090
REMARK INTER + INTRA:         -10.525
REMARK INTER:                  -8.649
REMARK INTRA:                  -1.876
REMARK CONF_INDEPENDENT:        2.088
REMARK UNBOUND:                -1.876
REMARK  7 active torsions:
REMARK  status: ('A' for Active; 'I' for Inactive)
REMARK    1  A    between atoms: C_4  and  C_5 
REMARK    2  A    between atoms: C_6  and  C_7 
REMARK       I    between atoms: C_7  and  N_9 
REMARK    3  A    between atoms: N_9  and  C_10 
REMARK    4  A    between atoms: C_11  and  C_10 
REMARK    5  A    between atoms: C_11  and  C_13 
REMARK    6  A    between atoms: C_11  and  O_12 
REMARK    7  A    between atoms: C_16  and  N_17 
ROOT
ATOM      1  C   UNL d   1      26.428 -15.203  -3.958  0.00  0.00     0.223 C 
ATOM      2  O   UNL d   1      25.423 -14.815  -4.535  0.00  0.00    -0.273 OA
ATOM      3  N   UNL d   1      26.473 -15.379  -2.606  0.00  0.00    -0.358 N 
ATOM      4  H   UNL d   1      27.339 -15.590  -2.165  0.00  0.00     0.162 HD
ENDROOT
BRANCH   3   5
ATOM      5  C   UNL d   1      25.297 -15.307  -1.764  0.00  0.00     0.159 C 
BRANCH   5   6
ATOM      6  C   UNL d   1      25.398 -16.294  -0.576  0.00  0.00     0.169 C 
BRANCH   6   7
ATOM      7  C   UNL d   1      24.164 -17.170  -0.529  0.00  0.00    -0.028 A 
ATOM      8  C   UNL d   1      24.265 -18.558  -0.355  0.00  0.00     0.012 A 
ATOM      9  C   UNL d   1      23.147 -19.372  -0.506  0.00  0.00     0.037 A 
ATOM     10  C   UNL d   1      21.897 -18.790  -0.728  0.00  0.00     0.102 A 
ATOM     11  C   UNL d   1      21.769 -17.406  -0.889  0.00  0.00     0.037 A 
ATOM     12  C   UNL d   1      22.906 -16.602  -0.796  0.00  0.00     0.012 A 
BRANCH  10  13
ATOM     13  N   UNL d   1      20.702 -19.638  -0.719  0.00  0.00    -0.116 N 
ATOM     14  O   UNL d   1      20.163 -19.862   0.376  0.00  0.00    -0.532 OA
ATOM     15  O   UNL d   1      20.283 -20.058  -1.807  0.00  0.00    -0.532 OA
ENDBRANCH  10  13
ENDBRANCH   6   7
BRANCH   6  16
ATOM     16  O   UNL d   1      26.594 -17.065  -0.658  0.00  0.00    -0.389 OA
ATOM     17  H   UNL d   1      27.337 -16.445  -0.737  0.00  0.00     0.210 HD
ENDBRANCH   6  16
ENDBRANCH   5   6
ENDBRANCH   3   5
BRANCH   1  18
ATOM     18  C   UNL d   1      27.671 -15.450  -4.743  0.00  0.00     0.094 A 
ATOM     19  C   UNL d   1      29.055 -15.034  -4.290  0.00  0.00     0.030 A 
ATOM     20  C   UNL d   1      28.517 -14.513  -5.606  0.00  0.00    -0.027 A 
ATOM     21  C   UNL d   1      28.211 -13.053  -5.809  0.00  0.00     0.016 C 
ATOM     22  C   UNL d   1      29.136 -15.124  -6.851  0.00  0.00     0.016 C 
BRANCH  19  23
ATOM     23  C   UNL d   1      29.343 -14.148  -3.146  0.00  0.00    -0.019 C 
ATOM     24  C   UNL d   1      29.667 -14.572  -1.903  0.00  0.00    -0.091 C 
ATOM     25  C   UNL d   1      29.951 -13.606  -0.784  0.00  0.00     0.042 C 
ATOM     26  C   UNL d   1      29.741 -16.039  -1.569  0.00  0.00     0.042 C 
ENDBRANCH  19  23
ENDBRANCH   1  18
TORSDOF 7
ENDMDL
MODEL 8
REMARK VINA RESULT:    -6.559      4.823      7.304
REMARK INTER + INTRA:         -10.155
REMARK INTER:                  -8.647
REMARK INTRA:                  -1.508
REMARK CONF_INDEPENDENT:        2.088
REMARK UNBOUND:                -1.508
REMARK  7 active torsions:
REMARK  status: ('A' for Active; 'I' for Inactive)
REMARK    1  A    between atoms: C_4  and  C_5 
REMARK    2  A    between atoms: C_6  and  C_7 
REMARK       I    between atoms: C_7  and  N_9 
REMARK    3  A    between atoms: N_9  and  C_10 
REMARK    4  A    between atoms: C_11  and  C_10 
REMARK    5  A    between atoms: C_11  and  C_13 
REMARK    6  A    between atoms: C_11  and  O_12 
REMARK    7  A    between atoms: C_16  and  N_17 
ROOT
ATOM      1  C   UNL d   1      27.469 -13.872  -1.567  0.00  0.00     0.223 C 
ATOM      2  O   UNL d   1      28.441 -13.774  -2.302  0.00  0.00    -0.273 OA
ATOM      3  N   UNL d   1      27.587 -14.073  -0.223  0.00  0.00    -0.358 N 
ATOM      4  H   UNL d   1      26.774 -14.256   0.321  0.00  0.00     0.162 HD
ENDROOT
BRANCH   3   5
ATOM      5  C   UNL d   1      28.853 -14.000   0.476  0.00  0.00     0.159 C 
BRANCH   5   6
ATOM      6  C   UNL d   1      28.644 -13.739   1.988  0.00  0.00     0.169 C 
BRANCH   6   7
ATOM      7  C   UNL d   1      28.025 -12.372   2.193  0.00  0.00    -0.028 A 
ATOM      8  C   UNL d   1      26.638 -12.184   2.113  0.00  0.00     0.012 A 
ATOM      9  C   UNL d   1      26.098 -10.901   2.110  0.00  0.00     0.037 A 
ATOM     10  C   UNL d   1      26.939  -9.800   2.296  0.00  0.00     0.102 A 
ATOM     11  C   UNL d   1      28.325  -9.966   2.395  0.00  0.00     0.037 A 
ATOM     12  C   UNL d   1      28.864 -11.252   2.335  0.00  0.00     0.012 A 
BRANCH  10  13
ATOM     13  N   UNL d   1      26.347  -8.470   2.460  0.00  0.00    -0.116 N 
ATOM     14  O   UNL d   1      25.548  -8.084   1.594  0.00  0.00    -0.532 OA
ATOM     15  O   UNL d   1      26.658  -7.821   3.469  0.00  0.00    -0.532 OA
ENDBRANCH  10  13
ENDBRANCH   6   7
BRANCH   6  16
ATOM     16  O   UNL d   1      27.859 -14.771   2.577  0.00  0.00    -0.389 OA
ATOM     17  H   UNL d   1      28.457 -15.502   2.803  0.00  0.00     0.210 HD
ENDBRANCH   6  16
ENDBRANCH   5   6
ENDBRANCH   3   5
BRANCH   1  18
ATOM     18  C   UNL d   1      26.101 -13.819  -2.155  0.00  0.00     0.094 A 
ATOM     19  C   UNL d   1      25.077 -14.928  -2.018  0.00  0.00     0.030 A 
ATOM     20  C   UNL d   1      25.516 -14.489  -3.399  0.00  0.00    -0.027 A 
ATOM     21  C   UNL d   1      26.295 -15.405  -4.305  0.00  0.00     0.016 C 
ATOM     22  C   UNL d   1      24.496 -13.680  -4.180  0.00  0.00     0.016 C 
BRANCH  19  23
ATOM     23  C   UNL d   1      25.353 -16.278  -1.491  0.00  0.00    -0.019 C 
ATOM     24  C   UNL d   1      24.461 -17.044  -0.822  0.00  0.00    -0.091 C 
ATOM     25  C   UNL d   1      24.816 -18.416  -0.316  0.00  0.00     0.042 C 
ATOM     26  C   UNL d   1      23.068 -16.553  -0.533  0.00  0.00     0.042 C 
ENDBRANCH  19  23
ENDBRANCH   1  18
TORSDOF 7
ENDMDL
MODEL 9
REMARK VINA RESULT:    -6.482      5.089      7.070
REMARK INTER + INTRA:         -10.495
REMARK INTER:                  -8.571
REMARK INTRA:                  -1.925
REMARK CONF_INDEPENDENT:        2.088
REMARK UNBOUND:                -1.925
REMARK  7 active torsions:
REMARK  status: ('A' for Active; 'I' for Inactive)
REMARK    1  A    between atoms: C_4  and  C_5 
REMARK    2  A    between atoms: C_6  and  C_7 
REMARK       I    between atoms: C_7  and  N_9 
REMARK    3  A    between atoms: N_9  and  C_10 
REMARK    4  A    between atoms: C_11  and  C_10 
REMARK    5  A    between atoms: C_11  and  C_13 
REMARK    6  A    between atoms: C_11  and  O_12 
REMARK    7  A    between atoms: C_16  and  N_17 
ROOT
ATOM      1  C   UNL d   1      28.871 -15.236  -0.172  0.00  0.00     0.223 C 
ATOM      2  O   UNL d   1      29.584 -14.519  -0.858  0.00  0.00    -0.273 OA
ATOM      3  N   UNL d   1      28.879 -15.183   1.192  0.00  0.00    -0.358 N 
ATOM      4  H   UNL d   1      28.365 -15.857   1.713  0.00  0.00     0.162 HD
ENDROOT
BRANCH   3   5
ATOM      5  C   UNL d   1      29.580 -14.159   1.936  0.00  0.00     0.159 C 
BRANCH   5   6
ATOM      6  C   UNL d   1      28.853 -13.834   3.264  0.00  0.00     0.169 C 
BRANCH   6   7
ATOM      7  C   UNL d   1      28.049 -12.561   3.111  0.00  0.00    -0.028 A 
ATOM      8  C   UNL d   1      27.432 -12.233   1.895  0.00  0.00     0.012 A 
ATOM      9  C   UNL d   1      26.862 -10.978   1.708  0.00  0.00     0.037 A 
ATOM     10  C   UNL d   1      26.811 -10.079   2.777  0.00  0.00     0.102 A 
ATOM     11  C   UNL d   1      27.404 -10.391   4.005  0.00  0.00     0.037 A 
ATOM     12  C   UNL d   1      28.028 -11.630   4.165  0.00  0.00     0.012 A 
BRANCH  10  13
ATOM     13  N   UNL d   1      26.062  -8.828   2.624  0.00  0.00    -0.116 N 
ATOM     14  O   UNL d   1      25.037  -8.853   1.927  0.00  0.00    -0.532 OA
ATOM     15  O   UNL d   1      26.481  -7.828   3.224  0.00  0.00    -0.532 OA
ENDBRANCH  10  13
ENDBRANCH   6   7
BRANCH   6  16
ATOM     16  O   UNL d   1      28.042 -14.929   3.678  0.00  0.00    -0.389 OA
ATOM     17  H   UNL d   1      28.497 -15.747   3.418  0.00  0.00     0.210 HD
ENDBRANCH   6  16
ENDBRANCH   5   6
ENDBRANCH   3   5
BRANCH   1  18
ATOM     18  C   UNL d   1      27.992 -16.241  -0.834  0.00  0.00     0.094 A 
ATOM     19  C   UNL d   1      27.208 -15.975  -2.103  0.00  0.00     0.030 A 
ATOM     20  C   UNL d   1      26.469 -16.389  -0.847  0.00  0.00    -0.027 A 
ATOM     21  C   UNL d   1      25.527 -15.450  -0.142  0.00  0.00     0.016 C 
ATOM     22  C   UNL d   1      25.934 -17.810  -0.845  0.00  0.00     0.016 C 
BRANCH  19  23
ATOM     23  C   UNL d   1      27.027 -14.651  -2.728  0.00  0.00    -0.019 C 
ATOM     24  C   UNL d   1      26.432 -14.435  -3.923  0.00  0.00    -0.091 C 
ATOM     25  C   UNL d   1      26.281 -13.051  -4.495  0.00  0.00     0.042 C 
ATOM     26  C   UNL d   1      25.905 -15.575  -4.754  0.00  0.00     0.042 C 
ENDBRANCH  19  23
ENDBRANCH   1  18
TORSDOF 7
ENDMDL
