MODEL 1
REMARK VINA RESULT:    -6.828      0.000      0.000
REMARK INTER + INTRA:          -8.802
REMARK INTER:                  -8.021
REMARK INTRA:                  -0.781
REMARK CONF_INDEPENDENT:        1.193
REMARK UNBOUND:                -0.781
REMARK  4 active torsions:
REMARK  status: ('A' for Active; 'I' for Inactive)
REMARK    1  A    between atoms: O_2  and  C_3 
REMARK    2  A    between atoms: C_6  and  N_7 
REMARK       I    between atoms: N_7  and  C_8 
REMARK       I    between atoms: C_8  and  N_10 
REMARK    3  A    between atoms: N_10  and  C_11 
REMARK    4  A    between atoms: C_16  and  O_17 
ROOT
ATOM      1  N   UNL d   1      24.479 -17.313  -0.077  0.00  0.00    -0.308 N 
ATOM      2  C   UNL d   1      23.076 -17.402   0.006  0.00  0.00     0.325 C 
ATOM      3  O   UNL d   1      22.278 -16.618  -0.515  0.00  0.00    -0.247 OA
ATOM      4  N   UNL d   1      22.631 -18.581   0.635  0.00  0.00    -0.306 N 
ATOM      5  H   UNL d   1      24.983 -17.670   0.723  0.00  0.00     0.170 HD
ATOM      6  H   UNL d   1      22.871 -18.649   1.615  0.00  0.00     0.171 HD
ENDROOT
BRANCH   1   7
ATOM      7  C   UNL d   1      25.288 -16.681  -1.110  0.00  0.00     0.042 A 
ATOM      8  C   UNL d   1      24.632 -15.833  -2.037  0.00  0.00     0.033 A 
ATOM      9  C   UNL d   1      25.317 -15.202  -3.111  0.00  0.00     0.039 A 
ATOM     10  C   UNL d   1      26.685 -15.364  -3.267  0.00  0.00     0.068 A 
ATOM     11  C   UNL d   1      27.361 -16.120  -2.323  0.00  0.00     0.045 A 
ATOM     12  C   UNL d   1      26.693 -16.768  -1.247  0.00  0.00    -0.033 A 
ATOM     13  C   UNL d   1      27.636 -17.452  -0.307  0.00  0.00     0.050 C 
BRANCH  10  14
ATOM     14  O   UNL d   1      27.444 -14.933  -4.319  0.00  0.00    -0.356 OA
ATOM     15  C   UNL d   1      26.756 -14.302  -5.389  0.00  0.00     0.210 C 
ENDBRANCH  10  14
ENDBRANCH   1   7
BRANCH   4  16
ATOM     16  C   UNL d   1      21.335 -19.102   0.278  0.00  0.00     0.069 A 
ATOM     17  C   UNL d   1      20.991 -19.236  -1.085  0.00  0.00     0.032 A 
ATOM     18  C   UNL d   1      19.720 -19.700  -1.478  0.00  0.00     0.002 A 
ATOM     19  C   UNL d   1      18.787 -20.077  -0.520  0.00  0.00     0.003 A 
ATOM     20  C   UNL d   1      19.120 -19.965   0.829  0.00  0.00     0.039 A 
ATOM     21  C   UNL d   1      20.373 -19.468   1.246  0.00  0.00     0.095 A 
BRANCH  21  22
ATOM     22  O   UNL d   1      20.441 -19.388   2.615  0.00  0.00    -0.354 OA
ATOM     23  C   UNL d   1      19.950 -20.450   3.403  0.00  0.00     0.210 C 
ENDBRANCH  21  22
ENDBRANCH   4  16
TORSDOF 4
ENDMDL
MODEL 2
REMARK VINA RESULT:    -6.710      4.380      7.712
REMARK INTER + INTRA:          -8.490
REMARK INTER:                  -7.903
REMARK INTRA:                  -0.587
REMARK CONF_INDEPENDENT:        1.193
REMARK UNBOUND:                -0.587
REMARK  4 active torsions:
REMARK  status: ('A' for Active; 'I' for Inactive)
REMARK    1  A    between atoms: O_2  and  C_3 
REMARK    2  A    between atoms: C_6  and  N_7 
REMARK       I    between atoms: N_7  and  C_8 
REMARK       I    between atoms: C_8  and  N_10 
REMARK    3  A    between atoms: N_10  and  C_11 
REMARK    4  A    between atoms: C_16  and  O_17 
ROOT
ATOM      1  N   UNL d   1      26.930 -16.714   0.418  0.00  0.00    -0.308 N 
ATOM      2  C   UNL d   1      27.284 -15.367   0.627  0.00  0.00     0.325 C 
ATOM      3  O   UNL d   1      26.865 -14.407  -0.026  0.00  0.00    -0.247 OA
ATOM      4  N   UNL d   1      28.073 -15.174   1.778  0.00  0.00    -0.306 N 
ATOM      5  H   UNL d   1      27.644 -17.389   0.649  0.00  0.00     0.170 HD
ATOM      6  H   UNL d   1      28.992 -15.593   1.730  0.00  0.00     0.171 HD
ENDROOT
BRANCH   1   7
ATOM      7  C   UNL d   1      25.717 -17.248  -0.185  0.00  0.00     0.042 A 
ATOM      8  C   UNL d   1      24.903 -18.097   0.605  0.00  0.00     0.033 A 
ATOM      9  C   UNL d   1      23.723 -18.709   0.102  0.00  0.00     0.039 A 
ATOM     10  C   UNL d   1      23.296 -18.458  -1.193  0.00  0.00     0.068 A 
ATOM     11  C   UNL d   1      24.030 -17.564  -1.957  0.00  0.00     0.045 A 
ATOM     12  C   UNL d   1      25.218 -16.950  -1.476  0.00  0.00    -0.033 A 
ATOM     13  C   UNL d   1      25.790 -15.958  -2.440  0.00  0.00     0.050 C 
BRANCH  10  14
ATOM     14  O   UNL d   1      22.268 -19.075  -1.848  0.00  0.00    -0.356 OA
ATOM     15  C   UNL d   1      20.975 -18.955  -1.270  0.00  0.00     0.210 C 
ENDBRANCH  10  14
ENDBRANCH   1   7
BRANCH   4  16
ATOM     16  C   UNL d   1      28.009 -13.899   2.448  0.00  0.00     0.069 A 
ATOM     17  C   UNL d   1      28.156 -12.711   1.699  0.00  0.00     0.032 A 
ATOM     18  C   UNL d   1      28.143 -11.446   2.319  0.00  0.00     0.002 A 
ATOM     19  C   UNL d   1      27.942 -11.343   3.690  0.00  0.00     0.003 A 
ATOM     20  C   UNL d   1      27.780 -12.506   4.439  0.00  0.00     0.039 A 
ATOM     21  C   UNL d   1      27.826 -13.786   3.845  0.00  0.00     0.095 A 
BRANCH  21  22
ATOM     22  O   UNL d   1      27.710 -14.774   4.791  0.00  0.00    -0.354 OA
ATOM     23  C   UNL d   1      28.633 -14.834   5.857  0.00  0.00     0.210 C 
ENDBRANCH  21  22
ENDBRANCH   4  16
TORSDOF 4
ENDMDL
MODEL 3
REMARK VINA RESULT:    -6.512      2.336      8.177
REMARK INTER + INTRA:          -8.427
REMARK INTER:                  -7.705
REMARK INTRA:                  -0.722
REMARK CONF_INDEPENDENT:        1.193
REMARK UNBOUND:                -0.722
REMARK  4 active torsions:
REMARK  status: ('A' for Active; 'I' for Inactive)
REMARK    1  A    between atoms: O_2  and  C_3 
REMARK    2  A    between atoms: C_6  and  N_7 
REMARK       I    between atoms: N_7  and  C_8 
REMARK       I    between atoms: C_8  and  N_10 
REMARK    3  A    between atoms: N_10  and  C_11 
REMARK    4  A    between atoms: C_16  and  O_17 
ROOT
ATOM      1  N   UNL d   1      26.080 -15.891  -1.521  0.00  0.00    -0.308 N 
ATOM      2  C   UNL d   1      26.146 -15.184  -2.737  0.00  0.00     0.325 C 
ATOM      3  O   UNL d   1      25.512 -15.459  -3.760  0.00  0.00    -0.247 OA
ATOM      4  N   UNL d   1      26.910 -14.004  -2.651  0.00  0.00    -0.306 N 
ATOM      5  H   UNL d   1      26.929 -15.889  -0.973  0.00  0.00     0.170 HD
ATOM      6  H   UNL d   1      27.896 -14.156  -2.482  0.00  0.00     0.171 HD
ENDROOT
BRANCH   1   7
ATOM      7  C   UNL d   1      24.991 -16.710  -1.006  0.00  0.00     0.042 A 
ATOM      8  C   UNL d   1      23.669 -16.359  -1.373  0.00  0.00     0.033 A 
ATOM      9  C   UNL d   1      22.531 -17.061  -0.891  0.00  0.00     0.039 A 
ATOM     10  C   UNL d   1      22.681 -18.163  -0.063  0.00  0.00     0.068 A 
ATOM     11  C   UNL d   1      23.968 -18.576   0.241  0.00  0.00     0.045 A 
ATOM     12  C   UNL d   1      25.119 -17.881  -0.222  0.00  0.00    -0.033 A 
ATOM     13  C   UNL d   1      26.399 -18.560   0.157  0.00  0.00     0.050 C 
BRANCH  10  14
ATOM     14  O   UNL d   1      21.685 -18.845   0.579  0.00  0.00    -0.356 OA
ATOM     15  C   UNL d   1      20.620 -19.331  -0.226  0.00  0.00     0.210 C 
ENDBRANCH  10  14
ENDBRANCH   1   7
BRANCH   4  16
ATOM     16  C   UNL d   1      26.597 -12.917  -3.544  0.00  0.00     0.069 A 
ATOM     17  C   UNL d   1      26.187 -11.675  -3.011  0.00  0.00     0.032 A 
ATOM     18  C   UNL d   1      25.830 -10.599  -3.848  0.00  0.00     0.002 A 
ATOM     19  C   UNL d   1      25.915 -10.731  -5.228  0.00  0.00     0.003 A 
ATOM     20  C   UNL d   1      26.333 -11.946  -5.768  0.00  0.00     0.039 A 
ATOM     21  C   UNL d   1      26.660 -13.049  -4.950  0.00  0.00     0.095 A 
BRANCH  21  22
ATOM     22  O   UNL d   1      26.976 -14.149  -5.708  0.00  0.00    -0.354 OA
ATOM     23  C   UNL d   1      28.276 -14.694  -5.642  0.00  0.00     0.210 C 
ENDBRANCH  21  22
ENDBRANCH   4  16
TORSDOF 4
ENDMDL
MODEL 4
REMARK VINA RESULT:    -6.482      4.364      7.925
REMARK INTER + INTRA:          -8.401
REMARK INTER:                  -7.675
REMARK INTRA:                  -0.727
REMARK CONF_INDEPENDENT:        1.193
REMARK UNBOUND:                -0.727
REMARK  4 active torsions:
REMARK  status: ('A' for Active; 'I' for Inactive)
REMARK    1  A    between atoms: O_2  and  C_3 
REMARK    2  A    between atoms: C_6  and  N_7 
REMARK       I    between atoms: N_7  and  C_8 
REMARK       I    between atoms: C_8  and  N_10 
REMARK    3  A    between atoms: N_10  and  C_11 
REMARK    4  A    between atoms: C_16  and  O_17 
ROOT
ATOM      1  N   UNL d   1      27.057 -16.408   0.323  0.00  0.00    -0.308 N 
ATOM      2  C   UNL d   1      27.227 -15.175   0.982  0.00  0.00     0.325 C 
ATOM      3  O   UNL d   1      26.497 -14.189   0.855  0.00  0.00    -0.247 OA
ATOM      4  N   UNL d   1      28.254 -15.200   1.947  0.00  0.00    -0.306 N 
ATOM      5  H   UNL d   1      27.908 -16.916   0.129  0.00  0.00     0.170 HD
ATOM      6  H   UNL d   1      29.182 -15.327   1.566  0.00  0.00     0.171 HD
ENDROOT
BRANCH   1   7
ATOM      7  C   UNL d   1      25.832 -16.989  -0.208  0.00  0.00     0.042 A 
ATOM      8  C   UNL d   1      25.132 -17.914   0.605  0.00  0.00     0.033 A 
ATOM      9  C   UNL d   1      23.951 -18.575   0.168  0.00  0.00     0.039 A 
ATOM     10  C   UNL d   1      23.409 -18.300  -1.078  0.00  0.00     0.068 A 
ATOM     11  C   UNL d   1      24.030 -17.336  -1.857  0.00  0.00     0.045 A 
ATOM     12  C   UNL d   1      25.217 -16.672  -1.443  0.00  0.00    -0.033 A 
ATOM     13  C   UNL d   1      25.655 -15.611  -2.404  0.00  0.00     0.050 C 
BRANCH  10  14
ATOM     14  O   UNL d   1      22.369 -18.950  -1.678  0.00  0.00    -0.356 OA
ATOM     15  C   UNL d   1      21.128 -18.950  -0.987  0.00  0.00     0.210 C 
ENDBRANCH  10  14
ENDBRANCH   1   7
BRANCH   4  16
ATOM     16  C   UNL d   1      28.163 -14.299   3.068  0.00  0.00     0.069 A 
ATOM     17  C   UNL d   1      28.155 -14.821   4.380  0.00  0.00     0.032 A 
ATOM     18  C   UNL d   1      28.025 -13.980   5.504  0.00  0.00     0.002 A 
ATOM     19  C   UNL d   1      27.942 -12.603   5.338  0.00  0.00     0.003 A 
ATOM     20  C   UNL d   1      27.965 -12.073   4.050  0.00  0.00     0.039 A 
ATOM     21  C   UNL d   1      28.057 -12.899   2.909  0.00  0.00     0.095 A 
BRANCH  21  22
ATOM     22  O   UNL d   1      27.993 -12.157   1.756  0.00  0.00    -0.354 OA
ATOM     23  C   UNL d   1      27.032 -11.129   1.639  0.00  0.00     0.210 C 
ENDBRANCH  21  22
ENDBRANCH   4  16
TORSDOF 4
ENDMDL
MODEL 5
REMARK VINA RESULT:    -6.416      2.465      8.209
REMARK INTER + INTRA:          -8.303
REMARK INTER:                  -7.609
REMARK INTRA:                  -0.695
REMARK CONF_INDEPENDENT:        1.193
REMARK UNBOUND:                -0.695
REMARK  4 active torsions:
REMARK  status: ('A' for Active; 'I' for Inactive)
REMARK    1  A    between atoms: O_2  and  C_3 
REMARK    2  A    between atoms: C_6  and  N_7 
REMARK       I    between atoms: N_7  and  C_8 
REMARK       I    between atoms: C_8  and  N_10 
REMARK    3  A    between atoms: N_10  and  C_11 
REMARK    4  A    between atoms: C_16  and  O_17 
ROOT
ATOM      1  N   UNL d   1      26.174 -15.672  -1.193  0.00  0.00    -0.308 N 
ATOM      2  C   UNL d   1      27.416 -16.016  -1.760  0.00  0.00     0.325 C 
ATOM      3  O   UNL d   1      27.978 -17.109  -1.643  0.00  0.00    -0.247 OA
ATOM      4  N   UNL d   1      27.924 -15.027  -2.625  0.00  0.00    -0.306 N 
ATOM      5  H   UNL d   1      26.065 -14.697  -0.951  0.00  0.00     0.170 HD
ATOM      6  H   UNL d   1      28.172 -14.159  -2.168  0.00  0.00     0.171 HD
ENDROOT
BRANCH   1   7
ATOM      7  C   UNL d   1      25.077 -16.551  -0.813  0.00  0.00     0.042 A 
ATOM      8  C   UNL d   1      23.773 -16.207  -1.247  0.00  0.00     0.033 A 
ATOM      9  C   UNL d   1      22.625 -16.969  -0.895  0.00  0.00     0.039 A 
ATOM     10  C   UNL d   1      22.750 -18.122  -0.135  0.00  0.00     0.068 A 
ATOM     11  C   UNL d   1      24.025 -18.524   0.229  0.00  0.00     0.045 A 
ATOM     12  C   UNL d   1      25.184 -17.770  -0.103  0.00  0.00    -0.033 A 
ATOM     13  C   UNL d   1      26.454 -18.442   0.318  0.00  0.00     0.050 C 
BRANCH  10  14
ATOM     14  O   UNL d   1      21.733 -18.870   0.386  0.00  0.00    -0.356 OA
ATOM     15  C   UNL d   1      20.740 -19.325  -0.523  0.00  0.00     0.210 C 
ENDBRANCH  10  14
ENDBRANCH   1   7
BRANCH   4  16
ATOM     16  C   UNL d   1      28.799 -15.435  -3.696  0.00  0.00     0.069 A 
ATOM     17  C   UNL d   1      30.144 -15.757  -3.410  0.00  0.00     0.032 A 
ATOM     18  C   UNL d   1      31.044 -16.119  -4.431  0.00  0.00     0.002 A 
ATOM     19  C   UNL d   1      30.608 -16.205  -5.747  0.00  0.00     0.003 A 
ATOM     20  C   UNL d   1      29.280 -15.906  -6.042  0.00  0.00     0.039 A 
ATOM     21  C   UNL d   1      28.369 -15.505  -5.040  0.00  0.00     0.095 A 
BRANCH  21  22
ATOM     22  O   UNL d   1      27.145 -15.200  -5.580  0.00  0.00    -0.354 OA
ATOM     23  C   UNL d   1      25.978 -15.359  -4.801  0.00  0.00     0.210 C 
ENDBRANCH  21  22
ENDBRANCH   4  16
TORSDOF 4
ENDMDL
MODEL 6
REMARK VINA RESULT:    -6.153      2.886      4.599
REMARK INTER + INTRA:          -8.143
REMARK INTER:                  -7.346
REMARK INTRA:                  -0.797
REMARK CONF_INDEPENDENT:        1.193
REMARK UNBOUND:                -0.797
REMARK  4 active torsions:
REMARK  status: ('A' for Active; 'I' for Inactive)
REMARK    1  A    between atoms: O_2  and  C_3 
REMARK    2  A    between atoms: C_6  and  N_7 
REMARK       I    between atoms: N_7  and  C_8 
REMARK       I    between atoms: C_8  and  N_10 
REMARK    3  A    between atoms: N_10  and  C_11 
REMARK    4  A    between atoms: C_16  and  O_17 
ROOT
ATOM      1  N   UNL d   1      27.363 -15.278  -2.565  0.00  0.00    -0.308 N 
ATOM      2  C   UNL d   1      26.006 -15.607  -2.381  0.00  0.00     0.325 C 
ATOM      3  O   UNL d   1      25.178 -15.758  -3.283  0.00  0.00    -0.247 OA
ATOM      4  N   UNL d   1      25.684 -15.903  -1.042  0.00  0.00    -0.306 N 
ATOM      5  H   UNL d   1      27.781 -14.736  -1.822  0.00  0.00     0.170 HD
ATOM      6  H   UNL d   1      25.763 -15.118  -0.409  0.00  0.00     0.171 HD
ENDROOT
BRANCH   1   7
ATOM      7  C   UNL d   1      28.205 -15.524  -3.727  0.00  0.00     0.042 A 
ATOM      8  C   UNL d   1      27.888 -14.845  -4.929  0.00  0.00     0.033 A 
ATOM      9  C   UNL d   1      28.615 -15.045  -6.134  0.00  0.00     0.039 A 
ATOM     10  C   UNL d   1      29.709 -15.897  -6.164  0.00  0.00     0.068 A 
ATOM     11  C   UNL d   1      30.089 -16.507  -4.979  0.00  0.00     0.045 A 
ATOM     12  C   UNL d   1      29.369 -16.328  -3.767  0.00  0.00    -0.033 A 
ATOM     13  C   UNL d   1      30.014 -17.012  -2.602  0.00  0.00     0.050 C 
BRANCH  10  14
ATOM     14  O   UNL d   1      30.411 -16.287  -7.270  0.00  0.00    -0.356 OA
ATOM     15  C   UNL d   1      30.997 -17.580  -7.235  0.00  0.00     0.210 C 
ENDBRANCH  10  14
ENDBRANCH   1   7
BRANCH   4  16
ATOM     16  C   UNL d   1      24.584 -16.798  -0.782  0.00  0.00     0.069 A 
ATOM     17  C   UNL d   1      23.259 -16.325  -0.905  0.00  0.00     0.032 A 
ATOM     18  C   UNL d   1      22.155 -17.153  -0.620  0.00  0.00     0.002 A 
ATOM     19  C   UNL d   1      22.353 -18.476  -0.247  0.00  0.00     0.003 A 
ATOM     20  C   UNL d   1      23.655 -18.961  -0.137  0.00  0.00     0.039 A 
ATOM     21  C   UNL d   1      24.777 -18.139  -0.383  0.00  0.00     0.095 A 
BRANCH  21  22
ATOM     22  O   UNL d   1      25.946 -18.817  -0.145  0.00  0.00    -0.354 OA
ATOM     23  C   UNL d   1      26.988 -18.187   0.568  0.00  0.00     0.210 C 
ENDBRANCH  21  22
ENDBRANCH   4  16
TORSDOF 4
ENDMDL
MODEL 7
REMARK VINA RESULT:    -6.091      2.923      8.202
REMARK INTER + INTRA:          -7.906
REMARK INTER:                  -7.285
REMARK INTRA:                  -0.621
REMARK CONF_INDEPENDENT:        1.193
REMARK UNBOUND:                -0.621
REMARK  4 active torsions:
REMARK  status: ('A' for Active; 'I' for Inactive)
REMARK    1  A    between atoms: O_2  and  C_3 
REMARK    2  A    between atoms: C_6  and  N_7 
REMARK       I    between atoms: N_7  and  C_8 
REMARK       I    between atoms: C_8  and  N_10 
REMARK    3  A    between atoms: N_10  and  C_11 
REMARK    4  A    between atoms: C_16  and  O_17 
ROOT
ATOM      1  N   UNL d   1      26.062 -15.554  -1.775  0.00  0.00    -0.308 N 
ATOM      2  C   UNL d   1      26.016 -14.754  -2.933  0.00  0.00     0.325 C 
ATOM      3  O   UNL d   1      25.246 -14.915  -3.884  0.00  0.00    -0.247 OA
ATOM      4  N   UNL d   1      26.850 -13.621  -2.858  0.00  0.00    -0.306 N 
ATOM      5  H   UNL d   1      26.971 -15.635  -1.342  0.00  0.00     0.170 HD
ATOM      6  H   UNL d   1      27.839 -13.832  -2.828  0.00  0.00     0.171 HD
ENDROOT
BRANCH   1   7
ATOM      7  C   UNL d   1      25.001 -16.361  -1.188  0.00  0.00     0.042 A 
ATOM      8  C   UNL d   1      23.661 -15.986  -1.453  0.00  0.00     0.033 A 
ATOM      9  C   UNL d   1      22.550 -16.676  -0.895  0.00  0.00     0.039 A 
ATOM     10  C   UNL d   1      22.744 -17.787  -0.089  0.00  0.00     0.068 A 
ATOM     11  C   UNL d   1      24.043 -18.222   0.116  0.00  0.00     0.045 A 
ATOM     12  C   UNL d   1      25.168 -17.541  -0.425  0.00  0.00    -0.033 A 
ATOM     13  C   UNL d   1      26.461 -18.242  -0.147  0.00  0.00     0.050 C 
BRANCH  10  14
ATOM     14  O   UNL d   1      21.787 -18.459   0.619  0.00  0.00    -0.356 OA
ATOM     15  C   UNL d   1      21.012 -19.412  -0.096  0.00  0.00     0.210 C 
ENDBRANCH  10  14
ENDBRANCH   1   7
BRANCH   4  16
ATOM     16  C   UNL d   1      26.490 -12.451  -3.619  0.00  0.00     0.069 A 
ATOM     17  C   UNL d   1      26.230 -12.574  -5.002  0.00  0.00     0.032 A 
ATOM     18  C   UNL d   1      25.916 -11.451  -5.792  0.00  0.00     0.002 A 
ATOM     19  C   UNL d   1      25.816 -10.194  -5.209  0.00  0.00     0.003 A 
ATOM     20  C   UNL d   1      26.055 -10.060  -3.843  0.00  0.00     0.039 A 
ATOM     21  C   UNL d   1      26.406 -11.166  -3.039  0.00  0.00     0.095 A 
BRANCH  21  22
ATOM     22  O   UNL d   1      26.657 -10.776  -1.747  0.00  0.00    -0.354 OA
ATOM     23  C   UNL d   1      27.985 -10.741  -1.272  0.00  0.00     0.210 C 
ENDBRANCH  21  22
ENDBRANCH   4  16
TORSDOF 4
ENDMDL
MODEL 8
REMARK VINA RESULT:    -6.003      2.950      5.945
REMARK INTER + INTRA:          -7.987
REMARK INTER:                  -7.196
REMARK INTRA:                  -0.790
REMARK CONF_INDEPENDENT:        1.193
REMARK UNBOUND:                -0.790
REMARK  4 active torsions:
REMARK  status: ('A' for Active; 'I' for Inactive)
REMARK    1  A    between atoms: O_2  and  C_3 
REMARK    2  A    between atoms: C_6  and  N_7 
REMARK       I    between atoms: N_7  and  C_8 
REMARK       I    between atoms: C_8  and  N_10 
REMARK    3  A    between atoms: N_10  and  C_11 
REMARK    4  A    between atoms: C_16  and  O_17 
ROOT
ATOM      1  N   UNL d   1      25.284 -13.124  -4.331  0.00  0.00    -0.308 N 
ATOM      2  C   UNL d   1      25.180 -14.441  -3.844  0.00  0.00     0.325 C 
ATOM      3  O   UNL d   1      25.518 -15.458  -4.457  0.00  0.00    -0.247 OA
ATOM      4  N   UNL d   1      24.780 -14.504  -2.495  0.00  0.00    -0.306 N 
ATOM      5  H   UNL d   1      24.583 -12.481  -3.991  0.00  0.00     0.170 HD
ATOM      6  H   UNL d   1      23.839 -14.177  -2.323  0.00  0.00     0.171 HD
ENDROOT
BRANCH   1   7
ATOM      7  C   UNL d   1      26.198 -12.598  -5.336  0.00  0.00     0.042 A 
ATOM      8  C   UNL d   1      25.905 -11.331  -5.898  0.00  0.00     0.033 A 
ATOM      9  C   UNL d   1      26.703 -10.746  -6.918  0.00  0.00     0.039 A 
ATOM     10  C   UNL d   1      27.844 -11.388  -7.377  0.00  0.00     0.068 A 
ATOM     11  C   UNL d   1      28.196 -12.588  -6.782  0.00  0.00     0.045 A 
ATOM     12  C   UNL d   1      27.405 -13.196  -5.768  0.00  0.00    -0.033 A 
ATOM     13  C   UNL d   1      28.027 -14.440  -5.213  0.00  0.00     0.050 C 
BRANCH  10  14
ATOM     14  O   UNL d   1      28.622 -11.013  -8.435  0.00  0.00    -0.356 OA
ATOM     15  C   UNL d   1      28.840 -11.985  -9.448  0.00  0.00     0.210 C 
ENDBRANCH  10  14
ENDBRANCH   1   7
BRANCH   4  16
ATOM     16  C   UNL d   1      25.194 -15.639  -1.708  0.00  0.00     0.069 A 
ATOM     17  C   UNL d   1      26.570 -15.934  -1.584  0.00  0.00     0.032 A 
ATOM     18  C   UNL d   1      27.016 -17.057  -0.861  0.00  0.00     0.002 A 
ATOM     19  C   UNL d   1      26.102 -17.881  -0.216  0.00  0.00     0.003 A 
ATOM     20  C   UNL d   1      24.743 -17.592  -0.317  0.00  0.00     0.039 A 
ATOM     21  C   UNL d   1      24.270 -16.494  -1.067  0.00  0.00     0.095 A 
BRANCH  21  22
ATOM     22  O   UNL d   1      22.898 -16.455  -1.074  0.00  0.00    -0.354 OA
ATOM     23  C   UNL d   1      22.165 -17.526  -0.520  0.00  0.00     0.210 C 
ENDBRANCH  21  22
ENDBRANCH   4  16
TORSDOF 4
ENDMDL
MODEL 9
REMARK VINA RESULT:    -5.827      2.815      8.766
REMARK INTER + INTRA:          -7.958
REMARK INTER:                  -7.020
REMARK INTRA:                  -0.938
REMARK CONF_INDEPENDENT:        1.193
REMARK UNBOUND:                -0.938
REMARK  4 active torsions:
REMARK  status: ('A' for Active; 'I' for Inactive)
REMARK    1  A    between atoms: O_2  and  C_3 
REMARK    2  A    between atoms: C_6  and  N_7 
REMARK       I    between atoms: N_7  and  C_8 
REMARK       I    between atoms: C_8  and  N_10 
REMARK    3  A    between atoms: N_10  and  C_11 
REMARK    4  A    between atoms: C_16  and  O_17 
ROOT
ATOM      1  N   UNL d   1      27.727 -15.658  -1.346  0.00  0.00    -0.308 N 
ATOM      2  C   UNL d   1      28.656 -15.953  -2.362  0.00  0.00     0.325 C 
ATOM      3  O   UNL d   1      28.904 -17.080  -2.800  0.00  0.00    -0.247 OA
ATOM      4  N   UNL d   1      29.200 -14.802  -2.967  0.00  0.00    -0.306 N 
ATOM      5  H   UNL d   1      27.952 -14.856  -0.774  0.00  0.00     0.170 HD
ATOM      6  H   UNL d   1      29.778 -14.242  -2.355  0.00  0.00     0.171 HD
ENDROOT
BRANCH   1   7
ATOM      7  C   UNL d   1      26.551 -16.417  -0.946  0.00  0.00     0.042 A 
ATOM      8  C   UNL d   1      26.700 -17.373   0.089  0.00  0.00     0.033 A 
ATOM      9  C   UNL d   1      25.629 -18.200   0.526  0.00  0.00     0.039 A 
ATOM     10  C   UNL d   1      24.365 -18.067  -0.028  0.00  0.00     0.068 A 
ATOM     11  C   UNL d   1      24.175 -17.080  -0.982  0.00  0.00     0.045 A 
ATOM     12  C   UNL d   1      25.235 -16.251  -1.440  0.00  0.00    -0.033 A 
ATOM     13  C   UNL d   1      24.776 -15.201  -2.404  0.00  0.00     0.050 C 
BRANCH  10  14
ATOM     14  O   UNL d   1      23.286 -18.876   0.195  0.00  0.00    -0.356 OA
ATOM     15  C   UNL d   1      22.098 -18.571  -0.521  0.00  0.00     0.210 C 
ENDBRANCH  10  14
ENDBRANCH   1   7
BRANCH   4  16
ATOM     16  C   UNL d   1      29.651 -14.893  -4.333  0.00  0.00     0.069 A 
ATOM     17  C   UNL d   1      31.021 -14.716  -4.626  0.00  0.00     0.032 A 
ATOM     18  C   UNL d   1      31.498 -14.754  -5.951  0.00  0.00     0.002 A 
ATOM     19  C   UNL d   1      30.625 -15.011  -7.000  0.00  0.00     0.003 A 
ATOM     20  C   UNL d   1      29.273 -15.203  -6.724  0.00  0.00     0.039 A 
ATOM     21  C   UNL d   1      28.766 -15.133  -5.409  0.00  0.00     0.095 A 
BRANCH  21  22
ATOM     22  O   UNL d   1      27.402 -15.287  -5.396  0.00  0.00    -0.354 OA
ATOM     23  C   UNL d   1      26.580 -14.207  -5.011  0.00  0.00     0.210 C 
ENDBRANCH  21  22
ENDBRANCH   4  16
TORSDOF 4
ENDMDL
