MODEL 1
REMARK VINA RESULT:    -8.114      0.000      0.000
REMARK INTER + INTRA:         -13.502
REMARK INTER:                 -10.799
REMARK INTRA:                  -2.703
REMARK CONF_INDEPENDENT:        2.685
REMARK UNBOUND:                -2.703
REMARK  9 active torsions:
REMARK  status: ('A' for Active; 'I' for Inactive)
REMARK    1  A    between atoms: O_2  and  C_3 
REMARK    2  A    between atoms: C_9  and  C_10 
REMARK       I    between atoms: C_10  and  N_12 
REMARK    3  A    between atoms: N_12  and  C_13 
REMARK    4  A    between atoms: C_13  and  N_15 
REMARK    5  A    between atoms: N_15  and  C_16 
REMARK    6  A    between atoms: C_19  and  O_20 
REMARK    7  A    between atoms: C_22  and  C_23 
REMARK    8  A    between atoms: C_26  and  C_27 
REMARK    9  A    between atoms: C_27  and  O_28 
ROOT
ATOM      1  N   UNL d   1      25.829 -13.375  -5.020  0.00  0.00    -0.333 N 
ATOM      2  H   UNL d   1      24.896 -13.566  -5.366  0.00  0.00     0.168 HD
ENDROOT
BRANCH   1   3
ATOM      3  C   UNL d   1      26.775 -14.431  -4.935  0.00  0.00     0.179 C 
ATOM      4  S   UNL d   1      27.993 -14.664  -6.095  0.00  0.00    -0.040 SA
BRANCH   3   5
ATOM      5  N   UNL d   1      26.662 -15.243  -3.781  0.00  0.00    -0.299 N 
ATOM      6  C   UNL d   1      25.477 -15.437  -3.040  0.00  0.00     0.260 C 
ATOM      7  O   UNL d   1      24.423 -14.825  -3.256  0.00  0.00    -0.267 OA
ATOM      8  H   UNL d   1      27.473 -15.759  -3.456  0.00  0.00     0.171 HD
BRANCH   6   9
ATOM      9  C   UNL d   1      25.382 -16.392  -1.899  0.00  0.00     0.067 A 
ATOM     10  C   UNL d   1      24.094 -16.937  -1.645  0.00  0.00     0.039 A 
ATOM     11  C   UNL d   1      23.880 -17.844  -0.612  0.00  0.00     0.012 A 
ATOM     12  C   UNL d   1      24.937 -18.220   0.199  0.00  0.00     0.022 A 
ATOM     13 BR   UNL d   1      22.155 -18.554  -0.302  0.00  0.00    -0.051 Br
ATOM     14  C   UNL d   1      26.211 -17.690  -0.036  0.00  0.00     0.039 A 
ATOM     15  C   UNL d   1      26.449 -16.798  -1.097  0.00  0.00     0.084 A 
BRANCH  15  16
ATOM     16  O   UNL d   1      27.691 -16.265  -1.325  0.00  0.00    -0.355 OA
ATOM     17  C   UNL d   1      28.669 -16.701  -0.378  0.00  0.00     0.210 C 
ENDBRANCH  15  16
ENDBRANCH   6   9
ENDBRANCH   3   5
ENDBRANCH   1   3
BRANCH   1  18
ATOM     18  C   UNL d   1      26.004 -12.100  -4.366  0.00  0.00     0.035 A 
ATOM     19  C   UNL d   1      26.599 -11.958  -3.115  0.00  0.00     0.032 A 
ATOM     20  C   UNL d   1      26.722 -10.670  -2.538  0.00  0.00     0.040 A 
ATOM     21  C   UNL d   1      26.308  -9.495  -3.211  0.00  0.00     0.081 A 
ATOM     22  C   UNL d   1      25.703  -9.633  -4.467  0.00  0.00     0.033 A 
ATOM     23  C   UNL d   1      25.530 -10.934  -4.980  0.00  0.00     0.046 A 
BRANCH  21  24
ATOM     24  O   UNL d   1      26.510  -8.351  -2.472  0.00  0.00    -0.355 OA
ATOM     25  C   UNL d   1      25.536  -8.013  -1.491  0.00  0.00     0.210 C 
ENDBRANCH  21  24
BRANCH  22  26
ATOM     26  C   UNL d   1      25.012  -8.593  -5.221  0.00  0.00     0.088 C 
ATOM     27  C   UNL d   1      25.198  -8.171  -6.519  0.00  0.00     0.041 C 
ATOM     28  C   UNL d   1      24.165  -7.260  -6.797  0.00  0.00     0.038 C 
ATOM     29  C   UNL d   1      23.415  -7.139  -5.644  0.00  0.00     0.077 C 
ATOM     30  O   UNL d   1      23.990  -7.886  -4.645  0.00  0.00    -0.312 OA
BRANCH  29  31
ATOM     31  C   UNL d   1      22.153  -6.412  -5.347  0.00  0.00     0.229 C 
BRANCH  31  32
ATOM     32  O   UNL d   1      22.288  -5.825  -4.051  0.00  0.00    -0.394 OA
ATOM     33  H   UNL d   1      22.912  -6.388  -3.561  0.00  0.00     0.209 HD
ENDBRANCH  31  32
ENDBRANCH  29  31
ENDBRANCH  22  26
ENDBRANCH   1  18
TORSDOF 9
ENDMDL
MODEL 2
REMARK VINA RESULT:    -8.096      4.490      7.827
REMARK INTER + INTRA:         -13.470
REMARK INTER:                 -10.780
REMARK INTRA:                  -2.690
REMARK CONF_INDEPENDENT:        2.685
REMARK UNBOUND:                -2.690
REMARK  9 active torsions:
REMARK  status: ('A' for Active; 'I' for Inactive)
REMARK    1  A    between atoms: O_2  and  C_3 
REMARK    2  A    between atoms: C_9  and  C_10 
REMARK       I    between atoms: C_10  and  N_12 
REMARK    3  A    between atoms: N_12  and  C_13 
REMARK    4  A    between atoms: C_13  and  N_15 
REMARK    5  A    between atoms: N_15  and  C_16 
REMARK    6  A    between atoms: C_19  and  O_20 
REMARK    7  A    between atoms: C_22  and  C_23 
REMARK    8  A    between atoms: C_26  and  C_27 
REMARK    9  A    between atoms: C_27  and  O_28 
ROOT
ATOM      1  N   UNL d   1      25.251 -13.254  -4.585  0.00  0.00    -0.333 N 
ATOM      2  H   UNL d   1      24.450 -13.706  -5.009  0.00  0.00     0.168 HD
ENDROOT
BRANCH   1   3
ATOM      3  C   UNL d   1      26.103 -12.444  -5.382  0.00  0.00     0.179 C 
ATOM      4  S   UNL d   1      25.647 -10.906  -5.937  0.00  0.00    -0.040 SA
BRANCH   3   5
ATOM      5  N   UNL d   1      27.384 -12.992  -5.634  0.00  0.00    -0.299 N 
ATOM      6  C   UNL d   1      27.665 -14.368  -5.761  0.00  0.00     0.260 C 
ATOM      7  O   UNL d   1      26.835 -15.263  -5.554  0.00  0.00    -0.267 OA
ATOM      8  H   UNL d   1      28.173 -12.368  -5.766  0.00  0.00     0.171 HD
BRANCH   6   9
ATOM      9  C   UNL d   1      29.011 -14.889  -6.140  0.00  0.00     0.067 A 
ATOM     10  C   UNL d   1      29.282 -16.238  -5.784  0.00  0.00     0.039 A 
ATOM     11  C   UNL d   1      30.498 -16.840  -6.090  0.00  0.00     0.012 A 
ATOM     12  C   UNL d   1      31.478 -16.111  -6.744  0.00  0.00     0.022 A 
ATOM     13 BR   UNL d   1      30.827 -18.638  -5.607  0.00  0.00    -0.051 Br
ATOM     14  C   UNL d   1      31.227 -14.780  -7.098  0.00  0.00     0.039 A 
ATOM     15  C   UNL d   1      29.990 -14.170  -6.825  0.00  0.00     0.084 A 
BRANCH  15  16
ATOM     16  O   UNL d   1      29.743 -12.863  -7.157  0.00  0.00    -0.355 OA
ATOM     17  C   UNL d   1      29.048 -12.722  -8.398  0.00  0.00     0.210 C 
ENDBRANCH  15  16
ENDBRANCH   6   9
ENDBRANCH   3   5
ENDBRANCH   1   3
BRANCH   1  18
ATOM     18  C   UNL d   1      25.611 -13.727  -3.269  0.00  0.00     0.035 A 
ATOM     19  C   UNL d   1      26.577 -13.114  -2.475  0.00  0.00     0.032 A 
ATOM     20  C   UNL d   1      26.879 -13.650  -1.199  0.00  0.00     0.040 A 
ATOM     21  C   UNL d   1      26.195 -14.767  -0.664  0.00  0.00     0.081 A 
ATOM     22  C   UNL d   1      25.227 -15.392  -1.462  0.00  0.00     0.033 A 
ATOM     23  C   UNL d   1      25.002 -14.878  -2.755  0.00  0.00     0.046 A 
BRANCH  21  24
ATOM     24  O   UNL d   1      26.647 -15.130   0.585  0.00  0.00    -0.355 OA
ATOM     25  C   UNL d   1      27.739 -16.039   0.659  0.00  0.00     0.210 C 
ENDBRANCH  21  24
BRANCH  22  26
ATOM     26  C   UNL d   1      24.574 -16.670  -1.201  0.00  0.00     0.088 C 
ATOM     27  C   UNL d   1      25.112 -17.867  -0.782  0.00  0.00     0.041 C 
ATOM     28  C   UNL d   1      24.029 -18.727  -0.529  0.00  0.00     0.038 C 
ATOM     29  C   UNL d   1      22.880 -18.027  -0.837  0.00  0.00     0.077 C 
ATOM     30  O   UNL d   1      23.217 -16.794  -1.340  0.00  0.00    -0.312 OA
BRANCH  29  31
ATOM     31  C   UNL d   1      21.440 -18.359  -0.684  0.00  0.00     0.229 C 
BRANCH  31  32
ATOM     32  O   UNL d   1      20.686 -17.295  -1.270  0.00  0.00    -0.394 OA
ATOM     33  H   UNL d   1      21.207 -16.485  -1.130  0.00  0.00     0.209 HD
ENDBRANCH  31  32
ENDBRANCH  29  31
ENDBRANCH  22  26
ENDBRANCH   1  18
TORSDOF 9
ENDMDL
MODEL 3
REMARK VINA RESULT:    -7.797      5.255      7.743
REMARK INTER + INTRA:         -13.924
REMARK INTER:                 -10.482
REMARK INTRA:                  -3.443
REMARK CONF_INDEPENDENT:        2.685
REMARK UNBOUND:                -3.443
REMARK  9 active torsions:
REMARK  status: ('A' for Active; 'I' for Inactive)
REMARK    1  A    between atoms: O_2  and  C_3 
REMARK    2  A    between atoms: C_9  and  C_10 
REMARK       I    between atoms: C_10  and  N_12 
REMARK    3  A    between atoms: N_12  and  C_13 
REMARK    4  A    between atoms: C_13  and  N_15 
REMARK    5  A    between atoms: N_15  and  C_16 
REMARK    6  A    between atoms: C_19  and  O_20 
REMARK    7  A    between atoms: C_22  and  C_23 
REMARK    8  A    between atoms: C_26  and  C_27 
REMARK    9  A    between atoms: C_27  and  O_28 
ROOT
ATOM      1  N   UNL d   1      29.097 -17.715  -0.258  0.00  0.00    -0.333 N 
ATOM      2  H   UNL d   1      29.367 -18.176   0.603  0.00  0.00     0.168 HD
ENDROOT
BRANCH   1   3
ATOM      3  C   UNL d   1      30.086 -17.069  -1.046  0.00  0.00     0.179 C 
ATOM      4  S   UNL d   1      30.880 -15.657  -0.541  0.00  0.00    -0.040 SA
BRANCH   3   5
ATOM      5  N   UNL d   1      30.401 -17.722  -2.263  0.00  0.00    -0.299 N 
ATOM      6  C   UNL d   1      29.971 -17.305  -3.540  0.00  0.00     0.260 C 
ATOM      7  O   UNL d   1      29.172 -16.378  -3.729  0.00  0.00    -0.267 OA
ATOM      8  H   UNL d   1      31.003 -18.538  -2.247  0.00  0.00     0.171 HD
BRANCH   6   9
ATOM      9  C   UNL d   1      30.423 -17.960  -4.801  0.00  0.00     0.067 A 
ATOM     10  C   UNL d   1      30.874 -19.303  -4.682  0.00  0.00     0.039 A 
ATOM     11  C   UNL d   1      31.314 -20.023  -5.788  0.00  0.00     0.012 A 
ATOM     12  C   UNL d   1      31.327 -19.421  -7.035  0.00  0.00     0.022 A 
ATOM     13 BR   UNL d   1      31.905 -21.808  -5.597  0.00  0.00    -0.051 Br
ATOM     14  C   UNL d   1      30.888 -18.099  -7.169  0.00  0.00     0.039 A 
ATOM     15  C   UNL d   1      30.410 -17.370  -6.065  0.00  0.00     0.084 A 
BRANCH  15  16
ATOM     16  O   UNL d   1      29.992 -16.071  -6.187  0.00  0.00    -0.355 OA
ATOM     17  C   UNL d   1      30.902 -15.257  -6.929  0.00  0.00     0.210 C 
ENDBRANCH  15  16
ENDBRANCH   6   9
ENDBRANCH   3   5
ENDBRANCH   1   3
BRANCH   1  18
ATOM     18  C   UNL d   1      27.680 -17.510  -0.439  0.00  0.00     0.035 A 
ATOM     19  C   UNL d   1      26.710 -18.209   0.276  0.00  0.00     0.032 A 
ATOM     20  C   UNL d   1      25.338 -17.954   0.029  0.00  0.00     0.040 A 
ATOM     21  C   UNL d   1      24.902 -16.969  -0.889  0.00  0.00     0.081 A 
ATOM     22  C   UNL d   1      25.874 -16.268  -1.615  0.00  0.00     0.033 A 
ATOM     23  C   UNL d   1      27.228 -16.596  -1.398  0.00  0.00     0.046 A 
BRANCH  21  24
ATOM     24  O   UNL d   1      23.531 -16.889  -0.984  0.00  0.00    -0.355 OA
ATOM     25  C   UNL d   1      22.767 -18.005  -0.542  0.00  0.00     0.210 C 
ENDBRANCH  21  24
BRANCH  22  26
ATOM     26  C   UNL d   1      25.644 -15.386  -2.753  0.00  0.00     0.088 C 
ATOM     27  C   UNL d   1      24.658 -14.445  -2.957  0.00  0.00     0.041 C 
ATOM     28  C   UNL d   1      24.992 -13.763  -4.139  0.00  0.00     0.038 C 
ATOM     29  C   UNL d   1      26.148 -14.341  -4.624  0.00  0.00     0.077 C 
ATOM     30  O   UNL d   1      26.499 -15.400  -3.824  0.00  0.00    -0.312 OA
BRANCH  29  31
ATOM     31  C   UNL d   1      27.030 -13.997  -5.769  0.00  0.00     0.229 C 
BRANCH  31  32
ATOM     32  O   UNL d   1      27.671 -15.200  -6.197  0.00  0.00    -0.394 OA
ATOM     33  H   UNL d   1      28.043 -15.610  -5.396  0.00  0.00     0.209 HD
ENDBRANCH  31  32
ENDBRANCH  29  31
ENDBRANCH  22  26
ENDBRANCH   1  18
TORSDOF 9
ENDMDL
MODEL 4
REMARK VINA RESULT:    -7.713      4.608      7.860
REMARK INTER + INTRA:         -13.110
REMARK INTER:                 -10.397
REMARK INTRA:                  -2.713
REMARK CONF_INDEPENDENT:        2.685
REMARK UNBOUND:                -2.713
REMARK  9 active torsions:
REMARK  status: ('A' for Active; 'I' for Inactive)
REMARK    1  A    between atoms: O_2  and  C_3 
REMARK    2  A    between atoms: C_9  and  C_10 
REMARK       I    between atoms: C_10  and  N_12 
REMARK    3  A    between atoms: N_12  and  C_13 
REMARK    4  A    between atoms: C_13  and  N_15 
REMARK    5  A    between atoms: N_15  and  C_16 
REMARK    6  A    between atoms: C_19  and  O_20 
REMARK    7  A    between atoms: C_22  and  C_23 
REMARK    8  A    between atoms: C_26  and  C_27 
REMARK    9  A    between atoms: C_27  and  O_28 
ROOT
ATOM      1  N   UNL d   1      27.257 -14.114  -4.726  0.00  0.00    -0.333 N 
ATOM      2  H   UNL d   1      26.350 -14.111  -5.177  0.00  0.00     0.168 HD
ENDROOT
BRANCH   1   3
ATOM      3  C   UNL d   1      27.377 -13.649  -3.390  0.00  0.00     0.179 C 
ATOM      4  S   UNL d   1      27.990 -12.113  -3.008  0.00  0.00    -0.040 SA
BRANCH   3   5
ATOM      5  N   UNL d   1      26.895 -14.540  -2.401  0.00  0.00    -0.299 N 
ATOM      6  C   UNL d   1      25.848 -15.467  -2.588  0.00  0.00     0.260 C 
ATOM      7  O   UNL d   1      25.156 -15.527  -3.613  0.00  0.00    -0.267 OA
ATOM      8  H   UNL d   1      27.336 -14.554  -1.487  0.00  0.00     0.171 HD
BRANCH   6   9
ATOM      9  C   UNL d   1      25.452 -16.463  -1.551  0.00  0.00     0.067 A 
ATOM     10  C   UNL d   1      24.129 -16.972  -1.646  0.00  0.00     0.039 A 
ATOM     11  C   UNL d   1      23.645 -17.912  -0.741  0.00  0.00     0.012 A 
ATOM     12  C   UNL d   1      24.461 -18.357   0.286  0.00  0.00     0.022 A 
ATOM     13 BR   UNL d   1      21.880 -18.572  -0.896  0.00  0.00    -0.051 Br
ATOM     14  C   UNL d   1      25.766 -17.864   0.394  0.00  0.00     0.039 A 
ATOM     15  C   UNL d   1      26.279 -16.939  -0.533  0.00  0.00     0.084 A 
BRANCH  15  16
ATOM     16  O   UNL d   1      27.552 -16.441  -0.425  0.00  0.00    -0.355 OA
ATOM     17  C   UNL d   1      28.557 -17.455  -0.489  0.00  0.00     0.210 C 
ENDBRANCH  15  16
ENDBRANCH   6   9
ENDBRANCH   3   5
ENDBRANCH   1   3
BRANCH   1  18
ATOM     18  C   UNL d   1      28.389 -14.316  -5.600  0.00  0.00     0.035 A 
ATOM     19  C   UNL d   1      28.910 -13.316  -6.417  0.00  0.00     0.032 A 
ATOM     20  C   UNL d   1      30.017 -13.601  -7.254  0.00  0.00     0.040 A 
ATOM     21  C   UNL d   1      30.660 -14.862  -7.260  0.00  0.00     0.081 A 
ATOM     22  C   UNL d   1      30.134 -15.873  -6.444  0.00  0.00     0.033 A 
ATOM     23  C   UNL d   1      28.988 -15.579  -5.678  0.00  0.00     0.046 A 
BRANCH  21  24
ATOM     24  O   UNL d   1      31.707 -14.930  -8.150  0.00  0.00    -0.355 OA
ATOM     25  C   UNL d   1      32.080 -13.738  -8.832  0.00  0.00     0.210 C 
ENDBRANCH  21  24
BRANCH  22  26
ATOM     26  C   UNL d   1      30.497 -17.286  -6.464  0.00  0.00     0.088 C 
ATOM     27  C   UNL d   1      30.536 -18.203  -5.437  0.00  0.00     0.041 C 
ATOM     28  C   UNL d   1      30.790 -19.454  -6.025  0.00  0.00     0.038 C 
ATOM     29  C   UNL d   1      30.930 -19.239  -7.382  0.00  0.00     0.077 C 
ATOM     30  O   UNL d   1      30.844 -17.894  -7.642  0.00  0.00    -0.312 OA
BRANCH  29  31
ATOM     31  C   UNL d   1      31.107 -20.171  -8.525  0.00  0.00     0.229 C 
BRANCH  31  32
ATOM     32  O   UNL d   1      30.255 -19.725  -9.582  0.00  0.00    -0.394 OA
ATOM     33  H   UNL d   1      29.784 -18.945  -9.241  0.00  0.00     0.209 HD
ENDBRANCH  31  32
ENDBRANCH  29  31
ENDBRANCH  22  26
ENDBRANCH   1  18
TORSDOF 9
ENDMDL
MODEL 5
REMARK VINA RESULT:    -7.576      1.290      2.827
REMARK INTER + INTRA:         -13.337
REMARK INTER:                 -10.261
REMARK INTRA:                  -3.076
REMARK CONF_INDEPENDENT:        2.685
REMARK UNBOUND:                -3.076
REMARK  9 active torsions:
REMARK  status: ('A' for Active; 'I' for Inactive)
REMARK    1  A    between atoms: O_2  and  C_3 
REMARK    2  A    between atoms: C_9  and  C_10 
REMARK       I    between atoms: C_10  and  N_12 
REMARK    3  A    between atoms: N_12  and  C_13 
REMARK    4  A    between atoms: C_13  and  N_15 
REMARK    5  A    between atoms: N_15  and  C_16 
REMARK    6  A    between atoms: C_19  and  O_20 
REMARK    7  A    between atoms: C_22  and  C_23 
REMARK    8  A    between atoms: C_26  and  C_27 
REMARK    9  A    between atoms: C_27  and  O_28 
ROOT
ATOM      1  N   UNL d   1      25.653 -13.369  -5.019  0.00  0.00    -0.333 N 
ATOM      2  H   UNL d   1      24.711 -13.735  -4.945  0.00  0.00     0.168 HD
ENDROOT
BRANCH   1   3
ATOM      3  C   UNL d   1      26.759 -14.233  -4.806  0.00  0.00     0.179 C 
ATOM      4  S   UNL d   1      28.142 -14.208  -5.790  0.00  0.00    -0.040 SA
BRANCH   3   5
ATOM      5  N   UNL d   1      26.648 -15.080  -3.677  0.00  0.00    -0.299 N 
ATOM      6  C   UNL d   1      25.455 -15.327  -2.965  0.00  0.00     0.260 C 
ATOM      7  O   UNL d   1      24.388 -14.738  -3.184  0.00  0.00    -0.267 OA
ATOM      8  H   UNL d   1      27.466 -15.582  -3.350  0.00  0.00     0.171 HD
BRANCH   6   9
ATOM      9  C   UNL d   1      25.366 -16.315  -1.852  0.00  0.00     0.067 A 
ATOM     10  C   UNL d   1      24.084 -16.883  -1.621  0.00  0.00     0.039 A 
ATOM     11  C   UNL d   1      23.874 -17.822  -0.616  0.00  0.00     0.012 A 
ATOM     12  C   UNL d   1      24.932 -18.208   0.191  0.00  0.00     0.022 A 
ATOM     13 BR   UNL d   1      22.157 -18.561  -0.336  0.00  0.00    -0.051 Br
ATOM     14  C   UNL d   1      26.201 -17.657  -0.022  0.00  0.00     0.039 A 
ATOM     15  C   UNL d   1      26.433 -16.731  -1.056  0.00  0.00     0.084 A 
BRANCH  15  16
ATOM     16  O   UNL d   1      27.670 -16.177  -1.261  0.00  0.00    -0.355 OA
ATOM     17  C   UNL d   1      28.699 -16.805  -0.494  0.00  0.00     0.210 C 
ENDBRANCH  15  16
ENDBRANCH   6   9
ENDBRANCH   3   5
ENDBRANCH   1   3
BRANCH   1  18
ATOM     18  C   UNL d   1      25.763 -11.930  -5.041  0.00  0.00     0.035 A 
ATOM     19  C   UNL d   1      25.806 -11.185  -6.216  0.00  0.00     0.032 A 
ATOM     20  C   UNL d   1      25.927  -9.775  -6.150  0.00  0.00     0.040 A 
ATOM     21  C   UNL d   1      25.954  -9.073  -4.921  0.00  0.00     0.081 A 
ATOM     22  C   UNL d   1      25.918  -9.819  -3.735  0.00  0.00     0.033 A 
ATOM     23  C   UNL d   1      25.872 -11.224  -3.837  0.00  0.00     0.046 A 
BRANCH  21  24
ATOM     24  O   UNL d   1      26.084  -7.712  -5.080  0.00  0.00    -0.355 OA
ATOM     25  C   UNL d   1      24.946  -6.899  -4.816  0.00  0.00     0.210 C 
ENDBRANCH  21  24
BRANCH  22  26
ATOM     26  C   UNL d   1      26.159  -9.321  -2.385  0.00  0.00     0.088 C 
ATOM     27  C   UNL d   1      27.201  -9.577  -1.521  0.00  0.00     0.041 C 
ATOM     28  C   UNL d   1      27.030  -8.720  -0.421  0.00  0.00     0.038 C 
ATOM     29  C   UNL d   1      25.872  -8.004  -0.645  0.00  0.00     0.077 C 
ATOM     30  O   UNL d   1      25.284  -8.438  -1.807  0.00  0.00    -0.312 OA
BRANCH  29  31
ATOM     31  C   UNL d   1      25.229  -6.889   0.098  0.00  0.00     0.229 C 
BRANCH  31  32
ATOM     32  O   UNL d   1      24.404  -6.174  -0.823  0.00  0.00    -0.394 OA
ATOM     33  H   UNL d   1      24.404  -6.692  -1.647  0.00  0.00     0.209 HD
ENDBRANCH  31  32
ENDBRANCH  29  31
ENDBRANCH  22  26
ENDBRANCH   1  18
TORSDOF 9
ENDMDL
MODEL 6
REMARK VINA RESULT:    -7.420      5.108      7.399
REMARK INTER + INTRA:         -13.105
REMARK INTER:                 -10.105
REMARK INTRA:                  -3.000
REMARK CONF_INDEPENDENT:        2.685
REMARK UNBOUND:                -3.000
REMARK  9 active torsions:
REMARK  status: ('A' for Active; 'I' for Inactive)
REMARK    1  A    between atoms: O_2  and  C_3 
REMARK    2  A    between atoms: C_9  and  C_10 
REMARK       I    between atoms: C_10  and  N_12 
REMARK    3  A    between atoms: N_12  and  C_13 
REMARK    4  A    between atoms: C_13  and  N_15 
REMARK    5  A    between atoms: N_15  and  C_16 
REMARK    6  A    between atoms: C_19  and  O_20 
REMARK    7  A    between atoms: C_22  and  C_23 
REMARK    8  A    between atoms: C_26  and  C_27 
REMARK    9  A    between atoms: C_27  and  O_28 
ROOT
ATOM      1  N   UNL d   1      29.080 -17.638  -0.169  0.00  0.00    -0.333 N 
ATOM      2  H   UNL d   1      29.376 -18.574   0.084  0.00  0.00     0.168 HD
ENDROOT
BRANCH   1   3
ATOM      3  C   UNL d   1      29.979 -16.551  -0.011  0.00  0.00     0.179 C 
ATOM      4  S   UNL d   1      31.472 -16.473  -0.815  0.00  0.00    -0.040 SA
BRANCH   3   5
ATOM      5  N   UNL d   1      29.514 -15.508   0.825  0.00  0.00    -0.299 N 
ATOM      6  C   UNL d   1      28.856 -14.343   0.376  0.00  0.00     0.260 C 
ATOM      7  O   UNL d   1      28.710 -14.051  -0.818  0.00  0.00    -0.267 OA
ATOM      8  H   UNL d   1      29.623 -15.590   1.830  0.00  0.00     0.171 HD
BRANCH   6   9
ATOM      9  C   UNL d   1      28.284 -13.326   1.305  0.00  0.00     0.067 A 
ATOM     10  C   UNL d   1      27.976 -12.061   0.735  0.00  0.00     0.039 A 
ATOM     11  C   UNL d   1      27.431 -11.033   1.498  0.00  0.00     0.012 A 
ATOM     12  C   UNL d   1      27.191 -11.235   2.847  0.00  0.00     0.022 A 
ATOM     13 BR   UNL d   1      27.031  -9.363   0.710  0.00  0.00    -0.051 Br
ATOM     14  C   UNL d   1      27.490 -12.475   3.424  0.00  0.00     0.039 A 
ATOM     15  C   UNL d   1      28.010 -13.533   2.657  0.00  0.00     0.084 A 
BRANCH  15  16
ATOM     16  O   UNL d   1      28.319 -14.745   3.219  0.00  0.00    -0.355 OA
ATOM     17  C   UNL d   1      27.982 -14.821   4.606  0.00  0.00     0.210 C 
ENDBRANCH  15  16
ENDBRANCH   6   9
ENDBRANCH   3   5
ENDBRANCH   1   3
BRANCH   1  18
ATOM     18  C   UNL d   1      27.663 -17.470  -0.386  0.00  0.00     0.035 A 
ATOM     19  C   UNL d   1      26.693 -18.195   0.302  0.00  0.00     0.032 A 
ATOM     20  C   UNL d   1      25.322 -17.976   0.021  0.00  0.00     0.040 A 
ATOM     21  C   UNL d   1      24.884 -17.001  -0.907  0.00  0.00     0.081 A 
ATOM     22  C   UNL d   1      25.856 -16.273  -1.607  0.00  0.00     0.033 A 
ATOM     23  C   UNL d   1      27.211 -16.566  -1.356  0.00  0.00     0.046 A 
BRANCH  21  24
ATOM     24  O   UNL d   1      23.514 -16.956  -1.037  0.00  0.00    -0.355 OA
ATOM     25  C   UNL d   1      22.778 -18.133  -0.726  0.00  0.00     0.210 C 
ENDBRANCH  21  24
BRANCH  22  26
ATOM     26  C   UNL d   1      25.632 -15.395  -2.749  0.00  0.00     0.088 C 
ATOM     27  C   UNL d   1      24.650 -14.451  -2.959  0.00  0.00     0.041 C 
ATOM     28  C   UNL d   1      24.989 -13.776  -4.144  0.00  0.00     0.038 C 
ATOM     29  C   UNL d   1      26.144 -14.360  -4.623  0.00  0.00     0.077 C 
ATOM     30  O   UNL d   1      26.490 -15.417  -3.818  0.00  0.00    -0.312 OA
BRANCH  29  31
ATOM     31  C   UNL d   1      27.031 -14.025  -5.767  0.00  0.00     0.229 C 
BRANCH  31  32
ATOM     32  O   UNL d   1      27.773 -15.200  -6.099  0.00  0.00    -0.394 OA
ATOM     33  H   UNL d   1      27.707 -15.790  -5.327  0.00  0.00     0.209 HD
ENDBRANCH  31  32
ENDBRANCH  29  31
ENDBRANCH  22  26
ENDBRANCH   1  18
TORSDOF 9
ENDMDL
MODEL 7
REMARK VINA RESULT:    -7.203      5.389      7.825
REMARK INTER + INTRA:         -13.651
REMARK INTER:                  -9.888
REMARK INTRA:                  -3.763
REMARK CONF_INDEPENDENT:        2.685
REMARK UNBOUND:                -3.763
REMARK  9 active torsions:
REMARK  status: ('A' for Active; 'I' for Inactive)
REMARK    1  A    between atoms: O_2  and  C_3 
REMARK    2  A    between atoms: C_9  and  C_10 
REMARK       I    between atoms: C_10  and  N_12 
REMARK    3  A    between atoms: N_12  and  C_13 
REMARK    4  A    between atoms: C_13  and  N_15 
REMARK    5  A    between atoms: N_15  and  C_16 
REMARK    6  A    between atoms: C_19  and  O_20 
REMARK    7  A    between atoms: C_22  and  C_23 
REMARK    8  A    between atoms: C_26  and  C_27 
REMARK    9  A    between atoms: C_27  and  O_28 
ROOT
ATOM      1  N   UNL d   1      29.078 -18.068  -0.451  0.00  0.00    -0.333 N 
ATOM      2  H   UNL d   1      29.309 -18.817   0.191  0.00  0.00     0.168 HD
ENDROOT
BRANCH   1   3
ATOM      3  C   UNL d   1      30.116 -17.271  -1.002  0.00  0.00     0.179 C 
ATOM      4  S   UNL d   1      31.043 -16.200  -0.066  0.00  0.00    -0.040 SA
BRANCH   3   5
ATOM      5  N   UNL d   1      30.360 -17.478  -2.381  0.00  0.00    -0.299 N 
ATOM      6  C   UNL d   1      30.079 -16.545  -3.401  0.00  0.00     0.260 C 
ATOM      7  O   UNL d   1      29.480 -15.477  -3.212  0.00  0.00    -0.267 OA
ATOM      8  H   UNL d   1      30.795 -18.342  -2.685  0.00  0.00     0.171 HD
BRANCH   6   9
ATOM      9  C   UNL d   1      30.458 -16.763  -4.827  0.00  0.00     0.067 A 
ATOM     10  C   UNL d   1      30.760 -15.596  -5.580  0.00  0.00     0.039 A 
ATOM     11  C   UNL d   1      31.134 -15.671  -6.918  0.00  0.00     0.012 A 
ATOM     12  C   UNL d   1      31.205 -16.906  -7.541  0.00  0.00     0.022 A 
ATOM     13 BR   UNL d   1      31.531 -14.100  -7.891  0.00  0.00    -0.051 Br
ATOM     14  C   UNL d   1      30.909 -18.064  -6.814  0.00  0.00     0.039 A 
ATOM     15  C   UNL d   1      30.562 -18.006  -5.452  0.00  0.00     0.084 A 
BRANCH  15  16
ATOM     16  O   UNL d   1      30.257 -19.136  -4.738  0.00  0.00    -0.355 OA
ATOM     17  C   UNL d   1      30.405 -20.336  -5.499  0.00  0.00     0.210 C 
ENDBRANCH  15  16
ENDBRANCH   6   9
ENDBRANCH   3   5
ENDBRANCH   1   3
BRANCH   1  18
ATOM     18  C   UNL d   1      27.683 -17.698  -0.503  0.00  0.00     0.035 A 
ATOM     19  C   UNL d   1      26.714 -18.254   0.329  0.00  0.00     0.032 A 
ATOM     20  C   UNL d   1      25.364 -17.844   0.204  0.00  0.00     0.040 A 
ATOM     21  C   UNL d   1      24.956 -16.841  -0.707  0.00  0.00     0.081 A 
ATOM     22  C   UNL d   1      25.927 -16.284  -1.551  0.00  0.00     0.033 A 
ATOM     23  C   UNL d   1      27.247 -16.766  -1.452  0.00  0.00     0.046 A 
BRANCH  21  24
ATOM     24  O   UNL d   1      23.602 -16.599  -0.674  0.00  0.00    -0.355 OA
ATOM     25  C   UNL d   1      22.724 -17.709  -0.822  0.00  0.00     0.210 C 
ENDBRANCH  21  24
BRANCH  22  26
ATOM     26  C   UNL d   1      25.689 -15.414  -2.698  0.00  0.00     0.088 C 
ATOM     27  C   UNL d   1      24.721 -14.453  -2.891  0.00  0.00     0.041 C 
ATOM     28  C   UNL d   1      25.040 -13.798  -4.093  0.00  0.00     0.038 C 
ATOM     29  C   UNL d   1      26.169 -14.412  -4.598  0.00  0.00     0.077 C 
ATOM     30  O   UNL d   1      26.515 -15.467  -3.789  0.00  0.00    -0.312 OA
BRANCH  29  31
ATOM     31  C   UNL d   1      27.029 -14.108  -5.770  0.00  0.00     0.229 C 
BRANCH  31  32
ATOM     32  O   UNL d   1      27.936 -15.200  -5.936  0.00  0.00    -0.394 OA
ATOM     33  H   UNL d   1      28.260 -15.422  -5.045  0.00  0.00     0.209 HD
ENDBRANCH  31  32
ENDBRANCH  29  31
ENDBRANCH  22  26
ENDBRANCH   1  18
TORSDOF 9
ENDMDL
MODEL 8
REMARK VINA RESULT:    -7.051      3.581      6.370
REMARK INTER + INTRA:         -13.388
REMARK INTER:                  -9.735
REMARK INTRA:                  -3.652
REMARK CONF_INDEPENDENT:        2.685
REMARK UNBOUND:                -3.652
REMARK  9 active torsions:
REMARK  status: ('A' for Active; 'I' for Inactive)
REMARK    1  A    between atoms: O_2  and  C_3 
REMARK    2  A    between atoms: C_9  and  C_10 
REMARK       I    between atoms: C_10  and  N_12 
REMARK    3  A    between atoms: N_12  and  C_13 
REMARK    4  A    between atoms: C_13  and  N_15 
REMARK    5  A    between atoms: N_15  and  C_16 
REMARK    6  A    between atoms: C_19  and  O_20 
REMARK    7  A    between atoms: C_22  and  C_23 
REMARK    8  A    between atoms: C_26  and  C_27 
REMARK    9  A    between atoms: C_27  and  O_28 
ROOT
ATOM      1  N   UNL d   1      25.697 -12.031  -4.802  0.00  0.00    -0.333 N 
ATOM      2  H   UNL d   1      24.780 -11.841  -5.190  0.00  0.00     0.168 HD
ENDROOT
BRANCH   1   3
ATOM      3  C   UNL d   1      25.942 -11.780  -3.426  0.00  0.00     0.179 C 
ATOM      4  S   UNL d   1      26.025 -10.211  -2.783  0.00  0.00    -0.040 SA
BRANCH   3   5
ATOM      5  N   UNL d   1      26.058 -12.937  -2.618  0.00  0.00    -0.299 N 
ATOM      6  C   UNL d   1      25.284 -14.107  -2.765  0.00  0.00     0.260 C 
ATOM      7  O   UNL d   1      24.333 -14.210  -3.552  0.00  0.00    -0.267 OA
ATOM      8  H   UNL d   1      26.763 -12.966  -1.889  0.00  0.00     0.171 HD
BRANCH   6   9
ATOM      9  C   UNL d   1      25.520 -15.342  -1.963  0.00  0.00     0.067 A 
ATOM     10  C   UNL d   1      24.405 -16.209  -1.805  0.00  0.00     0.039 A 
ATOM     11  C   UNL d   1      24.503 -17.395  -1.084  0.00  0.00     0.012 A 
ATOM     12  C   UNL d   1      25.707 -17.740  -0.494  0.00  0.00     0.022 A 
ATOM     13 BR   UNL d   1      23.002 -18.528  -0.895  0.00  0.00    -0.051 Br
ATOM     14  C   UNL d   1      26.814 -16.896  -0.638  0.00  0.00     0.039 A 
ATOM     15  C   UNL d   1      26.739 -15.711  -1.392  0.00  0.00     0.084 A 
BRANCH  15  16
ATOM     16  O   UNL d   1      27.815 -14.873  -1.526  0.00  0.00    -0.355 OA
ATOM     17  C   UNL d   1      28.334 -14.424  -0.272  0.00  0.00     0.210 C 
ENDBRANCH  15  16
ENDBRANCH   6   9
ENDBRANCH   3   5
ENDBRANCH   1   3
BRANCH   1  18
ATOM     18  C   UNL d   1      26.747 -12.260  -5.766  0.00  0.00     0.035 A 
ATOM     19  C   UNL d   1      26.958 -11.444  -6.874  0.00  0.00     0.032 A 
ATOM     20  C   UNL d   1      28.005 -11.745  -7.779  0.00  0.00     0.040 A 
ATOM     21  C   UNL d   1      28.896 -12.826  -7.576  0.00  0.00     0.081 A 
ATOM     22  C   UNL d   1      28.684 -13.655  -6.465  0.00  0.00     0.033 A 
ATOM     23  C   UNL d   1      27.589 -13.370  -5.625  0.00  0.00     0.046 A 
BRANCH  21  24
ATOM     24  O   UNL d   1      29.834 -12.948  -8.575  0.00  0.00    -0.355 OA
ATOM     25  C   UNL d   1      29.634 -12.202  -9.770  0.00  0.00     0.210 C 
ENDBRANCH  21  24
BRANCH  22  26
ATOM     26  C   UNL d   1      29.333 -14.933  -6.195  0.00  0.00     0.088 C 
ATOM     27  C   UNL d   1      30.259 -15.629  -6.941  0.00  0.00     0.041 C 
ATOM     28  C   UNL d   1      30.676 -16.714  -6.153  0.00  0.00     0.038 C 
ATOM     29  C   UNL d   1      29.960 -16.653  -4.974  0.00  0.00     0.077 C 
ATOM     30  O   UNL d   1      29.066 -15.613  -5.036  0.00  0.00    -0.312 OA
BRANCH  29  31
ATOM     31  C   UNL d   1      30.028 -17.453  -3.723  0.00  0.00     0.229 C 
BRANCH  31  32
ATOM     32  O   UNL d   1      29.006 -16.974  -2.847  0.00  0.00    -0.394 OA
ATOM     33  H   UNL d   1      29.013 -16.004  -2.927  0.00  0.00     0.209 HD
ENDBRANCH  31  32
ENDBRANCH  29  31
ENDBRANCH  22  26
ENDBRANCH   1  18
TORSDOF 9
ENDMDL
MODEL 9
REMARK VINA RESULT:    -6.875      2.020      4.526
REMARK INTER + INTRA:         -13.459
REMARK INTER:                  -9.560
REMARK INTRA:                  -3.900
REMARK CONF_INDEPENDENT:        2.685
REMARK UNBOUND:                -3.900
REMARK  9 active torsions:
REMARK  status: ('A' for Active; 'I' for Inactive)
REMARK    1  A    between atoms: O_2  and  C_3 
REMARK    2  A    between atoms: C_9  and  C_10 
REMARK       I    between atoms: C_10  and  N_12 
REMARK    3  A    between atoms: N_12  and  C_13 
REMARK    4  A    between atoms: C_13  and  N_15 
REMARK    5  A    between atoms: N_15  and  C_16 
REMARK    6  A    between atoms: C_19  and  O_20 
REMARK    7  A    between atoms: C_22  and  C_23 
REMARK    8  A    between atoms: C_26  and  C_27 
REMARK    9  A    between atoms: C_27  and  O_28 
ROOT
ATOM      1  N   UNL d   1      25.875 -13.390  -5.020  0.00  0.00    -0.333 N 
ATOM      2  H   UNL d   1      24.942 -13.515  -5.395  0.00  0.00     0.168 HD
ENDROOT
BRANCH   1   3
ATOM      3  C   UNL d   1      26.761 -14.498  -4.961  0.00  0.00     0.179 C 
ATOM      4  S   UNL d   1      27.920 -14.808  -6.161  0.00  0.00    -0.040 SA
BRANCH   3   5
ATOM      5  N   UNL d   1      26.643 -15.295  -3.796  0.00  0.00    -0.299 N 
ATOM      6  C   UNL d   1      25.462 -15.457  -3.042  0.00  0.00     0.260 C 
ATOM      7  O   UNL d   1      24.418 -14.825  -3.253  0.00  0.00    -0.267 OA
ATOM      8  H   UNL d   1      27.446 -15.825  -3.474  0.00  0.00     0.171 HD
BRANCH   6   9
ATOM      9  C   UNL d   1      25.359 -16.397  -1.888  0.00  0.00     0.067 A 
ATOM     10  C   UNL d   1      24.073 -16.949  -1.645  0.00  0.00     0.039 A 
ATOM     11  C   UNL d   1      23.851 -17.844  -0.603  0.00  0.00     0.012 A 
ATOM     12  C   UNL d   1      24.901 -18.201   0.228  0.00  0.00     0.022 A 
ATOM     13 BR   UNL d   1      22.129 -18.565  -0.307  0.00  0.00    -0.051 Br
ATOM     14  C   UNL d   1      26.173 -17.664   0.002  0.00  0.00     0.039 A 
ATOM     15  C   UNL d   1      26.418 -16.784  -1.067  0.00  0.00     0.084 A 
BRANCH  15  16
ATOM     16  O   UNL d   1      27.659 -16.243  -1.285  0.00  0.00    -0.355 OA
ATOM     17  C   UNL d   1      28.706 -16.962  -0.628  0.00  0.00     0.210 C 
ENDBRANCH  15  16
ENDBRANCH   6   9
ENDBRANCH   3   5
ENDBRANCH   1   3
BRANCH   1  18
ATOM     18  C   UNL d   1      26.101 -12.155  -4.308  0.00  0.00     0.035 A 
ATOM     19  C   UNL d   1      25.905 -10.899  -4.876  0.00  0.00     0.032 A 
ATOM     20  C   UNL d   1      26.162  -9.735  -4.110  0.00  0.00     0.040 A 
ATOM     21  C   UNL d   1      26.566  -9.792  -2.755  0.00  0.00     0.081 A 
ATOM     22  C   UNL d   1      26.771 -11.054  -2.181  0.00  0.00     0.033 A 
ATOM     23  C   UNL d   1      26.577 -12.190  -2.991  0.00  0.00     0.046 A 
BRANCH  21  24
ATOM     24  O   UNL d   1      26.769  -8.549  -2.199  0.00  0.00    -0.355 OA
ATOM     25  C   UNL d   1      25.810  -8.074  -1.262  0.00  0.00     0.210 C 
ENDBRANCH  21  24
BRANCH  22  26
ATOM     26  C   UNL d   1      27.393 -11.334  -0.891  0.00  0.00     0.088 C 
ATOM     27  C   UNL d   1      28.028 -10.483  -0.013  0.00  0.00     0.041 C 
ATOM     28  C   UNL d   1      28.296 -11.230   1.147  0.00  0.00     0.038 C 
ATOM     29  C   UNL d   1      27.843 -12.513   0.912  0.00  0.00     0.077 C 
ATOM     30  O   UNL d   1      27.373 -12.603  -0.375  0.00  0.00    -0.312 OA
BRANCH  29  31
ATOM     31  C   UNL d   1      27.755 -13.714   1.783  0.00  0.00     0.229 C 
BRANCH  31  32
ATOM     32  O   UNL d   1      27.029 -14.715   1.066  0.00  0.00    -0.394 OA
ATOM     33  H   UNL d   1      27.353 -14.681   0.149  0.00  0.00     0.209 HD
ENDBRANCH  31  32
ENDBRANCH  29  31
ENDBRANCH  22  26
ENDBRANCH   1  18
TORSDOF 9
ENDMDL
