MODEL 1
REMARK VINA RESULT:   -31.872      0.000      0.000
REMARK INTER + INTRA:         -34.310
REMARK INTER:                 -33.364
REMARK INTRA:                  -0.947
REMARK CONF_INDEPENDENT:        1.492
REMARK UNBOUND:                -0.947
REMARK  5 active torsions:
REMARK  status: ('A' for Active; 'I' for Inactive)
REMARK       I    between atoms: C_2  and  N_3 
REMARK    1  A    between atoms: C_2  and  C_12 
REMARK    2  A    between atoms: N_3  and  C_4 
REMARK    3  A    between atoms: C_10  and  O_11 
REMARK    4  A    between atoms: C_15  and  O_16 
REMARK    5  A    between atoms: O_16  and  C_17 
ROOT
ATOM      1  C   UNL d   1      25.087 -16.651  -1.569  0.00  0.00     0.032 A 
ATOM      2  C   UNL d   1      25.441 -17.798  -0.855  0.00  0.00     0.020 A 
ATOM      3  C   UNL d   1      24.490 -18.439  -0.044  0.00  0.00     0.038 A 
ATOM      4  C   UNL d   1      23.216 -17.886   0.141  0.00  0.00     0.076 A 
ATOM      5  C   UNL d   1      22.894 -16.703  -0.530  0.00  0.00     0.038 A 
ATOM      6  C   UNL d   1      23.817 -16.095  -1.384  0.00  0.00     0.020 A 
ENDROOT
BRANCH   1   7
ATOM      7  C   UNL d   1      26.001 -16.013  -2.557  0.00  0.00     0.256 C 
ATOM      8  O   UNL d   1      27.193 -16.326  -2.525  0.00  0.00    -0.267 OA
ATOM      9  N   UNL d   1      25.445 -14.989  -3.321  0.00  0.00    -0.320 N 
ATOM     10  H   UNL d   1      24.583 -14.582  -2.985  0.00  0.00     0.169 HD
BRANCH   9  11
ATOM     11  C   UNL d   1      26.240 -14.204  -4.194  0.00  0.00     0.070 A 
ATOM     12  C   UNL d   1      27.277 -14.812  -4.912  0.00  0.00     0.056 A 
ATOM     13  C   UNL d   1      28.006 -14.064  -5.844  0.00  0.00     0.036 A 
ATOM     14 CL   UNL d   1      29.229 -14.822  -6.791  0.00  0.00    -0.084 Cl
ATOM     15  C   UNL d   1      27.739 -12.708  -6.039  0.00  0.00     0.026 A 
ATOM     16  C   UNL d   1      26.746 -12.085  -5.285  0.00  0.00     0.040 A 
ATOM     17  C   UNL d   1      26.014 -12.829  -4.360  0.00  0.00     0.092 A 
BRANCH  17  18
ATOM     18  O   UNL d   1      25.135 -12.188  -3.528  0.00  0.00    -0.358 OA
ATOM     19  H   UNL d   1      24.483 -11.709  -4.060  0.00  0.00     0.217 HD
ENDBRANCH  17  18
ENDBRANCH   9  11
ENDBRANCH   1   7
BRANCH   4  20
ATOM     20  O   UNL d   1      22.385 -18.545   1.031  0.00  0.00    -0.309 OA
BRANCH  20  21
ATOM     21  C   UNL d   1      21.203 -19.074   0.571  0.00  0.00     0.093 A 
ATOM     22  C   UNL d   1      20.348 -19.800   1.397  0.00  0.00     0.040 A 
ATOM     23  C   UNL d   1      19.172 -20.330   0.872  0.00  0.00     0.022 A 
ATOM     24  C   UNL d   1      18.864 -20.064  -0.453  0.00  0.00     0.116 A 
ATOM     25  N   UNL d   1      19.649 -19.325  -1.270  0.00  0.00    -0.270 NA
ATOM     26  C   UNL d   1      20.802 -18.845  -0.738  0.00  0.00     0.153 A 
ENDBRANCH  20  21
ENDBRANCH   4  20
TORSDOF 5
ENDMDL
MODEL 2
REMARK VINA RESULT:   -31.868      1.583      1.866
REMARK INTER + INTRA:         -34.660
REMARK INTER:                 -33.359
REMARK INTRA:                  -1.301
REMARK CONF_INDEPENDENT:        1.492
REMARK UNBOUND:                -1.301
REMARK  5 active torsions:
REMARK  status: ('A' for Active; 'I' for Inactive)
REMARK       I    between atoms: C_2  and  N_3 
REMARK    1  A    between atoms: C_2  and  C_12 
REMARK    2  A    between atoms: N_3  and  C_4 
REMARK    3  A    between atoms: C_10  and  O_11 
REMARK    4  A    between atoms: C_15  and  O_16 
REMARK    5  A    between atoms: O_16  and  C_17 
ROOT
ATOM      1  C   UNL d   1      24.971 -16.400  -1.653  0.00  0.00     0.032 A 
ATOM      2  C   UNL d   1      25.427 -17.541  -0.987  0.00  0.00     0.020 A 
ATOM      3  C   UNL d   1      24.547 -18.278  -0.177  0.00  0.00     0.038 A 
ATOM      4  C   UNL d   1      23.239 -17.828   0.055  0.00  0.00     0.076 A 
ATOM      5  C   UNL d   1      22.814 -16.651  -0.567  0.00  0.00     0.038 A 
ATOM      6  C   UNL d   1      23.668 -15.947  -1.420  0.00  0.00     0.020 A 
ENDROOT
BRANCH   1   7
ATOM      7  C   UNL d   1      25.811 -15.665  -2.639  0.00  0.00     0.256 C 
ATOM      8  O   UNL d   1      27.023 -15.887  -2.642  0.00  0.00    -0.267 OA
ATOM      9  N   UNL d   1      25.162 -14.661  -3.355  0.00  0.00    -0.320 N 
ATOM     10  H   UNL d   1      24.280 -14.332  -2.986  0.00  0.00     0.169 HD
BRANCH   9  11
ATOM     11  C   UNL d   1      25.874 -13.791  -4.218  0.00  0.00     0.070 A 
ATOM     12  C   UNL d   1      25.614 -12.416  -4.172  0.00  0.00     0.056 A 
ATOM     13  C   UNL d   1      26.379 -11.541  -4.953  0.00  0.00     0.036 A 
ATOM     14 CL   UNL d   1      26.122  -9.840  -4.844  0.00  0.00    -0.084 Cl
ATOM     15  C   UNL d   1      27.370 -12.023  -5.807  0.00  0.00     0.026 A 
ATOM     16  C   UNL d   1      27.594 -13.396  -5.898  0.00  0.00     0.040 A 
ATOM     17  C   UNL d   1      26.839 -14.271  -5.117  0.00  0.00     0.092 A 
BRANCH  17  18
ATOM     18  O   UNL d   1      26.966 -15.621  -5.307  0.00  0.00    -0.358 OA
ATOM     19  H   UNL d   1      27.510 -15.993  -4.597  0.00  0.00     0.217 HD
ENDBRANCH  17  18
ENDBRANCH   9  11
ENDBRANCH   1   7
BRANCH   4  20
ATOM     20  O   UNL d   1      22.482 -18.576   0.940  0.00  0.00    -0.309 OA
BRANCH  20  21
ATOM     21  C   UNL d   1      21.260 -19.053   0.531  0.00  0.00     0.093 A 
ATOM     22  C   UNL d   1      20.371 -19.660   1.416  0.00  0.00     0.040 A 
ATOM     23  C   UNL d   1      19.154 -20.144   0.942  0.00  0.00     0.022 A 
ATOM     24  C   UNL d   1      18.844 -19.949  -0.394  0.00  0.00     0.116 A 
ATOM     25  N   UNL d   1      19.663 -19.323  -1.270  0.00  0.00    -0.270 NA
ATOM     26  C   UNL d   1      20.855 -18.888  -0.786  0.00  0.00     0.153 A 
ENDBRANCH  20  21
ENDBRANCH   4  20
TORSDOF 5
ENDMDL
MODEL 3
REMARK VINA RESULT:   -31.392      1.606      1.870
REMARK INTER + INTRA:         -34.272
REMARK INTER:                 -32.884
REMARK INTRA:                  -1.388
REMARK CONF_INDEPENDENT:        1.492
REMARK UNBOUND:                -1.388
REMARK  5 active torsions:
REMARK  status: ('A' for Active; 'I' for Inactive)
REMARK       I    between atoms: C_2  and  N_3 
REMARK    1  A    between atoms: C_2  and  C_12 
REMARK    2  A    between atoms: N_3  and  C_4 
REMARK    3  A    between atoms: C_10  and  O_11 
REMARK    4  A    between atoms: C_15  and  O_16 
REMARK    5  A    between atoms: O_16  and  C_17 
ROOT
ATOM      1  C   UNL d   1      24.978 -16.173  -1.909  0.00  0.00     0.032 A 
ATOM      2  C   UNL d   1      25.518 -17.312  -1.307  0.00  0.00     0.020 A 
ATOM      3  C   UNL d   1      24.719 -18.108  -0.470  0.00  0.00     0.038 A 
ATOM      4  C   UNL d   1      23.411 -17.719  -0.146  0.00  0.00     0.076 A 
ATOM      5  C   UNL d   1      22.903 -16.543  -0.706  0.00  0.00     0.038 A 
ATOM      6  C   UNL d   1      23.675 -15.781  -1.585  0.00  0.00     0.020 A 
ENDROOT
BRANCH   1   7
ATOM      7  C   UNL d   1      25.727 -15.375  -2.919  0.00  0.00     0.256 C 
ATOM      8  O   UNL d   1      25.086 -14.604  -3.634  0.00  0.00    -0.267 OA
ATOM      9  N   UNL d   1      27.072 -15.706  -3.074  0.00  0.00    -0.320 N 
ATOM     10  H   UNL d   1      27.370 -16.599  -2.706  0.00  0.00     0.169 HD
BRANCH   9  11
ATOM     11  C   UNL d   1      27.862 -15.126  -4.099  0.00  0.00     0.070 A 
ATOM     12  C   UNL d   1      29.049 -14.467  -3.759  0.00  0.00     0.056 A 
ATOM     13  C   UNL d   1      29.881 -13.974  -4.772  0.00  0.00     0.036 A 
ATOM     14 CL   UNL d   1      31.383 -13.233  -4.369  0.00  0.00    -0.084 Cl
ATOM     15  C   UNL d   1      29.522 -14.095  -6.115  0.00  0.00     0.026 A 
ATOM     16  C   UNL d   1      28.314 -14.700  -6.455  0.00  0.00     0.040 A 
ATOM     17  C   UNL d   1      27.485 -15.198  -5.449  0.00  0.00     0.092 A 
BRANCH  17  18
ATOM     18  O   UNL d   1      26.242 -15.668  -5.775  0.00  0.00    -0.358 OA
ATOM     19  H   UNL d   1      25.583 -15.257  -5.196  0.00  0.00     0.217 HD
ENDBRANCH  17  18
ENDBRANCH   9  11
ENDBRANCH   1   7
BRANCH   4  20
ATOM     20  O   UNL d   1      22.739 -18.523   0.758  0.00  0.00    -0.309 OA
BRANCH  20  21
ATOM     21  C   UNL d   1      21.473 -18.959   0.448  0.00  0.00     0.093 A 
ATOM     22  C   UNL d   1      20.582 -19.395   1.426  0.00  0.00     0.040 A 
ATOM     23  C   UNL d   1      19.318 -19.845   1.053  0.00  0.00     0.022 A 
ATOM     24  C   UNL d   1      18.968 -19.785  -0.287  0.00  0.00     0.116 A 
ATOM     25  N   UNL d   1      19.791 -19.325  -1.256  0.00  0.00    -0.270 NA
ATOM     26  C   UNL d   1      21.027 -18.920  -0.866  0.00  0.00     0.153 A 
ENDBRANCH  20  21
ENDBRANCH   4  20
TORSDOF 5
ENDMDL
MODEL 4
REMARK VINA RESULT:   -30.154      1.511      1.924
REMARK INTER + INTRA:         -32.625
REMARK INTER:                 -31.645
REMARK INTRA:                  -0.980
REMARK CONF_INDEPENDENT:        1.492
REMARK UNBOUND:                -0.980
REMARK  5 active torsions:
REMARK  status: ('A' for Active; 'I' for Inactive)
REMARK       I    between atoms: C_2  and  N_3 
REMARK    1  A    between atoms: C_2  and  C_12 
REMARK    2  A    between atoms: N_3  and  C_4 
REMARK    3  A    between atoms: C_10  and  O_11 
REMARK    4  A    between atoms: C_15  and  O_16 
REMARK    5  A    between atoms: O_16  and  C_17 
ROOT
ATOM      1  C   UNL d   1      24.860 -16.186  -1.938  0.00  0.00     0.032 A 
ATOM      2  C   UNL d   1      25.379 -17.371  -1.411  0.00  0.00     0.020 A 
ATOM      3  C   UNL d   1      24.588 -18.168  -0.567  0.00  0.00     0.038 A 
ATOM      4  C   UNL d   1      23.317 -17.739  -0.161  0.00  0.00     0.076 A 
ATOM      5  C   UNL d   1      22.833 -16.520  -0.645  0.00  0.00     0.038 A 
ATOM      6  C   UNL d   1      23.593 -15.754  -1.532  0.00  0.00     0.020 A 
ENDROOT
BRANCH   1   7
ATOM      7  C   UNL d   1      25.592 -15.378  -2.953  0.00  0.00     0.256 C 
ATOM      8  O   UNL d   1      25.192 -15.416  -4.117  0.00  0.00    -0.267 OA
ATOM      9  N   UNL d   1      26.773 -14.782  -2.514  0.00  0.00    -0.320 N 
ATOM     10  H   UNL d   1      27.177 -15.141  -1.659  0.00  0.00     0.169 HD
BRANCH   9  11
ATOM     11  C   UNL d   1      27.638 -14.108  -3.412  0.00  0.00     0.070 A 
ATOM     12  C   UNL d   1      27.097 -13.451  -4.523  0.00  0.00     0.056 A 
ATOM     13  C   UNL d   1      27.935 -12.706  -5.362  0.00  0.00     0.036 A 
ATOM     14 CL   UNL d   1      27.267 -11.827  -6.685  0.00  0.00    -0.084 Cl
ATOM     15  C   UNL d   1      29.309 -12.642  -5.129  0.00  0.00     0.026 A 
ATOM     16  C   UNL d   1      29.860 -13.341  -4.056  0.00  0.00     0.040 A 
ATOM     17  C   UNL d   1      29.028 -14.080  -3.214  0.00  0.00     0.092 A 
BRANCH  17  18
ATOM     18  O   UNL d   1      29.585 -14.872  -2.247  0.00  0.00    -0.358 OA
ATOM     19  H   UNL d   1      29.155 -14.690  -1.398  0.00  0.00     0.217 HD
ENDBRANCH  17  18
ENDBRANCH   9  11
ENDBRANCH   1   7
BRANCH   4  20
ATOM     20  O   UNL d   1      22.656 -18.551   0.744  0.00  0.00    -0.309 OA
BRANCH  20  21
ATOM     21  C   UNL d   1      21.407 -19.026   0.423  0.00  0.00     0.093 A 
ATOM     22  C   UNL d   1      20.568 -19.602   1.376  0.00  0.00     0.040 A 
ATOM     23  C   UNL d   1      19.320 -20.084   0.990  0.00  0.00     0.022 A 
ATOM     24  C   UNL d   1      18.930 -19.919  -0.330  0.00  0.00     0.116 A 
ATOM     25  N   UNL d   1      19.700 -19.324  -1.269  0.00  0.00    -0.270 NA
ATOM     26  C   UNL d   1      20.923 -18.889  -0.870  0.00  0.00     0.153 A 
ENDBRANCH  20  21
ENDBRANCH   4  20
TORSDOF 5
ENDMDL
MODEL 5
REMARK VINA RESULT:   -29.688      4.177      4.976
REMARK INTER + INTRA:         -32.078
REMARK INTER:                 -31.179
REMARK INTRA:                  -0.898
REMARK CONF_INDEPENDENT:        1.492
REMARK UNBOUND:                -0.898
REMARK  5 active torsions:
REMARK  status: ('A' for Active; 'I' for Inactive)
REMARK       I    between atoms: C_2  and  N_3 
REMARK    1  A    between atoms: C_2  and  C_12 
REMARK    2  A    between atoms: N_3  and  C_4 
REMARK    3  A    between atoms: C_10  and  O_11 
REMARK    4  A    between atoms: C_15  and  O_16 
REMARK    5  A    between atoms: O_16  and  C_17 
ROOT
ATOM      1  C   UNL d   1      26.012 -16.191  -0.348  0.00  0.00     0.032 A 
ATOM      2  C   UNL d   1      25.102 -15.926  -1.375  0.00  0.00     0.020 A 
ATOM      3  C   UNL d   1      24.124 -16.878  -1.706  0.00  0.00     0.038 A 
ATOM      4  C   UNL d   1      24.111 -18.138  -1.090  0.00  0.00     0.076 A 
ATOM      5  C   UNL d   1      25.066 -18.414  -0.108  0.00  0.00     0.038 A 
ATOM      6  C   UNL d   1      26.003 -17.448   0.266  0.00  0.00     0.020 A 
ENDROOT
BRANCH   1   7
ATOM      7  C   UNL d   1      26.973 -15.167   0.148  0.00  0.00     0.256 C 
ATOM      8  O   UNL d   1      27.012 -14.083  -0.436  0.00  0.00    -0.267 OA
ATOM      9  N   UNL d   1      27.862 -15.599   1.131  0.00  0.00    -0.320 N 
ATOM     10  H   UNL d   1      27.972 -16.599   1.242  0.00  0.00     0.169 HD
BRANCH   9  11
ATOM     11  C   UNL d   1      28.919 -14.772   1.586  0.00  0.00     0.070 A 
ATOM     12  C   UNL d   1      29.892 -14.341   0.676  0.00  0.00     0.056 A 
ATOM     13  C   UNL d   1      30.886 -13.448   1.098  0.00  0.00     0.036 A 
ATOM     14 CL   UNL d   1      32.040 -12.848  -0.032  0.00  0.00    -0.084 Cl
ATOM     15  C   UNL d   1      30.943 -13.014   2.422  0.00  0.00     0.026 A 
ATOM     16  C   UNL d   1      30.010 -13.485   3.344  0.00  0.00     0.040 A 
ATOM     17  C   UNL d   1      29.014 -14.369   2.927  0.00  0.00     0.092 A 
BRANCH  17  18
ATOM     18  O   UNL d   1      28.185 -14.934   3.858  0.00  0.00    -0.358 OA
ATOM     19  H   UNL d   1      28.453 -15.852   4.009  0.00  0.00     0.217 HD
ENDBRANCH  17  18
ENDBRANCH   9  11
ENDBRANCH   1   7
BRANCH   4  20
ATOM     20  O   UNL d   1      23.165 -19.036  -1.552  0.00  0.00    -0.309 OA
BRANCH  20  21
ATOM     21  C   UNL d   1      21.953 -19.116  -0.909  0.00  0.00     0.093 A 
ATOM     22  C   UNL d   1      21.843 -19.015   0.476  0.00  0.00     0.040 A 
ATOM     23  C   UNL d   1      20.592 -19.123   1.076  0.00  0.00     0.022 A 
ATOM     24  C   UNL d   1      19.481 -19.269   0.259  0.00  0.00     0.116 A 
ATOM     25  N   UNL d   1      19.547 -19.325  -1.090  0.00  0.00    -0.270 NA
ATOM     26  C   UNL d   1      20.783 -19.245  -1.645  0.00  0.00     0.153 A 
ENDBRANCH  20  21
ENDBRANCH   4  20
TORSDOF 5
ENDMDL
MODEL 6
REMARK VINA RESULT:   -29.529      4.494      5.272
REMARK INTER + INTRA:         -32.554
REMARK INTER:                 -31.020
REMARK INTRA:                  -1.534
REMARK CONF_INDEPENDENT:        1.492
REMARK UNBOUND:                -1.534
REMARK  5 active torsions:
REMARK  status: ('A' for Active; 'I' for Inactive)
REMARK       I    between atoms: C_2  and  N_3 
REMARK    1  A    between atoms: C_2  and  C_12 
REMARK    2  A    between atoms: N_3  and  C_4 
REMARK    3  A    between atoms: C_10  and  O_11 
REMARK    4  A    between atoms: C_15  and  O_16 
REMARK    5  A    between atoms: O_16  and  C_17 
ROOT
ATOM      1  C   UNL d   1      26.063 -16.110  -0.118  0.00  0.00     0.032 A 
ATOM      2  C   UNL d   1      25.092 -15.659  -1.016  0.00  0.00     0.020 A 
ATOM      3  C   UNL d   1      24.090 -16.536  -1.463  0.00  0.00     0.038 A 
ATOM      4  C   UNL d   1      24.108 -17.890  -1.100  0.00  0.00     0.076 A 
ATOM      5  C   UNL d   1      25.121 -18.343  -0.250  0.00  0.00     0.038 A 
ATOM      6  C   UNL d   1      26.085 -17.461   0.244  0.00  0.00     0.020 A 
ENDROOT
BRANCH   1   7
ATOM      7  C   UNL d   1      27.059 -15.194   0.505  0.00  0.00     0.256 C 
ATOM      8  O   UNL d   1      28.224 -15.585   0.593  0.00  0.00    -0.267 OA
ATOM      9  N   UNL d   1      26.537 -14.041   1.086  0.00  0.00    -0.320 N 
ATOM     10  H   UNL d   1      25.544 -14.032   1.278  0.00  0.00     0.169 HD
BRANCH   9  11
ATOM     11  C   UNL d   1      27.354 -13.158   1.837  0.00  0.00     0.070 A 
ATOM     12  C   UNL d   1      27.457 -11.818   1.446  0.00  0.00     0.056 A 
ATOM     13  C   UNL d   1      28.186 -10.920   2.235  0.00  0.00     0.036 A 
ATOM     14 CL   UNL d   1      28.251  -9.253   1.806  0.00  0.00    -0.084 Cl
ATOM     15  C   UNL d   1      28.845 -11.351   3.386  0.00  0.00     0.026 A 
ATOM     16  C   UNL d   1      28.793 -12.696   3.749  0.00  0.00     0.040 A 
ATOM     17  C   UNL d   1      28.062 -13.593   2.969  0.00  0.00     0.092 A 
BRANCH  17  18
ATOM     18  O   UNL d   1      28.123 -14.931   3.249  0.00  0.00    -0.358 OA
ATOM     19  H   UNL d   1      28.462 -15.405   2.476  0.00  0.00     0.217 HD
ENDBRANCH  17  18
ENDBRANCH   9  11
ENDBRANCH   1   7
BRANCH   4  20
ATOM     20  O   UNL d   1      23.130 -18.689  -1.666  0.00  0.00    -0.309 OA
BRANCH  20  21
ATOM     21  C   UNL d   1      21.970 -18.919  -0.965  0.00  0.00     0.093 A 
ATOM     22  C   UNL d   1      21.937 -18.923   0.428  0.00  0.00     0.040 A 
ATOM     23  C   UNL d   1      20.737 -19.181   1.086  0.00  0.00     0.022 A 
ATOM     24  C   UNL d   1      19.596 -19.368   0.323  0.00  0.00     0.116 A 
ATOM     25  N   UNL d   1      19.583 -19.324  -1.029  0.00  0.00    -0.270 NA
ATOM     26  C   UNL d   1      20.773 -19.099  -1.643  0.00  0.00     0.153 A 
ENDBRANCH  20  21
ENDBRANCH   4  20
TORSDOF 5
ENDMDL
MODEL 7
REMARK VINA RESULT:   -29.417      4.593      5.472
REMARK INTER + INTRA:         -32.426
REMARK INTER:                 -30.908
REMARK INTRA:                  -1.518
REMARK CONF_INDEPENDENT:        1.492
REMARK UNBOUND:                -1.518
REMARK  5 active torsions:
REMARK  status: ('A' for Active; 'I' for Inactive)
REMARK       I    between atoms: C_2  and  N_3 
REMARK    1  A    between atoms: C_2  and  C_12 
REMARK    2  A    between atoms: N_3  and  C_4 
REMARK    3  A    between atoms: C_10  and  O_11 
REMARK    4  A    between atoms: C_15  and  O_16 
REMARK    5  A    between atoms: O_16  and  C_17 
ROOT
ATOM      1  C   UNL d   1      25.952 -16.044  -0.276  0.00  0.00     0.032 A 
ATOM      2  C   UNL d   1      25.032 -15.717  -1.276  0.00  0.00     0.020 A 
ATOM      3  C   UNL d   1      24.055 -16.651  -1.661  0.00  0.00     0.038 A 
ATOM      4  C   UNL d   1      24.052 -17.947  -1.127  0.00  0.00     0.076 A 
ATOM      5  C   UNL d   1      25.016 -18.281  -0.172  0.00  0.00     0.038 A 
ATOM      6  C   UNL d   1      25.952 -17.338   0.256  0.00  0.00     0.020 A 
ENDROOT
BRANCH   1   7
ATOM      7  C   UNL d   1      26.913 -15.050   0.277  0.00  0.00     0.256 C 
ATOM      8  O   UNL d   1      27.157 -14.048  -0.396  0.00  0.00    -0.267 OA
ATOM      9  N   UNL d   1      27.577 -15.435   1.440  0.00  0.00    -0.320 N 
ATOM     10  H   UNL d   1      27.567 -16.420   1.669  0.00  0.00     0.169 HD
BRANCH   9  11
ATOM     11  C   UNL d   1      28.620 -14.648   1.990  0.00  0.00     0.070 A 
ATOM     12  C   UNL d   1      28.453 -14.076   3.257  0.00  0.00     0.056 A 
ATOM     13  C   UNL d   1      29.513 -13.376   3.845  0.00  0.00     0.036 A 
ATOM     14 CL   UNL d   1      29.346 -12.738   5.437  0.00  0.00    -0.084 Cl
ATOM     15  C   UNL d   1      30.721 -13.205   3.169  0.00  0.00     0.026 A 
ATOM     16  C   UNL d   1      30.872 -13.724   1.885  0.00  0.00     0.040 A 
ATOM     17  C   UNL d   1      29.821 -14.428   1.297  0.00  0.00     0.092 A 
BRANCH  17  18
ATOM     18  O   UNL d   1      29.922 -14.818  -0.011  0.00  0.00    -0.358 OA
ATOM     19  H   UNL d   1      29.308 -14.297  -0.548  0.00  0.00     0.217 HD
ENDBRANCH  17  18
ENDBRANCH   9  11
ENDBRANCH   1   7
BRANCH   4  20
ATOM     20  O   UNL d   1      23.106 -18.817  -1.638  0.00  0.00    -0.309 OA
BRANCH  20  21
ATOM     21  C   UNL d   1      21.931 -19.004  -0.949  0.00  0.00     0.093 A 
ATOM     22  C   UNL d   1      21.885 -19.010   0.444  0.00  0.00     0.040 A 
ATOM     23  C   UNL d   1      20.670 -19.223   1.090  0.00  0.00     0.022 A 
ATOM     24  C   UNL d   1      19.529 -19.365   0.315  0.00  0.00     0.116 A 
ATOM     25  N   UNL d   1      19.531 -19.318  -1.036  0.00  0.00    -0.270 NA
ATOM     26  C   UNL d   1      20.734 -19.137  -1.639  0.00  0.00     0.153 A 
ENDBRANCH  20  21
ENDBRANCH   4  20
TORSDOF 5
ENDMDL
MODEL 8
REMARK VINA RESULT:   -29.198      4.339      5.126
REMARK INTER + INTRA:         -31.631
REMARK INTER:                 -30.690
REMARK INTRA:                  -0.941
REMARK CONF_INDEPENDENT:        1.492
REMARK UNBOUND:                -0.941
REMARK  5 active torsions:
REMARK  status: ('A' for Active; 'I' for Inactive)
REMARK       I    between atoms: C_2  and  N_3 
REMARK    1  A    between atoms: C_2  and  C_12 
REMARK    2  A    between atoms: N_3  and  C_4 
REMARK    3  A    between atoms: C_10  and  O_11 
REMARK    4  A    between atoms: C_15  and  O_16 
REMARK    5  A    between atoms: O_16  and  C_17 
ROOT
ATOM      1  C   UNL d   1      26.207 -16.122  -0.149  0.00  0.00     0.032 A 
ATOM      2  C   UNL d   1      26.102 -17.453   0.263  0.00  0.00     0.020 A 
ATOM      3  C   UNL d   1      25.158 -18.300  -0.340  0.00  0.00     0.038 A 
ATOM      4  C   UNL d   1      24.247 -17.803  -1.283  0.00  0.00     0.076 A 
ATOM      5  C   UNL d   1      24.321 -16.455  -1.641  0.00  0.00     0.038 A 
ATOM      6  C   UNL d   1      25.297 -15.623  -1.087  0.00  0.00     0.020 A 
ENDROOT
BRANCH   1   7
ATOM      7  C   UNL d   1      27.282 -15.217   0.344  0.00  0.00     0.256 C 
ATOM      8  O   UNL d   1      27.078 -14.003   0.301  0.00  0.00    -0.267 OA
ATOM      9  N   UNL d   1      28.494 -15.832   0.654  0.00  0.00    -0.320 N 
ATOM     10  H   UNL d   1      28.644 -16.762   0.285  0.00  0.00     0.169 HD
BRANCH   9  11
ATOM     11  C   UNL d   1      29.641 -15.073   0.995  0.00  0.00     0.070 A 
ATOM     12  C   UNL d   1      29.495 -13.721   1.328  0.00  0.00     0.056 A 
ATOM     13  C   UNL d   1      30.610 -12.989   1.755  0.00  0.00     0.036 A 
ATOM     14 CL   UNL d   1      30.427 -11.347   2.244  0.00  0.00    -0.084 Cl
ATOM     15  C   UNL d   1      31.873 -13.579   1.817  0.00  0.00     0.026 A 
ATOM     16  C   UNL d   1      32.033 -14.909   1.433  0.00  0.00     0.040 A 
ATOM     17  C   UNL d   1      30.924 -15.644   1.012  0.00  0.00     0.092 A 
BRANCH  17  18
ATOM     18  O   UNL d   1      31.105 -16.903   0.508  0.00  0.00    -0.358 OA
ATOM     19  H   UNL d   1      30.494 -17.514   0.948  0.00  0.00     0.217 HD
ENDBRANCH  17  18
ENDBRANCH   9  11
ENDBRANCH   1   7
BRANCH   4  20
ATOM     20  O   UNL d   1      23.300 -18.698  -1.749  0.00  0.00    -0.309 OA
BRANCH  20  21
ATOM     21  C   UNL d   1      22.162 -18.908  -1.008  0.00  0.00     0.093 A 
ATOM     22  C   UNL d   1      22.169 -18.868   0.385  0.00  0.00     0.040 A 
ATOM     23  C   UNL d   1      20.990 -19.109   1.085  0.00  0.00     0.022 A 
ATOM     24  C   UNL d   1      19.827 -19.323   0.362  0.00  0.00     0.116 A 
ATOM     25  N   UNL d   1      19.775 -19.323  -0.989  0.00  0.00    -0.270 NA
ATOM     26  C   UNL d   1      20.946 -19.114  -1.645  0.00  0.00     0.153 A 
ENDBRANCH  20  21
ENDBRANCH   4  20
TORSDOF 5
ENDMDL
