MODEL 1
REMARK VINA RESULT:   -10.049      0.000      0.000
REMARK INTER + INTRA:         -13.560
REMARK INTER:                 -12.137
REMARK INTRA:                  -1.423
REMARK CONF_INDEPENDENT:        2.088
REMARK UNBOUND:                -1.423
REMARK  7 active torsions:
REMARK  status: ('A' for Active; 'I' for Inactive)
REMARK    1  A    between atoms: C_5  and  N_6 
REMARK       I    between atoms: N_6  and  C_7 
REMARK    2  A    between atoms: C_7  and  C_9 
REMARK    3  A    between atoms: C_9  and  N_10 
REMARK    4  A    between atoms: N_10  and  C_11 
REMARK    5  A    between atoms: C_14  and  C_15 
REMARK       I    between atoms: C_15  and  N_17 
REMARK    6  A    between atoms: N_17  and  C_18 
REMARK    7  A    between atoms: C_18  and  C_19 
ROOT
ATOM      1  C   UNL d   1      26.791 -16.683   0.495  0.00  0.00     0.028 A 
ATOM      2  C   UNL d   1      25.858 -15.905  -0.202  0.00  0.00     0.030 A 
ATOM      3  C   UNL d   1      24.640 -16.448  -0.652  0.00  0.00     0.019 A 
ATOM      4  C   UNL d   1      24.345 -17.806  -0.464  0.00  0.00     0.032 A 
ATOM      5  C   UNL d   1      25.264 -18.577   0.256  0.00  0.00     0.019 A 
ATOM      6  C   UNL d   1      26.469 -18.020   0.716  0.00  0.00     0.030 A 
ENDROOT
BRANCH   1   7
ATOM      7  N   UNL d   1      27.982 -16.121   0.899  0.00  0.00    -0.381 N 
ATOM      8  H   UNL d   1      28.790 -16.745   0.983  0.00  0.00     0.160 HD
BRANCH   7   9
ATOM      9  C   UNL d   1      28.325 -14.691   0.821  0.00  0.00     0.223 C 
BRANCH   9  10
ATOM     10  C   UNL d   1      28.088 -14.049   2.203  0.00  0.00     0.239 C 
ATOM     11  N   UNL d   1      28.894 -14.486   3.262  0.00  0.00    -0.326 N 
ATOM     12  H   UNL d   1      29.593 -15.200   3.081  0.00  0.00     0.169 HD
ATOM     13  O   UNL d   1      27.197 -13.199   2.292  0.00  0.00    -0.271 OA
BRANCH  11  14
ATOM     14  C   UNL d   1      28.808 -13.991   4.605  0.00  0.00     0.036 A 
ATOM     15  C   UNL d   1      27.815 -13.087   4.988  0.00  0.00     0.030 A 
ATOM     16  C   UNL d   1      27.705 -12.594   6.286  0.00  0.00     0.011 A 
ATOM     17  C   UNL d   1      28.601 -12.986   7.274  0.00  0.00    -0.040 A 
ATOM     18  C   UNL d   1      28.428 -12.425   8.658  0.00  0.00     0.050 C 
ATOM     19  C   UNL d   1      29.615 -13.888   6.914  0.00  0.00     0.042 A 
ATOM     20  C   UNL d   1      29.720 -14.391   5.593  0.00  0.00     0.053 A 
ATOM     21 CL   UNL d   1      30.776 -14.404   8.089  0.00  0.00    -0.084 Cl
ENDBRANCH  11  14
ENDBRANCH   9  10
ENDBRANCH   7   9
ENDBRANCH   1   7
BRANCH   4  22
ATOM     22  C   UNL d   1      23.097 -18.378  -1.082  0.00  0.00     0.251 C 
ATOM     23  O   UNL d   1      23.160 -18.952  -2.172  0.00  0.00    -0.268 OA
ATOM     24  N   UNL d   1      21.910 -18.266  -0.387  0.00  0.00    -0.351 N 
ATOM     25  H   UNL d   1      21.884 -17.848   0.528  0.00  0.00     0.163 HD
BRANCH  24  26
ATOM     26  C   UNL d   1      20.668 -18.837  -0.893  0.00  0.00     0.187 C 
BRANCH  26  27
ATOM     27  C   UNL d   1      19.939 -19.531   0.209  0.00  0.00     0.070 A 
ATOM     28  C   UNL d   1      18.901 -20.443   0.218  0.00  0.00     0.036 A 
ATOM     29  C   UNL d   1      18.698 -20.824   1.563  0.00  0.00     0.027 A 
ATOM     30  C   UNL d   1      19.616 -20.115   2.303  0.00  0.00     0.142 A 
ATOM     31  O   UNL d   1      20.370 -19.323   1.492  0.00  0.00    -0.325 OA
ENDBRANCH  26  27
ENDBRANCH  24  26
ENDBRANCH   4  22
TORSDOF 7
ENDMDL
MODEL 2
REMARK VINA RESULT:    -9.885      1.114      1.314
REMARK INTER + INTRA:         -13.528
REMARK INTER:                 -11.973
REMARK INTRA:                  -1.555
REMARK CONF_INDEPENDENT:        2.088
REMARK UNBOUND:                -1.555
REMARK  7 active torsions:
REMARK  status: ('A' for Active; 'I' for Inactive)
REMARK    1  A    between atoms: C_5  and  N_6 
REMARK       I    between atoms: N_6  and  C_7 
REMARK    2  A    between atoms: C_7  and  C_9 
REMARK    3  A    between atoms: C_9  and  N_10 
REMARK    4  A    between atoms: N_10  and  C_11 
REMARK    5  A    between atoms: C_14  and  C_15 
REMARK       I    between atoms: C_15  and  N_17 
REMARK    6  A    between atoms: N_17  and  C_18 
REMARK    7  A    between atoms: C_18  and  C_19 
ROOT
ATOM      1  C   UNL d   1      26.652 -16.718   0.261  0.00  0.00     0.028 A 
ATOM      2  C   UNL d   1      25.750 -15.994  -0.530  0.00  0.00     0.030 A 
ATOM      3  C   UNL d   1      24.517 -16.545  -0.928  0.00  0.00     0.019 A 
ATOM      4  C   UNL d   1      24.176 -17.862  -0.589  0.00  0.00     0.032 A 
ATOM      5  C   UNL d   1      25.063 -18.575   0.223  0.00  0.00     0.019 A 
ATOM      6  C   UNL d   1      26.283 -18.009   0.630  0.00  0.00     0.030 A 
ENDROOT
BRANCH   1   7
ATOM      7  N   UNL d   1      27.858 -16.152   0.610  0.00  0.00    -0.381 N 
ATOM      8  H   UNL d   1      28.656 -16.785   0.723  0.00  0.00     0.160 HD
BRANCH   7   9
ATOM      9  C   UNL d   1      28.224 -14.737   0.436  0.00  0.00     0.223 C 
BRANCH   9  10
ATOM     10  C   UNL d   1      28.022 -14.003   1.778  0.00  0.00     0.239 C 
ATOM     11  N   UNL d   1      28.773 -14.450   2.873  0.00  0.00    -0.326 N 
ATOM     12  H   UNL d   1      29.412 -15.228   2.743  0.00  0.00     0.169 HD
ATOM     13  O   UNL d   1      27.205 -13.079   1.805  0.00  0.00    -0.271 OA
BRANCH  11  14
ATOM     14  C   UNL d   1      28.710 -13.878   4.186  0.00  0.00     0.036 A 
ATOM     15  C   UNL d   1      28.649 -14.679   5.329  0.00  0.00     0.030 A 
ATOM     16  C   UNL d   1      28.591 -14.150   6.617  0.00  0.00     0.011 A 
ATOM     17  C   UNL d   1      28.588 -12.775   6.822  0.00  0.00    -0.040 A 
ATOM     18  C   UNL d   1      28.531 -12.264   8.235  0.00  0.00     0.050 C 
ATOM     19  C   UNL d   1      28.640 -11.947   5.690  0.00  0.00     0.042 A 
ATOM     20  C   UNL d   1      28.703 -12.489   4.382  0.00  0.00     0.053 A 
ATOM     21 CL   UNL d   1      28.620 -10.226   5.870  0.00  0.00    -0.084 Cl
ENDBRANCH  11  14
ENDBRANCH   9  10
ENDBRANCH   7   9
ENDBRANCH   1   7
BRANCH   4  22
ATOM     22  C   UNL d   1      22.913 -18.460  -1.152  0.00  0.00     0.251 C 
ATOM     23  O   UNL d   1      22.941 -19.044  -2.238  0.00  0.00    -0.268 OA
ATOM     24  N   UNL d   1      21.753 -18.359  -0.411  0.00  0.00    -0.351 N 
ATOM     25  H   UNL d   1      21.757 -17.932   0.500  0.00  0.00     0.163 HD
BRANCH  24  26
ATOM     26  C   UNL d   1      20.501 -18.955  -0.861  0.00  0.00     0.187 C 
BRANCH  26  27
ATOM     27  C   UNL d   1      19.799 -19.598   0.288  0.00  0.00     0.070 A 
ATOM     28  C   UNL d   1      18.756 -20.500   0.364  0.00  0.00     0.036 A 
ATOM     29  C   UNL d   1      18.588 -20.823   1.729  0.00  0.00     0.027 A 
ATOM     30  C   UNL d   1      19.530 -20.091   2.413  0.00  0.00     0.142 A 
ATOM     31  O   UNL d   1      20.267 -19.339   1.550  0.00  0.00    -0.325 OA
ENDBRANCH  26  27
ENDBRANCH  24  26
ENDBRANCH   4  22
TORSDOF 7
ENDMDL
MODEL 3
REMARK VINA RESULT:    -9.234      1.926      2.481
REMARK INTER + INTRA:         -12.371
REMARK INTER:                 -11.322
REMARK INTRA:                  -1.049
REMARK CONF_INDEPENDENT:        2.088
REMARK UNBOUND:                -1.049
REMARK  7 active torsions:
REMARK  status: ('A' for Active; 'I' for Inactive)
REMARK    1  A    between atoms: C_5  and  N_6 
REMARK       I    between atoms: N_6  and  C_7 
REMARK    2  A    between atoms: C_7  and  C_9 
REMARK    3  A    between atoms: C_9  and  N_10 
REMARK    4  A    between atoms: N_10  and  C_11 
REMARK    5  A    between atoms: C_14  and  C_15 
REMARK       I    between atoms: C_15  and  N_17 
REMARK    6  A    between atoms: N_17  and  C_18 
REMARK    7  A    between atoms: C_18  and  C_19 
ROOT
ATOM      1  C   UNL d   1      26.614 -17.489  -0.377  0.00  0.00     0.028 A 
ATOM      2  C   UNL d   1      25.824 -18.116   0.596  0.00  0.00     0.030 A 
ATOM      3  C   UNL d   1      24.439 -18.289   0.417  0.00  0.00     0.019 A 
ATOM      4  C   UNL d   1      23.794 -17.788  -0.723  0.00  0.00     0.032 A 
ATOM      5  C   UNL d   1      24.585 -17.187  -1.707  0.00  0.00     0.019 A 
ATOM      6  C   UNL d   1      25.971 -17.035  -1.526  0.00  0.00     0.030 A 
ENDROOT
BRANCH   1   7
ATOM      7  N   UNL d   1      27.962 -17.318  -0.153  0.00  0.00    -0.381 N 
ATOM      8  H   UNL d   1      28.504 -18.150   0.102  0.00  0.00     0.160 HD
BRANCH   7   9
ATOM      9  C   UNL d   1      28.775 -16.189  -0.634  0.00  0.00     0.223 C 
BRANCH   9  10
ATOM     10  C   UNL d   1      28.348 -14.913   0.121  0.00  0.00     0.239 C 
ATOM     11  N   UNL d   1      28.730 -14.804   1.464  0.00  0.00    -0.326 N 
ATOM     12  H   UNL d   1      29.266 -15.559   1.882  0.00  0.00     0.169 HD
ATOM     13  O   UNL d   1      27.689 -14.076  -0.501  0.00  0.00    -0.271 OA
BRANCH  11  14
ATOM     14  C   UNL d   1      28.421 -13.686   2.307  0.00  0.00     0.036 A 
ATOM     15  C   UNL d   1      28.277 -12.398   1.788  0.00  0.00     0.030 A 
ATOM     16  C   UNL d   1      27.973 -11.295   2.583  0.00  0.00     0.011 A 
ATOM     17  C   UNL d   1      27.800 -11.433   3.955  0.00  0.00    -0.040 A 
ATOM     18  C   UNL d   1      27.467 -10.208   4.760  0.00  0.00     0.050 C 
ATOM     19  C   UNL d   1      27.949 -12.716   4.504  0.00  0.00     0.042 A 
ATOM     20  C   UNL d   1      28.253 -13.837   3.692  0.00  0.00     0.053 A 
ATOM     21 CL   UNL d   1      27.767 -12.958   6.209  0.00  0.00    -0.084 Cl
ENDBRANCH  11  14
ENDBRANCH   9  10
ENDBRANCH   7   9
ENDBRANCH   1   7
BRANCH   4  22
ATOM     22  C   UNL d   1      22.293 -17.870  -0.811  0.00  0.00     0.251 C 
ATOM     23  O   UNL d   1      21.626 -16.836  -0.902  0.00  0.00    -0.268 OA
ATOM     24  N   UNL d   1      21.703 -19.118  -0.816  0.00  0.00    -0.351 N 
ATOM     25  H   UNL d   1      22.262 -19.954  -0.802  0.00  0.00     0.163 HD
BRANCH  24  26
ATOM     26  C   UNL d   1      20.261 -19.284  -0.950  0.00  0.00     0.187 C 
BRANCH  26  27
ATOM     27  C   UNL d   1      19.700 -19.899   0.288  0.00  0.00     0.070 A 
ATOM     28  C   UNL d   1      19.807 -19.577   1.627  0.00  0.00     0.036 A 
ATOM     29  C   UNL d   1      18.969 -20.468   2.335  0.00  0.00     0.027 A 
ATOM     30  C   UNL d   1      18.406 -21.293   1.390  0.00  0.00     0.142 A 
ATOM     31  O   UNL d   1      18.847 -20.961   0.145  0.00  0.00    -0.325 OA
ENDBRANCH  26  27
ENDBRANCH  24  26
ENDBRANCH   4  22
TORSDOF 7
ENDMDL
MODEL 4
REMARK VINA RESULT:    -8.810      5.129      7.186
REMARK INTER + INTRA:         -11.934
REMARK INTER:                 -10.898
REMARK INTRA:                  -1.036
REMARK CONF_INDEPENDENT:        2.088
REMARK UNBOUND:                -1.036
REMARK  7 active torsions:
REMARK  status: ('A' for Active; 'I' for Inactive)
REMARK    1  A    between atoms: C_5  and  N_6 
REMARK       I    between atoms: N_6  and  C_7 
REMARK    2  A    between atoms: C_7  and  C_9 
REMARK    3  A    between atoms: C_9  and  N_10 
REMARK    4  A    between atoms: N_10  and  C_11 
REMARK    5  A    between atoms: C_14  and  C_15 
REMARK       I    between atoms: C_15  and  N_17 
REMARK    6  A    between atoms: N_17  and  C_18 
REMARK    7  A    between atoms: C_18  and  C_19 
ROOT
ATOM      1  C   UNL d   1      26.319 -17.183  -0.116  0.00  0.00     0.028 A 
ATOM      2  C   UNL d   1      25.651 -18.256   0.487  0.00  0.00     0.030 A 
ATOM      3  C   UNL d   1      24.299 -18.531   0.206  0.00  0.00     0.019 A 
ATOM      4  C   UNL d   1      23.560 -17.701  -0.649  0.00  0.00     0.032 A 
ATOM      5  C   UNL d   1      24.233 -16.646  -1.272  0.00  0.00     0.019 A 
ATOM      6  C   UNL d   1      25.588 -16.391  -0.998  0.00  0.00     0.030 A 
ENDROOT
BRANCH   1   7
ATOM      7  N   UNL d   1      27.635 -16.933   0.203  0.00  0.00    -0.381 N 
ATOM      8  H   UNL d   1      27.894 -16.980   1.194  0.00  0.00     0.160 HD
BRANCH   7   9
ATOM      9  C   UNL d   1      28.773 -17.016  -0.726  0.00  0.00     0.223 C 
BRANCH   9  10
ATOM     10  C   UNL d   1      28.590 -15.955  -1.831  0.00  0.00     0.239 C 
ATOM     11  N   UNL d   1      28.892 -16.338  -3.145  0.00  0.00    -0.326 N 
ATOM     12  H   UNL d   1      29.215 -17.285  -3.316  0.00  0.00     0.169 HD
ATOM     13  O   UNL d   1      28.200 -14.836  -1.488  0.00  0.00    -0.271 OA
BRANCH  11  14
ATOM     14  C   UNL d   1      28.772 -15.479  -4.287  0.00  0.00     0.036 A 
ATOM     15  C   UNL d   1      29.557 -15.667  -5.427  0.00  0.00     0.030 A 
ATOM     16  C   UNL d   1      29.459 -14.851  -6.552  0.00  0.00     0.011 A 
ATOM     17  C   UNL d   1      28.559 -13.792  -6.587  0.00  0.00    -0.040 A 
ATOM     18  C   UNL d   1      28.493 -12.951  -7.830  0.00  0.00     0.050 C 
ATOM     19  C   UNL d   1      27.763 -13.576  -5.450  0.00  0.00     0.042 A 
ATOM     20  C   UNL d   1      27.863 -14.411  -4.309  0.00  0.00     0.053 A 
ATOM     21 CL   UNL d   1      26.634 -12.264  -5.417  0.00  0.00    -0.084 Cl
ENDBRANCH  11  14
ENDBRANCH   9  10
ENDBRANCH   7   9
ENDBRANCH   1   7
BRANCH   4  22
ATOM     22  C   UNL d   1      22.083 -17.947  -0.813  0.00  0.00     0.251 C 
ATOM     23  O   UNL d   1      21.308 -16.992  -0.897  0.00  0.00    -0.268 OA
ATOM     24  N   UNL d   1      21.641 -19.252  -0.895  0.00  0.00    -0.351 N 
ATOM     25  H   UNL d   1      22.291 -20.020  -0.885  0.00  0.00     0.163 HD
BRANCH  24  26
ATOM     26  C   UNL d   1      20.235 -19.573  -1.105  0.00  0.00     0.187 C 
BRANCH  26  27
ATOM     27  C   UNL d   1      19.624 -20.052   0.169  0.00  0.00     0.070 A 
ATOM     28  C   UNL d   1      19.871 -19.761   1.496  0.00  0.00     0.036 A 
ATOM     29  C   UNL d   1      18.902 -20.450   2.258  0.00  0.00     0.027 A 
ATOM     30  C   UNL d   1      18.122 -21.133   1.355  0.00  0.00     0.142 A 
ATOM     31  O   UNL d   1      18.554 -20.904   0.085  0.00  0.00    -0.325 OA
ENDBRANCH  26  27
ENDBRANCH  24  26
ENDBRANCH   4  22
TORSDOF 7
ENDMDL
MODEL 5
REMARK VINA RESULT:    -8.769      4.766      7.262
REMARK INTER + INTRA:         -12.423
REMARK INTER:                 -10.857
REMARK INTRA:                  -1.566
REMARK CONF_INDEPENDENT:        2.088
REMARK UNBOUND:                -1.566
REMARK  7 active torsions:
REMARK  status: ('A' for Active; 'I' for Inactive)
REMARK    1  A    between atoms: C_5  and  N_6 
REMARK       I    between atoms: N_6  and  C_7 
REMARK    2  A    between atoms: C_7  and  C_9 
REMARK    3  A    between atoms: C_9  and  N_10 
REMARK    4  A    between atoms: N_10  and  C_11 
REMARK    5  A    between atoms: C_14  and  C_15 
REMARK       I    between atoms: C_15  and  N_17 
REMARK    6  A    between atoms: N_17  and  C_18 
REMARK    7  A    between atoms: C_18  and  C_19 
ROOT
ATOM      1  C   UNL d   1      26.625 -16.654   0.136  0.00  0.00     0.028 A 
ATOM      2  C   UNL d   1      25.631 -15.916  -0.519  0.00  0.00     0.030 A 
ATOM      3  C   UNL d   1      24.398 -16.498  -0.870  0.00  0.00     0.019 A 
ATOM      4  C   UNL d   1      24.147 -17.855  -0.624  0.00  0.00     0.032 A 
ATOM      5  C   UNL d   1      25.129 -18.584   0.055  0.00  0.00     0.019 A 
ATOM      6  C   UNL d   1      26.349 -17.989   0.417  0.00  0.00     0.030 A 
ENDROOT
BRANCH   1   7
ATOM      7  N   UNL d   1      27.827 -16.055   0.443  0.00  0.00    -0.381 N 
ATOM      8  H   UNL d   1      28.319 -16.391   1.276  0.00  0.00     0.160 HD
BRANCH   7   9
ATOM      9  C   UNL d   1      28.671 -15.295  -0.495  0.00  0.00     0.223 C 
BRANCH   9  10
ATOM     10  C   UNL d   1      29.081 -16.223  -1.657  0.00  0.00     0.239 C 
ATOM     11  N   UNL d   1      29.467 -15.615  -2.858  0.00  0.00    -0.326 N 
ATOM     12  H   UNL d   1      29.463 -14.602  -2.916  0.00  0.00     0.169 HD
ATOM     13  O   UNL d   1      29.032 -17.440  -1.459  0.00  0.00    -0.271 OA
BRANCH  11  14
ATOM     14  C   UNL d   1      29.881 -16.328  -4.032  0.00  0.00     0.036 A 
ATOM     15  C   UNL d   1      29.956 -15.702  -5.278  0.00  0.00     0.030 A 
ATOM     16  C   UNL d   1      30.358 -16.369  -6.433  0.00  0.00     0.011 A 
ATOM     17  C   UNL d   1      30.706 -17.714  -6.393  0.00  0.00    -0.040 A 
ATOM     18  C   UNL d   1      31.139 -18.378  -7.670  0.00  0.00     0.050 C 
ATOM     19  C   UNL d   1      30.631 -18.370  -5.154  0.00  0.00     0.042 A 
ATOM     20  C   UNL d   1      30.226 -17.687  -3.980  0.00  0.00     0.053 A 
ATOM     21 CL   UNL d   1      31.031 -20.050  -5.034  0.00  0.00    -0.084 Cl
ENDBRANCH  11  14
ENDBRANCH   9  10
ENDBRANCH   7   9
ENDBRANCH   1   7
BRANCH   4  22
ATOM     22  C   UNL d   1      22.874 -18.471  -1.140  0.00  0.00     0.251 C 
ATOM     23  O   UNL d   1      22.882 -19.098  -2.202  0.00  0.00    -0.268 OA
ATOM     24  N   UNL d   1      21.727 -18.338  -0.384  0.00  0.00    -0.351 N 
ATOM     25  H   UNL d   1      21.747 -17.875   0.510  0.00  0.00     0.163 HD
BRANCH  24  26
ATOM     26  C   UNL d   1      20.466 -18.948  -0.789  0.00  0.00     0.187 C 
BRANCH  26  27
ATOM     27  C   UNL d   1      19.814 -19.599   0.385  0.00  0.00     0.070 A 
ATOM     28  C   UNL d   1      18.769 -20.495   0.499  0.00  0.00     0.036 A 
ATOM     29  C   UNL d   1      18.663 -20.834   1.867  0.00  0.00     0.027 A 
ATOM     30  C   UNL d   1      19.642 -20.117   2.514  0.00  0.00     0.142 A 
ATOM     31  O   UNL d   1      20.343 -19.360   1.626  0.00  0.00    -0.325 OA
ENDBRANCH  26  27
ENDBRANCH  24  26
ENDBRANCH   4  22
TORSDOF 7
ENDMDL
MODEL 6
REMARK VINA RESULT:    -8.337      5.948      8.632
REMARK INTER + INTRA:         -12.062
REMARK INTER:                 -10.425
REMARK INTRA:                  -1.637
REMARK CONF_INDEPENDENT:        2.088
REMARK UNBOUND:                -1.637
REMARK  7 active torsions:
REMARK  status: ('A' for Active; 'I' for Inactive)
REMARK    1  A    between atoms: C_5  and  N_6 
REMARK       I    between atoms: N_6  and  C_7 
REMARK    2  A    between atoms: C_7  and  C_9 
REMARK    3  A    between atoms: C_9  and  N_10 
REMARK    4  A    between atoms: N_10  and  C_11 
REMARK    5  A    between atoms: C_14  and  C_15 
REMARK       I    between atoms: C_15  and  N_17 
REMARK    6  A    between atoms: N_17  and  C_18 
REMARK    7  A    between atoms: C_18  and  C_19 
ROOT
ATOM      1  C   UNL d   1      26.174 -14.401  -3.836  0.00  0.00     0.028 A 
ATOM      2  C   UNL d   1      26.986 -15.424  -3.330  0.00  0.00     0.030 A 
ATOM      3  C   UNL d   1      26.514 -16.320  -2.353  0.00  0.00     0.019 A 
ATOM      4  C   UNL d   1      25.228 -16.182  -1.812  0.00  0.00     0.032 A 
ATOM      5  C   UNL d   1      24.407 -15.178  -2.337  0.00  0.00     0.019 A 
ATOM      6  C   UNL d   1      24.882 -14.300  -3.326  0.00  0.00     0.030 A 
ENDROOT
BRANCH   1   7
ATOM      7  N   UNL d   1      26.681 -13.530  -4.776  0.00  0.00    -0.381 N 
ATOM      8  H   UNL d   1      26.122 -12.700  -4.993  0.00  0.00     0.160 HD
BRANCH   7   9
ATOM      9  C   UNL d   1      28.091 -13.438  -5.187  0.00  0.00     0.223 C 
BRANCH   9  10
ATOM     10  C   UNL d   1      28.501 -14.767  -5.854  0.00  0.00     0.239 C 
ATOM     11  N   UNL d   1      29.671 -15.384  -5.391  0.00  0.00    -0.326 N 
ATOM     12  H   UNL d   1      30.196 -14.938  -4.645  0.00  0.00     0.169 HD
ATOM     13  O   UNL d   1      27.781 -15.198  -6.759  0.00  0.00    -0.271 OA
BRANCH  11  14
ATOM     14  C   UNL d   1      30.190 -16.621  -5.896  0.00  0.00     0.036 A 
ATOM     15  C   UNL d   1      30.665 -16.734  -7.205  0.00  0.00     0.030 A 
ATOM     16  C   UNL d   1      31.178 -17.922  -7.720  0.00  0.00     0.011 A 
ATOM     17  C   UNL d   1      31.237 -19.070  -6.938  0.00  0.00    -0.040 A 
ATOM     18  C   UNL d   1      31.807 -20.320  -7.547  0.00  0.00     0.050 C 
ATOM     19  C   UNL d   1      30.758 -18.986  -5.622  0.00  0.00     0.042 A 
ATOM     20  C   UNL d   1      30.241 -17.775  -5.099  0.00  0.00     0.053 A 
ATOM     21 CL   UNL d   1      30.783 -20.382  -4.598  0.00  0.00    -0.084 Cl
ENDBRANCH  11  14
ENDBRANCH   9  10
ENDBRANCH   7   9
ENDBRANCH   1   7
BRANCH   4  22
ATOM     22  C   UNL d   1      24.813 -17.072  -0.671  0.00  0.00     0.251 C 
ATOM     23  O   UNL d   1      25.534 -17.170   0.325  0.00  0.00    -0.268 OA
ATOM     24  N   UNL d   1      23.607 -17.738  -0.763  0.00  0.00    -0.351 N 
ATOM     25  H   UNL d   1      23.000 -17.602  -1.555  0.00  0.00     0.163 HD
BRANCH  24  26
ATOM     26  C   UNL d   1      23.109 -18.577   0.319  0.00  0.00     0.187 C 
BRANCH  26  27
ATOM     27  C   UNL d   1      21.707 -19.002   0.034  0.00  0.00     0.070 A 
ATOM     28  C   UNL d   1      20.656 -19.373   0.849  0.00  0.00     0.036 A 
ATOM     29  C   UNL d   1      19.536 -19.574   0.011  0.00  0.00     0.027 A 
ATOM     30  C   UNL d   1      19.968 -19.326  -1.270  0.00  0.00     0.142 A 
ATOM     31  O   UNL d   1      21.286 -18.983  -1.269  0.00  0.00    -0.325 OA
ENDBRANCH  26  27
ENDBRANCH  24  26
ENDBRANCH   4  22
TORSDOF 7
ENDMDL
MODEL 7
REMARK VINA RESULT:    -8.305      5.877      8.486
REMARK INTER + INTRA:         -12.052
REMARK INTER:                 -10.393
REMARK INTRA:                  -1.658
REMARK CONF_INDEPENDENT:        2.088
REMARK UNBOUND:                -1.658
REMARK  7 active torsions:
REMARK  status: ('A' for Active; 'I' for Inactive)
REMARK    1  A    between atoms: C_5  and  N_6 
REMARK       I    between atoms: N_6  and  C_7 
REMARK    2  A    between atoms: C_7  and  C_9 
REMARK    3  A    between atoms: C_9  and  N_10 
REMARK    4  A    between atoms: N_10  and  C_11 
REMARK    5  A    between atoms: C_14  and  C_15 
REMARK       I    between atoms: C_15  and  N_17 
REMARK    6  A    between atoms: N_17  and  C_18 
REMARK    7  A    between atoms: C_18  and  C_19 
ROOT
ATOM      1  C   UNL d   1      26.463 -13.917  -3.544  0.00  0.00     0.028 A 
ATOM      2  C   UNL d   1      25.269 -14.641  -3.651  0.00  0.00     0.030 A 
ATOM      3  C   UNL d   1      24.870 -15.551  -2.654  0.00  0.00     0.019 A 
ATOM      4  C   UNL d   1      25.688 -15.804  -1.544  0.00  0.00     0.032 A 
ATOM      5  C   UNL d   1      26.866 -15.062  -1.422  0.00  0.00     0.019 A 
ATOM      6  C   UNL d   1      27.246 -14.142  -2.414  0.00  0.00     0.030 A 
ENDROOT
BRANCH   1   7
ATOM      7  N   UNL d   1      26.829 -13.053  -4.552  0.00  0.00    -0.381 N 
ATOM      8  H   UNL d   1      26.542 -12.074  -4.456  0.00  0.00     0.160 HD
BRANCH   7   9
ATOM      9  C   UNL d   1      27.916 -13.275  -5.519  0.00  0.00     0.223 C 
BRANCH   9  10
ATOM     10  C   UNL d   1      28.201 -14.788  -5.608  0.00  0.00     0.239 C 
ATOM     11  N   UNL d   1      29.537 -15.196  -5.520  0.00  0.00    -0.326 N 
ATOM     12  H   UNL d   1      30.257 -14.490  -5.404  0.00  0.00     0.169 HD
ATOM     13  O   UNL d   1      27.235 -15.542  -5.761  0.00  0.00    -0.271 OA
BRANCH  11  14
ATOM     14  C   UNL d   1      29.974 -16.561  -5.579  0.00  0.00     0.036 A 
ATOM     15  C   UNL d   1      29.991 -17.372  -4.442  0.00  0.00     0.030 A 
ATOM     16  C   UNL d   1      30.407 -18.702  -4.472  0.00  0.00     0.011 A 
ATOM     17  C   UNL d   1      30.833 -19.288  -5.657  0.00  0.00    -0.040 A 
ATOM     18  C   UNL d   1      31.263 -20.728  -5.628  0.00  0.00     0.050 C 
ATOM     19  C   UNL d   1      30.834 -18.492  -6.814  0.00  0.00     0.042 A 
ATOM     20  C   UNL d   1      30.407 -17.141  -6.781  0.00  0.00     0.053 A 
ATOM     21 CL   UNL d   1      31.371 -19.151  -8.322  0.00  0.00    -0.084 Cl
ENDBRANCH  11  14
ENDBRANCH   9  10
ENDBRANCH   7   9
ENDBRANCH   1   7
BRANCH   4  22
ATOM     22  C   UNL d   1      25.292 -16.886  -0.574  0.00  0.00     0.251 C 
ATOM     23  O   UNL d   1      26.022 -17.147   0.386  0.00  0.00    -0.268 OA
ATOM     24  N   UNL d   1      24.094 -17.542  -0.775  0.00  0.00    -0.351 N 
ATOM     25  H   UNL d   1      23.480 -17.278  -1.527  0.00  0.00     0.163 HD
BRANCH  24  26
ATOM     26  C   UNL d   1      23.616 -18.564   0.147  0.00  0.00     0.187 C 
BRANCH  26  27
ATOM     27  C   UNL d   1      22.233 -18.984  -0.228  0.00  0.00     0.070 A 
ATOM     28  C   UNL d   1      21.122 -19.323   0.518  0.00  0.00     0.036 A 
ATOM     29  C   UNL d   1      20.063 -19.536  -0.393  0.00  0.00     0.027 A 
ATOM     30  C   UNL d   1      20.589 -19.325  -1.645  0.00  0.00     0.142 A 
ATOM     31  O   UNL d   1      21.907 -18.995  -1.558  0.00  0.00    -0.325 OA
ENDBRANCH  26  27
ENDBRANCH  24  26
ENDBRANCH   4  22
TORSDOF 7
ENDMDL
MODEL 8
REMARK VINA RESULT:    -8.158      1.583      2.398
REMARK INTER + INTRA:         -11.381
REMARK INTER:                 -10.247
REMARK INTRA:                  -1.135
REMARK CONF_INDEPENDENT:        2.088
REMARK UNBOUND:                -1.135
REMARK  7 active torsions:
REMARK  status: ('A' for Active; 'I' for Inactive)
REMARK    1  A    between atoms: C_5  and  N_6 
REMARK       I    between atoms: N_6  and  C_7 
REMARK    2  A    between atoms: C_7  and  C_9 
REMARK    3  A    between atoms: C_9  and  N_10 
REMARK    4  A    between atoms: N_10  and  C_11 
REMARK    5  A    between atoms: C_14  and  C_15 
REMARK       I    between atoms: C_15  and  N_17 
REMARK    6  A    between atoms: N_17  and  C_18 
REMARK    7  A    between atoms: C_18  and  C_19 
ROOT
ATOM      1  C   UNL d   1      27.442 -15.420   1.135  0.00  0.00     0.028 A 
ATOM      2  C   UNL d   1      27.405 -16.815   1.022  0.00  0.00     0.030 A 
ATOM      3  C   UNL d   1      26.542 -17.455   0.112  0.00  0.00     0.019 A 
ATOM      4  C   UNL d   1      25.649 -16.713  -0.675  0.00  0.00     0.032 A 
ATOM      5  C   UNL d   1      25.705 -15.319  -0.582  0.00  0.00     0.019 A 
ATOM      6  C   UNL d   1      26.583 -14.690   0.317  0.00  0.00     0.030 A 
ENDROOT
BRANCH   1   7
ATOM      7  N   UNL d   1      28.284 -14.833   2.053  0.00  0.00    -0.381 N 
ATOM      8  H   UNL d   1      29.236 -15.205   2.121  0.00  0.00     0.160 HD
BRANCH   7   9
ATOM      9  C   UNL d   1      28.112 -13.494   2.641  0.00  0.00     0.223 C 
BRANCH   9  10
ATOM     10  C   UNL d   1      28.564 -13.537   4.115  0.00  0.00     0.239 C 
ATOM     11  N   UNL d   1      28.130 -12.501   4.951  0.00  0.00    -0.326 N 
ATOM     12  H   UNL d   1      27.543 -11.771   4.560  0.00  0.00     0.169 HD
ATOM     13  O   UNL d   1      29.288 -14.475   4.462  0.00  0.00    -0.271 OA
BRANCH  11  14
ATOM     14  C   UNL d   1      28.454 -12.392   6.344  0.00  0.00     0.036 A 
ATOM     15  C   UNL d   1      28.704 -11.154   6.941  0.00  0.00     0.030 A 
ATOM     16  C   UNL d   1      29.017 -11.019   8.292  0.00  0.00     0.011 A 
ATOM     17  C   UNL d   1      29.098 -12.134   9.118  0.00  0.00    -0.040 A 
ATOM     18  C   UNL d   1      29.432 -11.925  10.568  0.00  0.00     0.050 C 
ATOM     19  C   UNL d   1      28.860 -13.391   8.541  0.00  0.00     0.042 A 
ATOM     20  C   UNL d   1      28.537 -13.524   7.168  0.00  0.00     0.053 A 
ATOM     21 CL   UNL d   1      28.962 -14.824   9.507  0.00  0.00    -0.084 Cl
ENDBRANCH  11  14
ENDBRANCH   9  10
ENDBRANCH   7   9
ENDBRANCH   1   7
BRANCH   4  22
ATOM     22  C   UNL d   1      24.648 -17.442  -1.531  0.00  0.00     0.251 C 
ATOM     23  O   UNL d   1      24.742 -17.397  -2.760  0.00  0.00    -0.268 OA
ATOM     24  N   UNL d   1      23.657 -18.172  -0.905  0.00  0.00    -0.351 N 
ATOM     25  H   UNL d   1      23.628 -18.250   0.098  0.00  0.00     0.163 HD
BRANCH  24  26
ATOM     26  C   UNL d   1      22.681 -18.947  -1.661  0.00  0.00     0.187 C 
BRANCH  26  27
ATOM     27  C   UNL d   1      21.509 -19.275  -0.798  0.00  0.00     0.070 A 
ATOM     28  C   UNL d   1      21.291 -19.180   0.563  0.00  0.00     0.036 A 
ATOM     29  C   UNL d   1      19.945 -19.546   0.791  0.00  0.00     0.027 A 
ATOM     30  C   UNL d   1      19.419 -19.855  -0.441  0.00  0.00     0.142 A 
ATOM     31  O   UNL d   1      20.361 -19.700  -1.412  0.00  0.00    -0.325 OA
ENDBRANCH  26  27
ENDBRANCH  24  26
ENDBRANCH   4  22
TORSDOF 7
ENDMDL
MODEL 9
REMARK VINA RESULT:    -8.039      4.232      6.470
REMARK INTER + INTRA:         -11.596
REMARK INTER:                 -10.127
REMARK INTRA:                  -1.469
REMARK CONF_INDEPENDENT:        2.088
REMARK UNBOUND:                -1.469
REMARK  7 active torsions:
REMARK  status: ('A' for Active; 'I' for Inactive)
REMARK    1  A    between atoms: C_5  and  N_6 
REMARK       I    between atoms: N_6  and  C_7 
REMARK    2  A    between atoms: C_7  and  C_9 
REMARK    3  A    between atoms: C_9  and  N_10 
REMARK    4  A    between atoms: N_10  and  C_11 
REMARK    5  A    between atoms: C_14  and  C_15 
REMARK       I    between atoms: C_15  and  N_17 
REMARK    6  A    between atoms: N_17  and  C_18 
REMARK    7  A    between atoms: C_18  and  C_19 
ROOT
ATOM      1  C   UNL d   1      26.498 -16.566   0.225  0.00  0.00     0.028 A 
ATOM      2  C   UNL d   1      26.285 -17.939   0.402  0.00  0.00     0.030 A 
ATOM      3  C   UNL d   1      25.159 -18.583  -0.144  0.00  0.00     0.019 A 
ATOM      4  C   UNL d   1      24.182 -17.856  -0.839  0.00  0.00     0.032 A 
ATOM      5  C   UNL d   1      24.408 -16.491  -1.039  0.00  0.00     0.019 A 
ATOM      6  C   UNL d   1      25.545 -15.861  -0.505  0.00  0.00     0.030 A 
ENDROOT
BRANCH   1   7
ATOM      7  N   UNL d   1      27.600 -15.969   0.795  0.00  0.00    -0.381 N 
ATOM      8  H   UNL d   1      28.364 -16.583   1.095  0.00  0.00     0.160 HD
BRANCH   7   9
ATOM      9  C   UNL d   1      27.982 -14.554   0.647  0.00  0.00     0.223 C 
BRANCH   9  10
ATOM     10  C   UNL d   1      27.856 -14.159  -0.838  0.00  0.00     0.239 C 
ATOM     11  N   UNL d   1      27.060 -13.047  -1.141  0.00  0.00    -0.326 N 
ATOM     12  H   UNL d   1      26.604 -12.551  -0.381  0.00  0.00     0.169 HD
ATOM     13  O   UNL d   1      28.453 -14.853  -1.666  0.00  0.00    -0.271 OA
BRANCH  11  14
ATOM     14  C   UNL d   1      26.840 -12.543  -2.466  0.00  0.00     0.036 A 
ATOM     15  C   UNL d   1      27.176 -13.291  -3.596  0.00  0.00     0.030 A 
ATOM     16  C   UNL d   1      26.970 -12.828  -4.894  0.00  0.00     0.011 A 
ATOM     17  C   UNL d   1      26.413 -11.576  -5.123  0.00  0.00    -0.040 A 
ATOM     18  C   UNL d   1      26.208 -11.134  -6.544  0.00  0.00     0.050 C 
ATOM     19  C   UNL d   1      26.074 -10.799  -4.003  0.00  0.00     0.042 A 
ATOM     20  C   UNL d   1      26.281 -11.275  -2.684  0.00  0.00     0.053 A 
ATOM     21 CL   UNL d   1      25.394  -9.221  -4.214  0.00  0.00    -0.084 Cl
ENDBRANCH  11  14
ENDBRANCH   9  10
ENDBRANCH   7   9
ENDBRANCH   1   7
BRANCH   4  22
ATOM     22  C   UNL d   1      22.925 -18.557  -1.285  0.00  0.00     0.251 C 
ATOM     23  O   UNL d   1      22.906 -19.155  -2.363  0.00  0.00    -0.268 OA
ATOM     24  N   UNL d   1      21.828 -18.532  -0.448  0.00  0.00    -0.351 N 
ATOM     25  H   UNL d   1      21.877 -18.092   0.456  0.00  0.00     0.163 HD
BRANCH  24  26
ATOM     26  C   UNL d   1      20.593 -19.229  -0.783  0.00  0.00     0.187 C 
BRANCH  26  27
ATOM     27  C   UNL d   1      19.928 -19.717   0.461  0.00  0.00     0.070 A 
ATOM     28  C   UNL d   1      18.787 -20.463   0.684  0.00  0.00     0.036 A 
ATOM     29  C   UNL d   1      18.713 -20.700   2.075  0.00  0.00     0.027 A 
ATOM     30  C   UNL d   1      19.808 -20.076   2.626  0.00  0.00     0.142 A 
ATOM     31  O   UNL d   1      20.549 -19.471   1.657  0.00  0.00    -0.325 OA
ENDBRANCH  26  27
ENDBRANCH  24  26
ENDBRANCH   4  22
TORSDOF 7
ENDMDL
