MODEL 1
REMARK VINA RESULT:    -9.508      0.000      0.000
REMARK INTER + INTRA:         -11.096
REMARK INTER:                 -10.403
REMARK INTRA:                  -0.693
REMARK CONF_INDEPENDENT:        0.895
REMARK UNBOUND:                -0.693
REMARK  3 active torsions:
REMARK  status: ('A' for Active; 'I' for Inactive)
REMARK    1  A    between atoms: C_6  and  C_7 
REMARK    2  A    between atoms: C_7  and  C_8 
REMARK    3  A    between atoms: C_11  and  C_12 
ROOT
ATOM      1  C   UNL d   1      24.682 -16.618  -0.874  0.00  0.00    -0.054 A 
ATOM      2  C   UNL d   1      24.985 -17.916  -0.455  0.00  0.00     0.008 A 
ATOM      3  C   UNL d   1      23.955 -18.818  -0.190  0.00  0.00     0.008 A 
ATOM      4  C   UNL d   1      22.622 -18.390  -0.203  0.00  0.00    -0.054 A 
ATOM      5  C   UNL d   1      22.328 -17.085  -0.609  0.00  0.00     0.008 A 
ATOM      6  C   UNL d   1      23.342 -16.231  -1.002  0.00  0.00     0.008 A 
ENDROOT
BRANCH   1   7
ATOM      7  C   UNL d   1      25.751 -15.567  -1.057  0.00  0.00     0.088 C 
BRANCH   7   8
ATOM      8  C   UNL d   1      26.222 -15.342  -2.483  0.00  0.00     0.082 A 
ATOM      9  C   UNL d   1      25.510 -14.877  -3.541  0.00  0.00     0.261 A 
ATOM     10  N   UNL d   1      26.079 -14.852  -4.766  0.00  0.00    -0.275 N 
ATOM     11  O   UNL d   1      24.358 -14.439  -3.735  0.00  0.00    -0.267 OA
ATOM     12  C   UNL d   1      27.360 -15.147  -5.065  0.00  0.00     0.329 A 
ATOM     13  H   UNL d   1      25.426 -14.551  -5.477  0.00  0.00     0.173 HD
ATOM     14  O   UNL d   1      27.817 -15.086  -6.204  0.00  0.00    -0.246 OA
ATOM     15  N   UNL d   1      28.129 -15.517  -4.001  0.00  0.00    -0.275 N 
ATOM     16  C   UNL d   1      27.657 -15.694  -2.728  0.00  0.00     0.261 A 
ATOM     17  H   UNL d   1      29.090 -15.724  -4.187  0.00  0.00     0.173 HD
ATOM     18  O   UNL d   1      28.397 -16.115  -1.838  0.00  0.00    -0.267 OA
ENDBRANCH   7   8
ENDBRANCH   1   7
BRANCH   4  19
ATOM     19  C   UNL d   1      21.511 -19.301   0.255  0.00  0.00     0.018 C 
ATOM     20  C   UNL d   1      21.028 -18.950   1.676  0.00  0.00     0.009 C 
ATOM     21  C   UNL d   1      19.828 -19.801   2.082  0.00  0.00     0.001 C 
ATOM     22  C   UNL d   1      18.701 -19.700   1.058  0.00  0.00     0.000 C 
ATOM     23  C   UNL d   1      19.187 -20.089  -0.334  0.00  0.00     0.001 C 
ATOM     24  C   UNL d   1      20.365 -19.233  -0.762  0.00  0.00     0.009 C 
ENDBRANCH   4  19
TORSDOF 3
ENDMDL
MODEL 2
REMARK VINA RESULT:    -9.348      0.199      1.761
REMARK INTER + INTRA:         -10.936
REMARK INTER:                 -10.243
REMARK INTRA:                  -0.693
REMARK CONF_INDEPENDENT:        0.895
REMARK UNBOUND:                -0.693
REMARK  3 active torsions:
REMARK  status: ('A' for Active; 'I' for Inactive)
REMARK    1  A    between atoms: C_6  and  C_7 
REMARK    2  A    between atoms: C_7  and  C_8 
REMARK    3  A    between atoms: C_11  and  C_12 
ROOT
ATOM      1  C   UNL d   1      24.570 -16.478  -1.009  0.00  0.00    -0.054 A 
ATOM      2  C   UNL d   1      24.919 -17.713  -0.457  0.00  0.00     0.008 A 
ATOM      3  C   UNL d   1      23.929 -18.657  -0.186  0.00  0.00     0.008 A 
ATOM      4  C   UNL d   1      22.577 -18.320  -0.327  0.00  0.00    -0.054 A 
ATOM      5  C   UNL d   1      22.235 -17.076  -0.866  0.00  0.00     0.008 A 
ATOM      6  C   UNL d   1      23.222 -16.192  -1.262  0.00  0.00     0.008 A 
ENDROOT
BRANCH   1   7
ATOM      7  C   UNL d   1      25.584 -15.376  -1.210  0.00  0.00     0.088 C 
BRANCH   7   8
ATOM      8  C   UNL d   1      26.336 -15.401  -2.529  0.00  0.00     0.082 A 
ATOM      9  C   UNL d   1      27.596 -15.843  -2.771  0.00  0.00     0.261 A 
ATOM     10  N   UNL d   1      28.135 -15.679  -3.999  0.00  0.00    -0.275 N 
ATOM     11  O   UNL d   1      28.503 -16.398  -2.117  0.00  0.00    -0.267 OA
ATOM     12  C   UNL d   1      27.510 -15.201  -5.094  0.00  0.00     0.329 A 
ATOM     13  H   UNL d   1      29.097 -15.986  -4.031  0.00  0.00     0.173 HD
ATOM     14  O   UNL d   1      28.057 -15.094  -6.189  0.00  0.00    -0.246 OA
ATOM     15  N   UNL d   1      26.207 -14.846  -4.905  0.00  0.00    -0.275 N 
ATOM     16  C   UNL d   1      25.570 -14.854  -3.693  0.00  0.00     0.261 A 
ATOM     17  H   UNL d   1      25.710 -14.506  -5.704  0.00  0.00     0.173 HD
ATOM     18  O   UNL d   1      24.416 -14.435  -3.589  0.00  0.00    -0.267 OA
ENDBRANCH   7   8
ENDBRANCH   1   7
BRANCH   4  19
ATOM     19  C   UNL d   1      21.493 -19.262   0.132  0.00  0.00     0.018 C 
ATOM     20  C   UNL d   1      21.030 -18.950   1.568  0.00  0.00     0.009 C 
ATOM     21  C   UNL d   1      19.854 -19.833   1.979  0.00  0.00     0.001 C 
ATOM     22  C   UNL d   1      18.707 -19.733   0.977  0.00  0.00     0.000 C 
ATOM     23  C   UNL d   1      19.174 -20.084  -0.431  0.00  0.00     0.001 C 
ATOM     24  C   UNL d   1      20.326 -19.196  -0.862  0.00  0.00     0.009 C 
ENDBRANCH   4  19
TORSDOF 3
ENDMDL
MODEL 3
REMARK VINA RESULT:    -8.722      1.788      2.340
REMARK INTER + INTRA:         -10.273
REMARK INTER:                  -9.617
REMARK INTRA:                  -0.656
REMARK CONF_INDEPENDENT:        0.895
REMARK UNBOUND:                -0.656
REMARK  3 active torsions:
REMARK  status: ('A' for Active; 'I' for Inactive)
REMARK    1  A    between atoms: C_6  and  C_7 
REMARK    2  A    between atoms: C_7  and  C_8 
REMARK    3  A    between atoms: C_11  and  C_12 
ROOT
ATOM      1  C   UNL d   1      25.146 -16.528  -1.089  0.00  0.00    -0.054 A 
ATOM      2  C   UNL d   1      23.845 -16.135  -1.416  0.00  0.00     0.008 A 
ATOM      3  C   UNL d   1      22.761 -16.914  -1.013  0.00  0.00     0.008 A 
ATOM      4  C   UNL d   1      22.975 -18.159  -0.408  0.00  0.00    -0.054 A 
ATOM      5  C   UNL d   1      24.280 -18.553  -0.097  0.00  0.00     0.008 A 
ATOM      6  C   UNL d   1      25.346 -17.718  -0.376  0.00  0.00     0.008 A 
ENDROOT
BRANCH   1   7
ATOM      7  C   UNL d   1      26.359 -15.790  -1.603  0.00  0.00     0.088 C 
BRANCH   7   8
ATOM      8  C   UNL d   1      26.092 -14.429  -2.223  0.00  0.00     0.082 A 
ATOM      9  C   UNL d   1      25.422 -14.143  -3.368  0.00  0.00     0.261 A 
ATOM     10  N   UNL d   1      25.385 -12.869  -3.817  0.00  0.00    -0.275 N 
ATOM     11  O   UNL d   1      24.781 -14.783  -4.226  0.00  0.00    -0.267 OA
ATOM     12  C   UNL d   1      25.865 -11.779  -3.185  0.00  0.00     0.329 A 
ATOM     13  H   UNL d   1      24.917 -12.799  -4.709  0.00  0.00     0.173 HD
ATOM     14  O   UNL d   1      25.782 -10.643  -3.645  0.00  0.00    -0.246 OA
ATOM     15  N   UNL d   1      26.452 -12.025  -1.979  0.00  0.00    -0.275 N 
ATOM     16  C   UNL d   1      26.658 -13.274  -1.457  0.00  0.00     0.261 A 
ATOM     17  H   UNL d   1      26.801 -11.233  -1.475  0.00  0.00     0.173 HD
ATOM     18  O   UNL d   1      27.275 -13.418  -0.400  0.00  0.00    -0.267 OA
ENDBRANCH   7   8
ENDBRANCH   1   7
BRANCH   4  19
ATOM     19  C   UNL d   1      21.823 -19.092  -0.130  0.00  0.00     0.018 C 
ATOM     20  C   UNL d   1      21.304 -18.950   1.314  0.00  0.00     0.009 C 
ATOM     21  C   UNL d   1      20.068 -19.813   1.549  0.00  0.00     0.001 C 
ATOM     22  C   UNL d   1      18.978 -19.516   0.522  0.00  0.00     0.000 C 
ATOM     23  C   UNL d   1      19.498 -19.700  -0.900  0.00  0.00     0.001 C 
ATOM     24  C   UNL d   1      20.713 -18.828  -1.155  0.00  0.00     0.009 C 
ENDBRANCH   4  19
TORSDOF 3
ENDMDL
MODEL 4
REMARK VINA RESULT:    -8.434      1.730      2.570
REMARK INTER + INTRA:         -10.019
REMARK INTER:                  -9.329
REMARK INTRA:                  -0.690
REMARK CONF_INDEPENDENT:        0.895
REMARK UNBOUND:                -0.690
REMARK  3 active torsions:
REMARK  status: ('A' for Active; 'I' for Inactive)
REMARK    1  A    between atoms: C_6  and  C_7 
REMARK    2  A    between atoms: C_7  and  C_8 
REMARK    3  A    between atoms: C_11  and  C_12 
ROOT
ATOM      1  C   UNL d   1      25.379 -16.666  -1.095  0.00  0.00    -0.054 A 
ATOM      2  C   UNL d   1      24.088 -16.175  -1.307  0.00  0.00     0.008 A 
ATOM      3  C   UNL d   1      22.984 -16.933  -0.919  0.00  0.00     0.008 A 
ATOM      4  C   UNL d   1      23.157 -18.242  -0.452  0.00  0.00    -0.054 A 
ATOM      5  C   UNL d   1      24.452 -18.733  -0.257  0.00  0.00     0.008 A 
ATOM      6  C   UNL d   1      25.548 -17.930  -0.514  0.00  0.00     0.008 A 
ENDROOT
BRANCH   1   7
ATOM      7  C   UNL d   1      26.604 -15.943  -1.604  0.00  0.00     0.088 C 
BRANCH   7   8
ATOM      8  C   UNL d   1      26.364 -14.557  -2.175  0.00  0.00     0.082 A 
ATOM      9  C   UNL d   1      26.620 -13.354  -1.601  0.00  0.00     0.261 A 
ATOM     10  N   UNL d   1      26.232 -12.222  -2.226  0.00  0.00    -0.275 N 
ATOM     11  O   UNL d   1      27.147 -12.949  -0.545  0.00  0.00    -0.267 OA
ATOM     12  C   UNL d   1      25.688 -12.128  -3.457  0.00  0.00     0.329 A 
ATOM     13  H   UNL d   1      26.417 -11.401  -1.667  0.00  0.00     0.173 HD
ATOM     14  O   UNL d   1      25.373 -11.059  -3.974  0.00  0.00    -0.246 OA
ATOM     15  N   UNL d   1      25.516 -13.317  -4.102  0.00  0.00    -0.275 N 
ATOM     16  C   UNL d   1      25.760 -14.543  -3.545  0.00  0.00     0.261 A 
ATOM     17  H   UNL d   1      25.133 -13.279  -5.026  0.00  0.00     0.173 HD
ATOM     18  O   UNL d   1      25.496 -15.576  -4.163  0.00  0.00    -0.267 OA
ENDBRANCH   7   8
ENDBRANCH   1   7
BRANCH   4  19
ATOM     19  C   UNL d   1      21.971 -19.138  -0.199  0.00  0.00     0.018 C 
ATOM     20  C   UNL d   1      21.400 -18.950   1.220  0.00  0.00     0.009 C 
ATOM     21  C   UNL d   1      20.132 -19.775   1.424  0.00  0.00     0.001 C 
ATOM     22  C   UNL d   1      19.092 -19.471   0.349  0.00  0.00     0.000 C 
ATOM     23  C   UNL d   1      19.661 -19.701  -1.047  0.00  0.00     0.001 C 
ATOM     24  C   UNL d   1      20.909 -18.867  -1.273  0.00  0.00     0.009 C 
ENDBRANCH   4  19
TORSDOF 3
ENDMDL
MODEL 5
REMARK VINA RESULT:    -8.342      1.647      2.480
REMARK INTER + INTRA:          -9.865
REMARK INTER:                  -9.237
REMARK INTRA:                  -0.628
REMARK CONF_INDEPENDENT:        0.895
REMARK UNBOUND:                -0.628
REMARK  3 active torsions:
REMARK  status: ('A' for Active; 'I' for Inactive)
REMARK    1  A    between atoms: C_6  and  C_7 
REMARK    2  A    between atoms: C_7  and  C_8 
REMARK    3  A    between atoms: C_11  and  C_12 
ROOT
ATOM      1  C   UNL d   1      24.436 -16.587  -1.202  0.00  0.00    -0.054 A 
ATOM      2  C   UNL d   1      24.755 -17.935  -1.016  0.00  0.00     0.008 A 
ATOM      3  C   UNL d   1      23.758 -18.842  -0.659  0.00  0.00     0.008 A 
ATOM      4  C   UNL d   1      22.471 -18.387  -0.345  0.00  0.00    -0.054 A 
ATOM      5  C   UNL d   1      22.164 -17.034  -0.519  0.00  0.00     0.008 A 
ATOM      6  C   UNL d   1      23.117 -16.158  -1.003  0.00  0.00     0.008 A 
ENDROOT
BRANCH   1   7
ATOM      7  C   UNL d   1      25.495 -15.544  -1.469  0.00  0.00     0.088 C 
BRANCH   7   8
ATOM      8  C   UNL d   1      26.925 -16.053  -1.532  0.00  0.00     0.082 A 
ATOM      9  C   UNL d   1      27.769 -16.063  -2.595  0.00  0.00     0.261 A 
ATOM     10  N   UNL d   1      28.973 -16.664  -2.482  0.00  0.00    -0.275 N 
ATOM     11  O   UNL d   1      27.745 -15.654  -3.773  0.00  0.00    -0.267 OA
ATOM     12  C   UNL d   1      29.509 -17.189  -1.362  0.00  0.00     0.329 A 
ATOM     13  H   UNL d   1      29.476 -16.664  -3.359  0.00  0.00     0.173 HD
ATOM     14  O   UNL d   1      30.623 -17.708  -1.327  0.00  0.00    -0.246 OA
ATOM     15  N   UNL d   1      28.724 -17.098  -0.251  0.00  0.00    -0.275 N 
ATOM     16  C   UNL d   1      27.442 -16.618  -0.245  0.00  0.00     0.261 A 
ATOM     17  H   UNL d   1      29.102 -17.461   0.602  0.00  0.00     0.173 HD
ATOM     18  O   UNL d   1      26.766 -16.649   0.784  0.00  0.00    -0.267 OA
ENDBRANCH   7   8
ENDBRANCH   1   7
BRANCH   4  19
ATOM     19  C   UNL d   1      21.433 -19.326   0.215  0.00  0.00     0.018 C 
ATOM     20  C   UNL d   1      21.034 -18.949   1.655  0.00  0.00     0.009 C 
ATOM     21  C   UNL d   1      19.901 -19.833   2.169  0.00  0.00     0.001 C 
ATOM     22  C   UNL d   1      18.703 -19.810   1.222  0.00  0.00     0.000 C 
ATOM     23  C   UNL d   1      19.109 -20.224  -0.188  0.00  0.00     0.001 C 
ATOM     24  C   UNL d   1      20.218 -19.335  -0.721  0.00  0.00     0.009 C 
ENDBRANCH   4  19
TORSDOF 3
ENDMDL
MODEL 6
REMARK VINA RESULT:    -8.225      2.316      3.422
REMARK INTER + INTRA:          -9.783
REMARK INTER:                  -9.120
REMARK INTRA:                  -0.663
REMARK CONF_INDEPENDENT:        0.895
REMARK UNBOUND:                -0.663
REMARK  3 active torsions:
REMARK  status: ('A' for Active; 'I' for Inactive)
REMARK    1  A    between atoms: C_6  and  C_7 
REMARK    2  A    between atoms: C_7  and  C_8 
REMARK    3  A    between atoms: C_11  and  C_12 
ROOT
ATOM      1  C   UNL d   1      24.441 -16.812  -1.148  0.00  0.00    -0.054 A 
ATOM      2  C   UNL d   1      23.139 -16.319  -1.027  0.00  0.00     0.008 A 
ATOM      3  C   UNL d   1      22.128 -17.143  -0.534  0.00  0.00     0.008 A 
ATOM      4  C   UNL d   1      22.378 -18.501  -0.297  0.00  0.00    -0.054 A 
ATOM      5  C   UNL d   1      23.681 -18.990  -0.435  0.00  0.00     0.008 A 
ATOM      6  C   UNL d   1      24.711 -18.140  -0.794  0.00  0.00     0.008 A 
ENDROOT
BRANCH   1   7
ATOM      7  C   UNL d   1      25.545 -16.004  -1.788  0.00  0.00     0.088 C 
BRANCH   7   8
ATOM      8  C   UNL d   1      26.690 -15.607  -0.873  0.00  0.00     0.082 A 
ATOM      9  C   UNL d   1      27.462 -16.408  -0.095  0.00  0.00     0.261 A 
ATOM     10  N   UNL d   1      28.366 -15.852   0.741  0.00  0.00    -0.275 N 
ATOM     11  O   UNL d   1      27.578 -17.633   0.108  0.00  0.00    -0.267 OA
ATOM     12  C   UNL d   1      28.685 -14.545   0.828  0.00  0.00     0.329 A 
ATOM     13  H   UNL d   1      28.826 -16.547   1.313  0.00  0.00     0.173 HD
ATOM     14  O   UNL d   1      29.533 -14.108   1.603  0.00  0.00    -0.246 OA
ATOM     15  N   UNL d   1      27.998 -13.727  -0.020  0.00  0.00    -0.275 N 
ATOM     16  C   UNL d   1      26.979 -14.138  -0.836  0.00  0.00     0.261 A 
ATOM     17  H   UNL d   1      28.226 -12.753   0.007  0.00  0.00     0.173 HD
ATOM     18  O   UNL d   1      26.347 -13.322  -1.510  0.00  0.00    -0.267 OA
ENDBRANCH   7   8
ENDBRANCH   1   7
BRANCH   4  19
ATOM     19  C   UNL d   1      21.257 -19.444   0.062  0.00  0.00     0.018 C 
ATOM     20  C   UNL d   1      20.859 -19.325   1.547  0.00  0.00     0.009 C 
ATOM     21  C   UNL d   1      19.650 -20.197   1.871  0.00  0.00     0.001 C 
ATOM     22  C   UNL d   1      18.478 -19.892   0.941  0.00  0.00     0.000 C 
ATOM     23  C   UNL d   1      18.879 -20.053  -0.521  0.00  0.00     0.001 C 
ATOM     24  C   UNL d   1      20.065 -19.171  -0.864  0.00  0.00     0.009 C 
ENDBRANCH   4  19
TORSDOF 3
ENDMDL
MODEL 7
REMARK VINA RESULT:    -7.961      4.691      8.245
REMARK INTER + INTRA:          -9.547
REMARK INTER:                  -8.856
REMARK INTRA:                  -0.691
REMARK CONF_INDEPENDENT:        0.895
REMARK UNBOUND:                -0.691
REMARK  3 active torsions:
REMARK  status: ('A' for Active; 'I' for Inactive)
REMARK    1  A    between atoms: C_6  and  C_7 
REMARK    2  A    between atoms: C_7  and  C_8 
REMARK    3  A    between atoms: C_11  and  C_12 
ROOT
ATOM      1  C   UNL d   1      22.680 -17.998   0.165  0.00  0.00    -0.054 A 
ATOM      2  C   UNL d   1      22.418 -16.763  -0.434  0.00  0.00     0.008 A 
ATOM      3  C   UNL d   1      23.335 -16.217  -1.331  0.00  0.00     0.008 A 
ATOM      4  C   UNL d   1      24.579 -16.829  -1.527  0.00  0.00    -0.054 A 
ATOM      5  C   UNL d   1      24.841 -18.058  -0.912  0.00  0.00     0.008 A 
ATOM      6  C   UNL d   1      23.877 -18.665  -0.128  0.00  0.00     0.008 A 
ENDROOT
BRANCH   1   7
ATOM      7  C   UNL d   1      21.783 -18.576   1.234  0.00  0.00     0.088 C 
BRANCH   7   8
ATOM      8  C   UNL d   1      20.585 -19.365   0.737  0.00  0.00     0.082 A 
ATOM      9  C   UNL d   1      20.118 -19.476  -0.533  0.00  0.00     0.261 A 
ATOM     10  N   UNL d   1      18.963 -20.139  -0.762  0.00  0.00    -0.275 N 
ATOM     11  O   UNL d   1      20.472 -19.088  -1.665  0.00  0.00    -0.267 OA
ATOM     12  C   UNL d   1      18.236 -20.825   0.142  0.00  0.00     0.329 A 
ATOM     13  H   UNL d   1      18.690 -20.092  -1.734  0.00  0.00     0.173 HD
ATOM     14  O   UNL d   1      17.200 -21.422  -0.140  0.00  0.00    -0.246 OA
ATOM     15  N   UNL d   1      18.739 -20.818   1.410  0.00  0.00    -0.275 N 
ATOM     16  C   UNL d   1      19.834 -20.097   1.805  0.00  0.00     0.261 A 
ATOM     17  H   UNL d   1      18.232 -21.335   2.101  0.00  0.00     0.173 HD
ATOM     18  O   UNL d   1      20.175 -20.074   2.989  0.00  0.00    -0.267 OA
ENDBRANCH   7   8
ENDBRANCH   1   7
BRANCH   4  19
ATOM     19  C   UNL d   1      25.650 -16.161  -2.352  0.00  0.00     0.018 C 
ATOM     20  C   UNL d   1      25.214 -14.764  -2.837  0.00  0.00     0.009 C 
ATOM     21  C   UNL d   1      26.347 -14.052  -3.571  0.00  0.00     0.001 C 
ATOM     22  C   UNL d   1      27.611 -13.989  -2.718  0.00  0.00     0.000 C 
ATOM     23  C   UNL d   1      28.049 -15.383  -2.281  0.00  0.00     0.001 C 
ATOM     24  C   UNL d   1      26.941 -16.093  -1.527  0.00  0.00     0.009 C 
ENDBRANCH   4  19
TORSDOF 3
ENDMDL
MODEL 8
REMARK VINA RESULT:    -7.833      1.844      3.074
REMARK INTER + INTRA:          -9.426
REMARK INTER:                  -8.728
REMARK INTRA:                  -0.698
REMARK CONF_INDEPENDENT:        0.895
REMARK UNBOUND:                -0.698
REMARK  3 active torsions:
REMARK  status: ('A' for Active; 'I' for Inactive)
REMARK    1  A    between atoms: C_6  and  C_7 
REMARK    2  A    between atoms: C_7  and  C_8 
REMARK    3  A    between atoms: C_11  and  C_12 
ROOT
ATOM      1  C   UNL d   1      24.234 -17.478  -1.151  0.00  0.00    -0.054 A 
ATOM      2  C   UNL d   1      23.103 -16.661  -1.233  0.00  0.00     0.008 A 
ATOM      3  C   UNL d   1      21.891 -17.097  -0.699  0.00  0.00     0.008 A 
ATOM      4  C   UNL d   1      21.765 -18.404  -0.210  0.00  0.00    -0.054 A 
ATOM      5  C   UNL d   1      22.898 -19.220  -0.145  0.00  0.00     0.008 A 
ATOM      6  C   UNL d   1      24.130 -18.740  -0.550  0.00  0.00     0.008 A 
ENDROOT
BRANCH   1   7
ATOM      7  C   UNL d   1      25.538 -17.108  -1.818  0.00  0.00     0.088 C 
BRANCH   7   8
ATOM      8  C   UNL d   1      26.034 -15.696  -1.564  0.00  0.00     0.082 A 
ATOM      9  C   UNL d   1      26.660 -15.208  -0.463  0.00  0.00     0.261 A 
ATOM     10  N   UNL d   1      26.926 -13.887  -0.380  0.00  0.00    -0.275 N 
ATOM     11  O   UNL d   1      27.086 -15.670   0.614  0.00  0.00    -0.267 OA
ATOM     12  C   UNL d   1      26.733 -12.964  -1.344  0.00  0.00     0.329 A 
ATOM     13  H   UNL d   1      27.329 -13.641   0.514  0.00  0.00     0.173 HD
ATOM     14  O   UNL d   1      27.016 -11.776  -1.207  0.00  0.00    -0.246 OA
ATOM     15  N   UNL d   1      26.202 -13.446  -2.504  0.00  0.00    -0.275 N 
ATOM     16  C   UNL d   1      25.781 -14.736  -2.686  0.00  0.00     0.261 A 
ATOM     17  H   UNL d   1      26.065 -12.789  -3.246  0.00  0.00     0.173 HD
ATOM     18  O   UNL d   1      25.230 -15.073  -3.735  0.00  0.00    -0.267 OA
ENDBRANCH   7   8
ENDBRANCH   1   7
BRANCH   4  19
ATOM     19  C   UNL d   1      20.422 -18.950   0.203  0.00  0.00     0.018 C 
ATOM     20  C   UNL d   1      19.773 -19.788  -0.916  0.00  0.00     0.009 C 
ATOM     21  C   UNL d   1      18.471 -20.431  -0.446  0.00  0.00     0.001 C 
ATOM     22  C   UNL d   1      18.680 -21.247   0.827  0.00  0.00     0.000 C 
ATOM     23  C   UNL d   1      19.286 -20.393   1.935  0.00  0.00     0.001 C 
ATOM     24  C   UNL d   1      20.595 -19.767   1.490  0.00  0.00     0.009 C 
ENDBRANCH   4  19
TORSDOF 3
ENDMDL
MODEL 9
REMARK VINA RESULT:    -7.532      3.851      5.946
REMARK INTER + INTRA:          -9.121
REMARK INTER:                  -8.427
REMARK INTRA:                  -0.694
REMARK CONF_INDEPENDENT:        0.895
REMARK UNBOUND:                -0.694
REMARK  3 active torsions:
REMARK  status: ('A' for Active; 'I' for Inactive)
REMARK    1  A    between atoms: C_6  and  C_7 
REMARK    2  A    between atoms: C_7  and  C_8 
REMARK    3  A    between atoms: C_11  and  C_12 
ROOT
ATOM      1  C   UNL d   1      26.342 -13.028  -3.883  0.00  0.00    -0.054 A 
ATOM      2  C   UNL d   1      25.996 -14.147  -4.646  0.00  0.00     0.008 A 
ATOM      3  C   UNL d   1      25.530 -15.300  -4.015  0.00  0.00     0.008 A 
ATOM      4  C   UNL d   1      25.542 -15.393  -2.617  0.00  0.00    -0.054 A 
ATOM      5  C   UNL d   1      25.904 -14.274  -1.861  0.00  0.00     0.008 A 
ATOM      6  C   UNL d   1      26.236 -13.087  -2.487  0.00  0.00     0.008 A 
ENDROOT
BRANCH   1   7
ATOM      7  C   UNL d   1      26.965 -11.799  -4.502  0.00  0.00     0.088 C 
BRANCH   7   8
ATOM      8  C   UNL d   1      26.065 -10.580  -4.603  0.00  0.00     0.082 A 
ATOM      9  C   UNL d   1      25.681  -9.734  -3.614  0.00  0.00     0.261 A 
ATOM     10  N   UNL d   1      24.780  -8.763  -3.882  0.00  0.00    -0.275 N 
ATOM     11  O   UNL d   1      25.928  -9.588  -2.400  0.00  0.00    -0.267 OA
ATOM     12  C   UNL d   1      24.269  -8.450  -5.090  0.00  0.00     0.329 A 
ATOM     13  H   UNL d   1      24.526  -8.247  -3.051  0.00  0.00     0.173 HD
ATOM     14  O   UNL d   1      23.463  -7.540  -5.265  0.00  0.00    -0.246 OA
ATOM     15  N   UNL d   1      24.719  -9.219  -6.122  0.00  0.00    -0.275 N 
ATOM     16  C   UNL d   1      25.542 -10.304  -5.979  0.00  0.00     0.261 A 
ATOM     17  H   UNL d   1      24.374  -8.999  -7.035  0.00  0.00     0.173 HD
ATOM     18  O   UNL d   1      25.835 -11.001  -6.952  0.00  0.00    -0.267 OA
ENDBRANCH   7   8
ENDBRANCH   1   7
BRANCH   4  19
ATOM     19  C   UNL d   1      25.214 -16.692  -1.925  0.00  0.00     0.018 C 
ATOM     20  C   UNL d   1      26.293 -17.084  -0.897  0.00  0.00     0.009 C 
ATOM     21  C   UNL d   1      25.894 -18.337  -0.121  0.00  0.00     0.001 C 
ATOM     22  C   UNL d   1      24.522 -18.175   0.529  0.00  0.00     0.000 C 
ATOM     23  C   UNL d   1      23.460 -17.826  -0.508  0.00  0.00     0.001 C 
ATOM     24  C   UNL d   1      23.832 -16.567  -1.270  0.00  0.00     0.009 C 
ENDBRANCH   4  19
TORSDOF 3
ENDMDL
