MODEL 1
REMARK VINA RESULT:   -10.075      0.000      0.000
REMARK INTER + INTRA:         -13.228
REMARK INTER:                 -12.164
REMARK INTRA:                  -1.064
REMARK CONF_INDEPENDENT:        2.088
REMARK UNBOUND:                -1.064
REMARK  7 active torsions:
REMARK  status: ('A' for Active; 'I' for Inactive)
REMARK       I    between atoms: C_2  and  N_3 
REMARK    1  A    between atoms: C_2  and  C_29 
REMARK    2  A    between atoms: N_3  and  C_4 
REMARK    3  A    between atoms: N_11  and  C_12 
REMARK    4  A    between atoms: C_12  and  C_13 
REMARK    5  A    between atoms: C_17  and  C_18 
REMARK    6  A    between atoms: C_18  and  N_19 
REMARK    7  A    between atoms: N_19  and  C_20 
ROOT
ATOM      1  C   UNL d   1      27.460 -11.972  -0.511  0.00  0.00     0.044 A 
ATOM      2  C   UNL d   1      27.401 -10.616  -0.891  0.00  0.00     0.030 A 
ATOM      3  C   UNL d   1      26.943 -10.225  -2.175  0.00  0.00     0.003 A 
ATOM      4  C   UNL d   1      26.470 -11.173  -3.068  0.00  0.00     0.018 A 
ATOM      5  C   UNL d   1      26.466 -12.479  -2.628  0.00  0.00     0.042 A 
ATOM      6  C   UNL d   1      26.974 -12.907  -1.407  0.00  0.00     0.002 A 
ATOM      7  C   UNL d   1      26.772 -14.381  -1.277  0.00  0.00     0.168 A 
ATOM      8  N   UNL d   1      26.131 -14.730  -2.531  0.00  0.00    -0.339 N 
ATOM      9  C   UNL d   1      25.884 -13.615  -3.308  0.00  0.00     0.255 A 
ATOM     10  O   UNL d   1      25.311 -13.467  -4.377  0.00  0.00    -0.267 OA
ENDROOT
BRANCH   8  11
ATOM     11  C   UNL d   1      25.836 -16.123  -2.839  0.00  0.00     0.165 C 
BRANCH  11  12
ATOM     12  C   UNL d   1      25.344 -16.916  -1.665  0.00  0.00    -0.040 A 
ATOM     13  C   UNL d   1      26.092 -17.114  -0.513  0.00  0.00     0.009 A 
ATOM     14  C   UNL d   1      25.550 -17.860   0.534  0.00  0.00     0.001 A 
ATOM     15  C   UNL d   1      24.220 -18.299   0.484  0.00  0.00     0.009 A 
ATOM     16  C   UNL d   1      23.435 -18.072  -0.654  0.00  0.00    -0.040 A 
ATOM     17  C   UNL d   1      24.043 -17.422  -1.725  0.00  0.00     0.017 A 
BRANCH  16  18
ATOM     18  C   UNL d   1      21.996 -18.530  -0.697  0.00  0.00     0.158 C 
BRANCH  18  19
ATOM     19  N   UNL d   1      21.475 -18.941   0.605  0.00  0.00    -0.386 N 
ATOM     20  H   UNL d   1      22.047 -18.805   1.425  0.00  0.00     0.160 HD
BRANCH  19  21
ATOM     21  C   UNL d   1      20.304 -19.620   0.799  0.00  0.00     0.030 A 
ATOM     22  C   UNL d   1      19.917 -20.084   2.047  0.00  0.00     0.046 A 
ATOM     23  C   UNL d   1      18.753 -20.823   2.164  0.00  0.00     0.089 A 
ATOM     24  N   UNL d   1      18.021 -21.099   1.075  0.00  0.00    -0.375 N 
ATOM     25  C   UNL d   1      18.359 -20.659  -0.146  0.00  0.00     0.089 A 
ATOM     26  H   UNL d   1      17.178 -21.665   1.180  0.00  0.00     0.164 HD
ATOM     27  C   UNL d   1      19.502 -19.897  -0.308  0.00  0.00     0.046 A 
ENDBRANCH  19  21
ENDBRANCH  18  19
ENDBRANCH  16  18
ENDBRANCH  11  12
ENDBRANCH   8  11
BRANCH   1  28
ATOM     28  N   UNL d   1      27.966 -12.363   0.754  0.00  0.00    -0.322 N 
ATOM     29  C   UNL d   1      27.102 -12.682   1.804  0.00  0.00     0.263 C 
ATOM     30  O   UNL d   1      25.879 -12.674   1.671  0.00  0.00    -0.267 OA
ATOM     31  H   UNL d   1      28.909 -12.730   0.801  0.00  0.00     0.169 HD
BRANCH  29  32
ATOM     32  C   UNL d   1      27.683 -13.170   3.042  0.00  0.00     0.074 A 
ATOM     33  C   UNL d   1      28.111 -14.472   3.245  0.00  0.00     0.027 A 
ATOM     34  C   UNL d   1      28.621 -14.687   4.555  0.00  0.00     0.033 A 
ATOM     35  C   UNL d   1      28.464 -13.564   5.323  0.00  0.00     0.075 A 
ATOM     36 CL   UNL d   1      28.888 -13.415   6.980  0.00  0.00    -0.076 Cl
ATOM     37  S   UNL d   1      27.791 -12.251   4.479  0.00  0.00    -0.072 SA
ENDBRANCH  29  32
ENDBRANCH   1  28
TORSDOF 7
ENDMDL
MODEL 2
REMARK VINA RESULT:    -9.926      4.549      9.779
REMARK INTER + INTRA:         -13.289
REMARK INTER:                 -12.014
REMARK INTRA:                  -1.274
REMARK CONF_INDEPENDENT:        2.088
REMARK UNBOUND:                -1.274
REMARK  7 active torsions:
REMARK  status: ('A' for Active; 'I' for Inactive)
REMARK       I    between atoms: C_2  and  N_3 
REMARK    1  A    between atoms: C_2  and  C_29 
REMARK    2  A    between atoms: N_3  and  C_4 
REMARK    3  A    between atoms: N_11  and  C_12 
REMARK    4  A    between atoms: C_12  and  C_13 
REMARK    5  A    between atoms: C_17  and  C_18 
REMARK    6  A    between atoms: C_18  and  N_19 
REMARK    7  A    between atoms: N_19  and  C_20 
ROOT
ATOM      1  C   UNL d   1      25.247 -17.688  -0.243  0.00  0.00     0.044 A 
ATOM      2  C   UNL d   1      26.410 -18.231   0.342  0.00  0.00     0.030 A 
ATOM      3  C   UNL d   1      27.704 -17.863  -0.105  0.00  0.00     0.003 A 
ATOM      4  C   UNL d   1      27.860 -16.898  -1.086  0.00  0.00     0.018 A 
ATOM      5  C   UNL d   1      26.702 -16.331  -1.573  0.00  0.00     0.042 A 
ATOM      6  C   UNL d   1      25.415 -16.717  -1.213  0.00  0.00     0.002 A 
ATOM      7  C   UNL d   1      24.424 -15.860  -1.929  0.00  0.00     0.168 A 
ATOM      8  N   UNL d   1      25.267 -14.988  -2.725  0.00  0.00    -0.339 N 
ATOM      9  C   UNL d   1      26.608 -15.206  -2.477  0.00  0.00     0.255 A 
ATOM     10  O   UNL d   1      27.620 -14.649  -2.875  0.00  0.00    -0.267 OA
ENDROOT
BRANCH   8  11
ATOM     11  C   UNL d   1      24.667 -14.036  -3.651  0.00  0.00     0.165 C 
BRANCH  11  12
ATOM     12  C   UNL d   1      25.608 -12.968  -4.121  0.00  0.00    -0.040 A 
ATOM     13  C   UNL d   1      26.402 -13.096  -5.253  0.00  0.00     0.009 A 
ATOM     14  C   UNL d   1      27.242 -12.046  -5.620  0.00  0.00     0.001 A 
ATOM     15  C   UNL d   1      27.199 -10.823  -4.936  0.00  0.00     0.009 A 
ATOM     16  C   UNL d   1      26.374 -10.660  -3.816  0.00  0.00    -0.040 A 
ATOM     17  C   UNL d   1      25.630 -11.765  -3.410  0.00  0.00     0.017 A 
BRANCH  16  18
ATOM     18  C   UNL d   1      26.315  -9.335  -3.094  0.00  0.00     0.158 C 
BRANCH  18  19
ATOM     19  N   UNL d   1      25.162  -8.518  -3.464  0.00  0.00    -0.386 N 
ATOM     20  H   UNL d   1      24.447  -8.340  -2.774  0.00  0.00     0.160 HD
BRANCH  19  21
ATOM     21  C   UNL d   1      24.899  -8.065  -4.727  0.00  0.00     0.030 A 
ATOM     22  C   UNL d   1      25.890  -7.551  -5.550  0.00  0.00     0.046 A 
ATOM     23  C   UNL d   1      25.547  -7.047  -6.791  0.00  0.00     0.089 A 
ATOM     24  N   UNL d   1      24.264  -7.043  -7.182  0.00  0.00    -0.375 N 
ATOM     25  C   UNL d   1      23.280  -7.541  -6.419  0.00  0.00     0.089 A 
ATOM     26  H   UNL d   1      24.029  -6.646  -8.093  0.00  0.00     0.164 HD
ATOM     27  C   UNL d   1      23.579  -8.076  -5.179  0.00  0.00     0.046 A 
ENDBRANCH  19  21
ENDBRANCH  18  19
ENDBRANCH  16  18
ENDBRANCH  11  12
ENDBRANCH   8  11
BRANCH   1  28
ATOM     28  N   UNL d   1      23.954 -18.095   0.170  0.00  0.00    -0.322 N 
ATOM     29  C   UNL d   1      22.972 -18.426  -0.768  0.00  0.00     0.263 C 
ATOM     30  O   UNL d   1      23.193 -18.414  -1.978  0.00  0.00    -0.267 OA
ATOM     31  H   UNL d   1      23.844 -18.464   1.107  0.00  0.00     0.169 HD
BRANCH  29  32
ATOM     32  C   UNL d   1      21.702 -18.929  -0.279  0.00  0.00     0.074 A 
ATOM     33  C   UNL d   1      21.332 -18.951   1.057  0.00  0.00     0.027 A 
ATOM     34  C   UNL d   1      20.044 -19.515   1.264  0.00  0.00     0.033 A 
ATOM     35  C   UNL d   1      19.532 -19.989   0.085  0.00  0.00     0.075 A 
ATOM     36 CL   UNL d   1      18.029 -20.799  -0.102  0.00  0.00    -0.076 Cl
ATOM     37  S   UNL d   1      20.533 -19.701  -1.257  0.00  0.00    -0.072 SA
ENDBRANCH  29  32
ENDBRANCH   1  28
TORSDOF 7
ENDMDL
MODEL 3
REMARK VINA RESULT:    -9.893      4.640     10.099
REMARK INTER + INTRA:         -13.399
REMARK INTER:                 -11.981
REMARK INTRA:                  -1.418
REMARK CONF_INDEPENDENT:        2.088
REMARK UNBOUND:                -1.418
REMARK  7 active torsions:
REMARK  status: ('A' for Active; 'I' for Inactive)
REMARK       I    between atoms: C_2  and  N_3 
REMARK    1  A    between atoms: C_2  and  C_29 
REMARK    2  A    between atoms: N_3  and  C_4 
REMARK    3  A    between atoms: N_11  and  C_12 
REMARK    4  A    between atoms: C_12  and  C_13 
REMARK    5  A    between atoms: C_17  and  C_18 
REMARK    6  A    between atoms: C_18  and  N_19 
REMARK    7  A    between atoms: N_19  and  C_20 
ROOT
ATOM      1  C   UNL d   1      24.810 -17.818  -0.084  0.00  0.00     0.044 A 
ATOM      2  C   UNL d   1      25.907 -18.379   0.602  0.00  0.00     0.030 A 
ATOM      3  C   UNL d   1      27.241 -18.006   0.298  0.00  0.00     0.003 A 
ATOM      4  C   UNL d   1      27.496 -17.019  -0.640  0.00  0.00     0.018 A 
ATOM      5  C   UNL d   1      26.394 -16.435  -1.228  0.00  0.00     0.042 A 
ATOM      6  C   UNL d   1      25.077 -16.825  -1.009  0.00  0.00     0.002 A 
ATOM      7  C   UNL d   1      24.165 -15.948  -1.802  0.00  0.00     0.168 A 
ATOM      8  N   UNL d   1      25.086 -15.061  -2.487  0.00  0.00    -0.339 N 
ATOM      9  C   UNL d   1      26.395 -15.290  -2.110  0.00  0.00     0.255 A 
ATOM     10  O   UNL d   1      27.442 -14.728  -2.391  0.00  0.00    -0.267 OA
ENDROOT
BRANCH   8  11
ATOM     11  C   UNL d   1      24.584 -14.086  -3.447  0.00  0.00     0.165 C 
BRANCH  11  12
ATOM     12  C   UNL d   1      25.659 -13.294  -4.130  0.00  0.00    -0.040 A 
ATOM     13  C   UNL d   1      25.879 -11.945  -3.890  0.00  0.00     0.009 A 
ATOM     14  C   UNL d   1      26.909 -11.290  -4.566  0.00  0.00     0.001 A 
ATOM     15  C   UNL d   1      27.796 -12.005  -5.381  0.00  0.00     0.009 A 
ATOM     16  C   UNL d   1      27.616 -13.377  -5.603  0.00  0.00    -0.040 A 
ATOM     17  C   UNL d   1      26.512 -13.977  -5.001  0.00  0.00     0.017 A 
BRANCH  16  18
ATOM     18  C   UNL d   1      28.585 -14.148  -6.467  0.00  0.00     0.158 C 
BRANCH  18  19
ATOM     19  N   UNL d   1      28.530 -13.778  -7.880  0.00  0.00    -0.386 N 
ATOM     20  H   UNL d   1      28.540 -14.508  -8.576  0.00  0.00     0.160 HD
BRANCH  19  21
ATOM     21  C   UNL d   1      28.592 -12.498  -8.355  0.00  0.00     0.030 A 
ATOM     22  C   UNL d   1      27.456 -11.782  -8.702  0.00  0.00     0.046 A 
ATOM     23  C   UNL d   1      27.592 -10.515  -9.240  0.00  0.00     0.089 A 
ATOM     24  N   UNL d   1      28.813  -9.997  -9.438  0.00  0.00    -0.375 N 
ATOM     25  C   UNL d   1      29.933 -10.655  -9.105  0.00  0.00     0.089 A 
ATOM     26  H   UNL d   1      28.892  -9.070  -9.857  0.00  0.00     0.164 HD
ATOM     27  C   UNL d   1      29.846 -11.916  -8.543  0.00  0.00     0.046 A 
ENDBRANCH  19  21
ENDBRANCH  18  19
ENDBRANCH  16  18
ENDBRANCH  11  12
ENDBRANCH   8  11
BRANCH   1  28
ATOM     28  N   UNL d   1      23.481 -18.229   0.186  0.00  0.00    -0.322 N 
ATOM     29  C   UNL d   1      22.653 -18.697  -0.838  0.00  0.00     0.263 C 
ATOM     30  O   UNL d   1      23.045 -18.806  -1.999  0.00  0.00    -0.267 OA
ATOM     31  H   UNL d   1      23.246 -18.500   1.133  0.00  0.00     0.169 HD
BRANCH  29  32
ATOM     32  C   UNL d   1      21.338 -19.195  -0.478  0.00  0.00     0.074 A 
ATOM     33  C   UNL d   1      20.282 -19.326  -1.366  0.00  0.00     0.027 A 
ATOM     34  C   UNL d   1      19.100 -19.818  -0.749  0.00  0.00     0.033 A 
ATOM     35  C   UNL d   1      19.279 -19.944   0.603  0.00  0.00     0.075 A 
ATOM     36 CL   UNL d   1      18.086 -20.447   1.731  0.00  0.00    -0.076 Cl
ATOM     37  S   UNL d   1      20.851 -19.556   1.120  0.00  0.00    -0.072 SA
ENDBRANCH  29  32
ENDBRANCH   1  28
TORSDOF 7
ENDMDL
MODEL 4
REMARK VINA RESULT:    -9.873      4.296      8.854
REMARK INTER + INTRA:         -13.949
REMARK INTER:                 -11.961
REMARK INTRA:                  -1.988
REMARK CONF_INDEPENDENT:        2.088
REMARK UNBOUND:                -1.988
REMARK  7 active torsions:
REMARK  status: ('A' for Active; 'I' for Inactive)
REMARK       I    between atoms: C_2  and  N_3 
REMARK    1  A    between atoms: C_2  and  C_29 
REMARK    2  A    between atoms: N_3  and  C_4 
REMARK    3  A    between atoms: N_11  and  C_12 
REMARK    4  A    between atoms: C_12  and  C_13 
REMARK    5  A    between atoms: C_17  and  C_18 
REMARK    6  A    between atoms: C_18  and  N_19 
REMARK    7  A    between atoms: N_19  and  C_20 
ROOT
ATOM      1  C   UNL d   1      25.077 -18.003  -0.239  0.00  0.00     0.044 A 
ATOM      2  C   UNL d   1      26.138 -18.383   0.610  0.00  0.00     0.030 A 
ATOM      3  C   UNL d   1      27.382 -17.703   0.589  0.00  0.00     0.003 A 
ATOM      4  C   UNL d   1      27.562 -16.594  -0.221  0.00  0.00     0.018 A 
ATOM      5  C   UNL d   1      26.475 -16.204  -0.973  0.00  0.00     0.042 A 
ATOM      6  C   UNL d   1      25.265 -16.887  -1.034  0.00  0.00     0.002 A 
ATOM      7  C   UNL d   1      24.327 -16.151  -1.932  0.00  0.00     0.168 A 
ATOM      8  N   UNL d   1      25.123 -15.022  -2.374  0.00  0.00    -0.339 N 
ATOM      9  C   UNL d   1      26.364 -15.001  -1.767  0.00  0.00     0.255 A 
ATOM     10  O   UNL d   1      27.287 -14.202  -1.808  0.00  0.00    -0.267 OA
ENDROOT
BRANCH   8  11
ATOM     11  C   UNL d   1      24.585 -14.084  -3.351  0.00  0.00     0.165 C 
BRANCH  11  12
ATOM     12  C   UNL d   1      25.624 -13.464  -4.237  0.00  0.00    -0.040 A 
ATOM     13  C   UNL d   1      25.881 -12.100  -4.268  0.00  0.00     0.009 A 
ATOM     14  C   UNL d   1      26.873 -11.611  -5.118  0.00  0.00     0.001 A 
ATOM     15  C   UNL d   1      27.691 -12.490  -5.841  0.00  0.00     0.009 A 
ATOM     16  C   UNL d   1      27.474 -13.873  -5.790  0.00  0.00    -0.040 A 
ATOM     17  C   UNL d   1      26.404 -14.320  -5.018  0.00  0.00     0.017 A 
BRANCH  16  18
ATOM     18  C   UNL d   1      28.369 -14.818  -6.555  0.00  0.00     0.158 C 
BRANCH  18  19
ATOM     19  N   UNL d   1      29.643 -15.085  -5.889  0.00  0.00    -0.386 N 
ATOM     20  H   UNL d   1      30.501 -14.834  -6.356  0.00  0.00     0.160 HD
BRANCH  19  21
ATOM     21  C   UNL d   1      29.781 -15.772  -4.715  0.00  0.00     0.030 A 
ATOM     22  C   UNL d   1      29.666 -15.154  -3.478  0.00  0.00     0.046 A 
ATOM     23  C   UNL d   1      29.883 -15.893  -2.329  0.00  0.00     0.089 A 
ATOM     24  N   UNL d   1      30.219 -17.188  -2.417  0.00  0.00    -0.375 N 
ATOM     25  C   UNL d   1      30.330 -17.822  -3.594  0.00  0.00     0.089 A 
ATOM     26  H   UNL d   1      30.398 -17.709  -1.558  0.00  0.00     0.164 HD
ATOM     27  C   UNL d   1      30.099 -17.129  -4.769  0.00  0.00     0.046 A 
ENDBRANCH  19  21
ENDBRANCH  18  19
ENDBRANCH  16  18
ENDBRANCH  11  12
ENDBRANCH   8  11
BRANCH   1  28
ATOM     28  N   UNL d   1      23.852 -18.715  -0.253  0.00  0.00    -0.322 N 
ATOM     29  C   UNL d   1      22.643 -18.067   0.011  0.00  0.00     0.263 C 
ATOM     30  O   UNL d   1      22.582 -16.858   0.230  0.00  0.00    -0.267 OA
ATOM     31  H   UNL d   1      23.809 -19.585  -0.771  0.00  0.00     0.169 HD
BRANCH  29  32
ATOM     32  C   UNL d   1      21.416 -18.833  -0.116  0.00  0.00     0.074 A 
ATOM     33  C   UNL d   1      20.651 -18.897  -1.271  0.00  0.00     0.027 A 
ATOM     34  C   UNL d   1      19.489 -19.701  -1.118  0.00  0.00     0.033 A 
ATOM     35  C   UNL d   1      19.368 -20.131   0.177  0.00  0.00     0.075 A 
ATOM     36 CL   UNL d   1      18.077 -21.074   0.804  0.00  0.00    -0.076 Cl
ATOM     37  S   UNL d   1      20.655 -19.650   1.177  0.00  0.00    -0.072 SA
ENDBRANCH  29  32
ENDBRANCH   1  28
TORSDOF 7
ENDMDL
MODEL 5
REMARK VINA RESULT:    -9.669      4.350      6.072
REMARK INTER + INTRA:         -13.032
REMARK INTER:                 -11.757
REMARK INTRA:                  -1.275
REMARK CONF_INDEPENDENT:        2.088
REMARK UNBOUND:                -1.275
REMARK  7 active torsions:
REMARK  status: ('A' for Active; 'I' for Inactive)
REMARK       I    between atoms: C_2  and  N_3 
REMARK    1  A    between atoms: C_2  and  C_29 
REMARK    2  A    between atoms: N_3  and  C_4 
REMARK    3  A    between atoms: N_11  and  C_12 
REMARK    4  A    between atoms: C_12  and  C_13 
REMARK    5  A    between atoms: C_17  and  C_18 
REMARK    6  A    between atoms: C_18  and  N_19 
REMARK    7  A    between atoms: N_19  and  C_20 
ROOT
ATOM      1  C   UNL d   1      26.647 -12.233  -5.259  0.00  0.00     0.044 A 
ATOM      2  C   UNL d   1      27.346 -12.578  -6.434  0.00  0.00     0.030 A 
ATOM      3  C   UNL d   1      28.241 -13.678  -6.467  0.00  0.00     0.003 A 
ATOM      4  C   UNL d   1      28.394 -14.491  -5.356  0.00  0.00     0.018 A 
ATOM      5  C   UNL d   1      27.630 -14.171  -4.255  0.00  0.00     0.042 A 
ATOM      6  C   UNL d   1      26.799 -13.059  -4.161  0.00  0.00     0.002 A 
ATOM      7  C   UNL d   1      26.122 -13.061  -2.830  0.00  0.00     0.168 A 
ATOM      8  N   UNL d   1      26.661 -14.249  -2.195  0.00  0.00    -0.339 N 
ATOM      9  C   UNL d   1      27.497 -14.948  -3.044  0.00  0.00     0.255 A 
ATOM     10  O   UNL d   1      28.085 -16.013  -2.927  0.00  0.00    -0.267 OA
ENDROOT
BRANCH   8  11
ATOM     11  C   UNL d   1      26.305 -14.569  -0.819  0.00  0.00     0.165 C 
BRANCH  11  12
ATOM     12  C   UNL d   1      25.895 -15.996  -0.612  0.00  0.00    -0.040 A 
ATOM     13  C   UNL d   1      26.770 -16.985  -0.182  0.00  0.00     0.009 A 
ATOM     14  C   UNL d   1      26.300 -18.286  -0.008  0.00  0.00     0.001 A 
ATOM     15  C   UNL d   1      24.934 -18.575  -0.139  0.00  0.00     0.009 A 
ATOM     16  C   UNL d   1      24.028 -17.581  -0.530  0.00  0.00    -0.040 A 
ATOM     17  C   UNL d   1      24.549 -16.319  -0.804  0.00  0.00     0.017 A 
BRANCH  16  18
ATOM     18  C   UNL d   1      22.555 -17.891  -0.651  0.00  0.00     0.158 C 
BRANCH  18  19
ATOM     19  N   UNL d   1      22.089 -18.894   0.304  0.00  0.00    -0.386 N 
ATOM     20  H   UNL d   1      22.761 -19.342   0.909  0.00  0.00     0.160 HD
BRANCH  19  21
ATOM     21  C   UNL d   1      20.813 -19.380   0.367  0.00  0.00     0.030 A 
ATOM     22  C   UNL d   1      20.281 -19.913   1.532  0.00  0.00     0.046 A 
ATOM     23  C   UNL d   1      19.006 -20.449   1.511  0.00  0.00     0.089 A 
ATOM     24  N   UNL d   1      18.303 -20.465   0.369  0.00  0.00    -0.375 N 
ATOM     25  C   UNL d   1      18.779 -19.949  -0.773  0.00  0.00     0.089 A 
ATOM     26  H   UNL d   1      17.372 -20.885   0.370  0.00  0.00     0.164 HD
ATOM     27  C   UNL d   1      20.041 -19.382  -0.795  0.00  0.00     0.046 A 
ENDBRANCH  19  21
ENDBRANCH  18  19
ENDBRANCH  16  18
ENDBRANCH  11  12
ENDBRANCH   8  11
BRANCH   1  28
ATOM     28  N   UNL d   1      25.793 -11.103  -5.213  0.00  0.00    -0.322 N 
ATOM     29  C   UNL d   1      26.288  -9.843  -4.869  0.00  0.00     0.263 C 
ATOM     30  O   UNL d   1      27.480  -9.651  -4.628  0.00  0.00    -0.267 OA
ATOM     31  H   UNL d   1      24.928 -11.134  -5.741  0.00  0.00     0.169 HD
BRANCH  29  32
ATOM     32  C   UNL d   1      25.382  -8.711  -4.937  0.00  0.00     0.074 A 
ATOM     33  C   UNL d   1      25.418  -7.627  -4.073  0.00  0.00     0.027 A 
ATOM     34  C   UNL d   1      24.406  -6.668  -4.349  0.00  0.00     0.033 A 
ATOM     35  C   UNL d   1      23.580  -7.114  -5.346  0.00  0.00     0.075 A 
ATOM     36 CL   UNL d   1      22.195  -6.292  -5.944  0.00  0.00    -0.076 Cl
ATOM     37  S   UNL d   1      24.046  -8.613  -5.998  0.00  0.00    -0.072 SA
ENDBRANCH  29  32
ENDBRANCH   1  28
TORSDOF 7
ENDMDL
MODEL 6
REMARK VINA RESULT:    -9.644      4.659      6.061
REMARK INTER + INTRA:         -13.060
REMARK INTER:                 -11.732
REMARK INTRA:                  -1.328
REMARK CONF_INDEPENDENT:        2.088
REMARK UNBOUND:                -1.328
REMARK  7 active torsions:
REMARK  status: ('A' for Active; 'I' for Inactive)
REMARK       I    between atoms: C_2  and  N_3 
REMARK    1  A    between atoms: C_2  and  C_29 
REMARK    2  A    between atoms: N_3  and  C_4 
REMARK    3  A    between atoms: N_11  and  C_12 
REMARK    4  A    between atoms: C_12  and  C_13 
REMARK    5  A    between atoms: C_17  and  C_18 
REMARK    6  A    between atoms: C_18  and  N_19 
REMARK    7  A    between atoms: N_19  and  C_20 
ROOT
ATOM      1  C   UNL d   1      28.371 -14.219  -5.973  0.00  0.00     0.044 A 
ATOM      2  C   UNL d   1      28.943 -13.083  -6.582  0.00  0.00     0.030 A 
ATOM      3  C   UNL d   1      28.356 -11.799  -6.455  0.00  0.00     0.003 A 
ATOM      4  C   UNL d   1      27.236 -11.616  -5.660  0.00  0.00     0.018 A 
ATOM      5  C   UNL d   1      26.756 -12.735  -5.014  0.00  0.00     0.042 A 
ATOM      6  C   UNL d   1      27.260 -14.021  -5.173  0.00  0.00     0.002 A 
ATOM      7  C   UNL d   1      26.500 -14.961  -4.297  0.00  0.00     0.168 A 
ATOM      8  N   UNL d   1      25.527 -14.093  -3.660  0.00  0.00    -0.339 N 
ATOM      9  C   UNL d   1      25.707 -12.771  -4.020  0.00  0.00     0.255 A 
ATOM     10  O   UNL d   1      25.160 -11.739  -3.663  0.00  0.00    -0.267 OA
ENDROOT
BRANCH   8  11
ATOM     11  C   UNL d   1      24.518 -14.653  -2.771  0.00  0.00     0.165 C 
BRANCH  11  12
ATOM     12  C   UNL d   1      25.032 -15.735  -1.869  0.00  0.00    -0.040 A 
ATOM     13  C   UNL d   1      26.296 -15.712  -1.296  0.00  0.00     0.009 A 
ATOM     14  C   UNL d   1      26.687 -16.759  -0.463  0.00  0.00     0.001 A 
ATOM     15  C   UNL d   1      25.777 -17.761  -0.099  0.00  0.00     0.009 A 
ATOM     16  C   UNL d   1      24.482 -17.779  -0.634  0.00  0.00    -0.040 A 
ATOM     17  C   UNL d   1      24.161 -16.780  -1.551  0.00  0.00     0.017 A 
BRANCH  16  18
ATOM     18  C   UNL d   1      23.498 -18.849  -0.226  0.00  0.00     0.158 C 
BRANCH  18  19
ATOM     19  N   UNL d   1      22.262 -18.318   0.344  0.00  0.00    -0.386 N 
ATOM     20  H   UNL d   1      22.300 -17.469   0.888  0.00  0.00     0.160 HD
BRANCH  19  21
ATOM     21  C   UNL d   1      21.051 -18.951   0.309  0.00  0.00     0.030 A 
ATOM     22  C   UNL d   1      20.521 -19.596   1.417  0.00  0.00     0.046 A 
ATOM     23  C   UNL d   1      19.322 -20.275   1.296  0.00  0.00     0.089 A 
ATOM     24  N   UNL d   1      18.692 -20.320   0.113  0.00  0.00    -0.375 N 
ATOM     25  C   UNL d   1      19.168 -19.700  -0.977  0.00  0.00     0.089 A 
ATOM     26  H   UNL d   1      17.820 -20.845   0.040  0.00  0.00     0.164 HD
ATOM     27  C   UNL d   1      20.353 -18.989  -0.898  0.00  0.00     0.046 A 
ENDBRANCH  19  21
ENDBRANCH  18  19
ENDBRANCH  16  18
ENDBRANCH  11  12
ENDBRANCH   8  11
BRANCH   1  28
ATOM     28  N   UNL d   1      28.931 -15.509  -6.144  0.00  0.00    -0.322 N 
ATOM     29  C   UNL d   1      29.657 -16.118  -5.116  0.00  0.00     0.263 C 
ATOM     30  O   UNL d   1      29.811 -15.584  -4.019  0.00  0.00    -0.267 OA
ATOM     31  H   UNL d   1      28.534 -16.114  -6.853  0.00  0.00     0.169 HD
BRANCH  29  32
ATOM     32  C   UNL d   1      30.119 -17.479  -5.320  0.00  0.00     0.074 A 
ATOM     33  C   UNL d   1      30.362 -18.383  -4.298  0.00  0.00     0.027 A 
ATOM     34  C   UNL d   1      30.827 -19.640  -4.773  0.00  0.00     0.033 A 
ATOM     35  C   UNL d   1      31.013 -19.603  -6.130  0.00  0.00     0.075 A 
ATOM     36 CL   UNL d   1      31.620 -20.888  -7.094  0.00  0.00    -0.076 Cl
ATOM     37  S   UNL d   1      30.570 -18.123  -6.838  0.00  0.00    -0.072 SA
ENDBRANCH  29  32
ENDBRANCH   1  28
TORSDOF 7
ENDMDL
MODEL 7
REMARK VINA RESULT:    -9.461      4.203      9.177
REMARK INTER + INTRA:         -13.707
REMARK INTER:                 -11.549
REMARK INTRA:                  -2.158
REMARK CONF_INDEPENDENT:        2.088
REMARK UNBOUND:                -2.158
REMARK  7 active torsions:
REMARK  status: ('A' for Active; 'I' for Inactive)
REMARK       I    between atoms: C_2  and  N_3 
REMARK    1  A    between atoms: C_2  and  C_29 
REMARK    2  A    between atoms: N_3  and  C_4 
REMARK    3  A    between atoms: N_11  and  C_12 
REMARK    4  A    between atoms: C_12  and  C_13 
REMARK    5  A    between atoms: C_17  and  C_18 
REMARK    6  A    between atoms: C_18  and  N_19 
REMARK    7  A    between atoms: N_19  and  C_20 
ROOT
ATOM      1  C   UNL d   1      25.051 -17.825  -0.140  0.00  0.00     0.044 A 
ATOM      2  C   UNL d   1      26.158 -18.397   0.520  0.00  0.00     0.030 A 
ATOM      3  C   UNL d   1      27.488 -18.042   0.180  0.00  0.00     0.003 A 
ATOM      4  C   UNL d   1      27.732 -17.060  -0.766  0.00  0.00     0.018 A 
ATOM      5  C   UNL d   1      26.623 -16.465  -1.328  0.00  0.00     0.042 A 
ATOM      6  C   UNL d   1      25.307 -16.838  -1.074  0.00  0.00     0.002 A 
ATOM      7  C   UNL d   1      24.385 -15.952  -1.846  0.00  0.00     0.168 A 
ATOM      8  N   UNL d   1      25.299 -15.077  -2.557  0.00  0.00    -0.339 N 
ATOM      9  C   UNL d   1      26.614 -15.322  -2.213  0.00  0.00     0.255 A 
ATOM     10  O   UNL d   1      27.661 -14.774  -2.522  0.00  0.00    -0.267 OA
ENDROOT
BRANCH   8  11
ATOM     11  C   UNL d   1      24.785 -14.099  -3.506  0.00  0.00     0.165 C 
BRANCH  11  12
ATOM     12  C   UNL d   1      25.800 -13.087  -3.948  0.00  0.00    -0.040 A 
ATOM     13  C   UNL d   1      26.273 -12.073  -3.126  0.00  0.00     0.009 A 
ATOM     14  C   UNL d   1      27.224 -11.181  -3.619  0.00  0.00     0.001 A 
ATOM     15  C   UNL d   1      27.796 -11.374  -4.884  0.00  0.00     0.009 A 
ATOM     16  C   UNL d   1      27.362 -12.417  -5.713  0.00  0.00    -0.040 A 
ATOM     17  C   UNL d   1      26.332 -13.222  -5.233  0.00  0.00     0.017 A 
BRANCH  16  18
ATOM     18  C   UNL d   1      27.994 -12.633  -7.067  0.00  0.00     0.158 C 
BRANCH  18  19
ATOM     19  N   UNL d   1      28.854 -13.813  -7.128  0.00  0.00    -0.386 N 
ATOM     20  H   UNL d   1      29.022 -14.250  -8.022  0.00  0.00     0.160 HD
BRANCH  19  21
ATOM     21  C   UNL d   1      29.365 -14.465  -6.041  0.00  0.00     0.030 A 
ATOM     22  C   UNL d   1      28.910 -15.715  -5.647  0.00  0.00     0.046 A 
ATOM     23  C   UNL d   1      29.421 -16.291  -4.498  0.00  0.00     0.089 A 
ATOM     24  N   UNL d   1      30.334 -15.634  -3.767  0.00  0.00    -0.375 N 
ATOM     25  C   UNL d   1      30.805 -14.430  -4.121  0.00  0.00     0.089 A 
ATOM     26  H   UNL d   1      30.682 -16.067  -2.911  0.00  0.00     0.164 HD
ATOM     27  C   UNL d   1      30.340 -13.824  -5.275  0.00  0.00     0.046 A 
ENDBRANCH  19  21
ENDBRANCH  18  19
ENDBRANCH  16  18
ENDBRANCH  11  12
ENDBRANCH   8  11
BRANCH   1  28
ATOM     28  N   UNL d   1      23.725 -18.219   0.166  0.00  0.00    -0.322 N 
ATOM     29  C   UNL d   1      22.842 -18.608  -0.845  0.00  0.00     0.263 C 
ATOM     30  O   UNL d   1      23.181 -18.661  -2.026  0.00  0.00    -0.267 OA
ATOM     31  H   UNL d   1      23.524 -18.537   1.106  0.00  0.00     0.169 HD
BRANCH  29  32
ATOM     32  C   UNL d   1      21.530 -19.094  -0.456  0.00  0.00     0.074 A 
ATOM     33  C   UNL d   1      20.488 -19.324  -1.340  0.00  0.00     0.027 A 
ATOM     34  C   UNL d   1      19.306 -19.779  -0.693  0.00  0.00     0.033 A 
ATOM     35  C   UNL d   1      19.471 -19.776   0.667  0.00  0.00     0.075 A 
ATOM     36 CL   UNL d   1      18.272 -20.195   1.823  0.00  0.00    -0.076 Cl
ATOM     37  S   UNL d   1      21.030 -19.316   1.163  0.00  0.00    -0.072 SA
ENDBRANCH  29  32
ENDBRANCH   1  28
TORSDOF 7
ENDMDL
MODEL 8
REMARK VINA RESULT:    -9.454      3.530      8.609
REMARK INTER + INTRA:         -13.756
REMARK INTER:                 -11.542
REMARK INTRA:                  -2.213
REMARK CONF_INDEPENDENT:        2.088
REMARK UNBOUND:                -2.213
REMARK  7 active torsions:
REMARK  status: ('A' for Active; 'I' for Inactive)
REMARK       I    between atoms: C_2  and  N_3 
REMARK    1  A    between atoms: C_2  and  C_29 
REMARK    2  A    between atoms: N_3  and  C_4 
REMARK    3  A    between atoms: N_11  and  C_12 
REMARK    4  A    between atoms: C_12  and  C_13 
REMARK    5  A    between atoms: C_17  and  C_18 
REMARK    6  A    between atoms: C_18  and  N_19 
REMARK    7  A    between atoms: N_19  and  C_20 
ROOT
ATOM      1  C   UNL d   1      24.858 -17.936  -0.051  0.00  0.00     0.044 A 
ATOM      2  C   UNL d   1      25.950 -18.555   0.591  0.00  0.00     0.030 A 
ATOM      3  C   UNL d   1      27.289 -18.255   0.230  0.00  0.00     0.003 A 
ATOM      4  C   UNL d   1      27.558 -17.282  -0.718  0.00  0.00     0.018 A 
ATOM      5  C   UNL d   1      26.465 -16.640  -1.261  0.00  0.00     0.042 A 
ATOM      6  C   UNL d   1      25.139 -16.958  -0.987  0.00  0.00     0.002 A 
ATOM      7  C   UNL d   1      24.243 -16.033  -1.743  0.00  0.00     0.168 A 
ATOM      8  N   UNL d   1      25.181 -15.196  -2.467  0.00  0.00    -0.339 N 
ATOM      9  C   UNL d   1      26.491 -15.495  -2.144  0.00  0.00     0.255 A 
ATOM     10  O   UNL d   1      27.554 -14.990  -2.469  0.00  0.00    -0.267 OA
ENDROOT
BRANCH   8  11
ATOM     11  C   UNL d   1      24.694 -14.195  -3.407  0.00  0.00     0.165 C 
BRANCH  11  12
ATOM     12  C   UNL d   1      25.597 -13.007  -3.556  0.00  0.00    -0.040 A 
ATOM     13  C   UNL d   1      25.828 -12.374  -4.769  0.00  0.00     0.009 A 
ATOM     14  C   UNL d   1      26.679 -11.270  -4.812  0.00  0.00     0.001 A 
ATOM     15  C   UNL d   1      27.197 -10.720  -3.632  0.00  0.00     0.009 A 
ATOM     16  C   UNL d   1      26.940 -11.320  -2.392  0.00  0.00    -0.040 A 
ATOM     17  C   UNL d   1      26.179 -12.486  -2.397  0.00  0.00     0.017 A 
BRANCH  16  18
ATOM     18  C   UNL d   1      27.484 -10.715  -1.120  0.00  0.00     0.158 C 
BRANCH  18  19
ATOM     19  N   UNL d   1      27.119 -11.459   0.084  0.00  0.00    -0.386 N 
ATOM     20  H   UNL d   1      26.428 -11.071   0.708  0.00  0.00     0.160 HD
BRANCH  19  21
ATOM     21  C   UNL d   1      27.735 -12.602   0.512  0.00  0.00     0.030 A 
ATOM     22  C   UNL d   1      28.795 -13.173  -0.177  0.00  0.00     0.046 A 
ATOM     23  C   UNL d   1      29.330 -14.367   0.272  0.00  0.00     0.089 A 
ATOM     24  N   UNL d   1      28.814 -14.969   1.354  0.00  0.00    -0.375 N 
ATOM     25  C   UNL d   1      27.798 -14.442   2.051  0.00  0.00     0.089 A 
ATOM     26  H   UNL d   1      29.209 -15.861   1.655  0.00  0.00     0.164 HD
ATOM     27  C   UNL d   1      27.245 -13.238   1.652  0.00  0.00     0.046 A 
ENDBRANCH  19  21
ENDBRANCH  18  19
ENDBRANCH  16  18
ENDBRANCH  11  12
ENDBRANCH   8  11
BRANCH   1  28
ATOM     28  N   UNL d   1      23.521 -18.275   0.275  0.00  0.00    -0.322 N 
ATOM     29  C   UNL d   1      22.646 -18.760  -0.701  0.00  0.00     0.263 C 
ATOM     30  O   UNL d   1      23.001 -18.947  -1.864  0.00  0.00    -0.267 OA
ATOM     31  H   UNL d   1      23.302 -18.486   1.241  0.00  0.00     0.169 HD
BRANCH  29  32
ATOM     32  C   UNL d   1      21.322 -19.182  -0.281  0.00  0.00     0.074 A 
ATOM     33  C   UNL d   1      20.262 -19.405  -1.146  0.00  0.00     0.027 A 
ATOM     34  C   UNL d   1      19.072 -19.790  -0.472  0.00  0.00     0.033 A 
ATOM     35  C   UNL d   1      19.251 -19.745   0.885  0.00  0.00     0.075 A 
ATOM     36 CL   UNL d   1      18.050 -20.076   2.068  0.00  0.00    -0.076 Cl
ATOM     37  S   UNL d   1      20.831 -19.325   1.350  0.00  0.00    -0.072 SA
ENDBRANCH  29  32
ENDBRANCH   1  28
TORSDOF 7
ENDMDL
MODEL 9
REMARK VINA RESULT:    -7.880      4.562      8.058
REMARK INTER + INTRA:         -13.078
REMARK INTER:                  -9.968
REMARK INTRA:                  -3.110
REMARK CONF_INDEPENDENT:        2.088
REMARK UNBOUND:                -3.110
REMARK  7 active torsions:
REMARK  status: ('A' for Active; 'I' for Inactive)
REMARK       I    between atoms: C_2  and  N_3 
REMARK    1  A    between atoms: C_2  and  C_29 
REMARK    2  A    between atoms: N_3  and  C_4 
REMARK    3  A    between atoms: N_11  and  C_12 
REMARK    4  A    between atoms: C_12  and  C_13 
REMARK    5  A    between atoms: C_17  and  C_18 
REMARK    6  A    between atoms: C_18  and  N_19 
REMARK    7  A    between atoms: N_19  and  C_20 
ROOT
ATOM      1  C   UNL d   1      27.054 -15.445  -0.104  0.00  0.00     0.044 A 
ATOM      2  C   UNL d   1      26.951 -14.091   0.274  0.00  0.00     0.030 A 
ATOM      3  C   UNL d   1      28.062 -13.214   0.200  0.00  0.00     0.003 A 
ATOM      4  C   UNL d   1      29.268 -13.653  -0.321  0.00  0.00     0.018 A 
ATOM      5  C   UNL d   1      29.305 -14.960  -0.758  0.00  0.00     0.042 A 
ATOM      6  C   UNL d   1      28.259 -15.869  -0.634  0.00  0.00     0.002 A 
ATOM      7  C   UNL d   1      28.663 -17.172  -1.241  0.00  0.00     0.168 A 
ATOM      8  N   UNL d   1      30.018 -16.912  -1.690  0.00  0.00    -0.339 N 
ATOM      9  C   UNL d   1      30.386 -15.598  -1.474  0.00  0.00     0.255 A 
ATOM     10  O   UNL d   1      31.391 -14.967  -1.764  0.00  0.00    -0.267 OA
ENDROOT
BRANCH   8  11
ATOM     11  C   UNL d   1      30.812 -17.983  -2.278  0.00  0.00     0.165 C 
BRANCH  11  12
ATOM     12  C   UNL d   1      30.744 -18.042  -3.775  0.00  0.00    -0.040 A 
ATOM     13  C   UNL d   1      30.758 -19.230  -4.491  0.00  0.00     0.009 A 
ATOM     14  C   UNL d   1      30.683 -19.190  -5.883  0.00  0.00     0.001 A 
ATOM     15  C   UNL d   1      30.467 -17.978  -6.552  0.00  0.00     0.009 A 
ATOM     16  C   UNL d   1      30.408 -16.771  -5.843  0.00  0.00    -0.040 A 
ATOM     17  C   UNL d   1      30.598 -16.835  -4.464  0.00  0.00     0.017 A 
BRANCH  16  18
ATOM     18  C   UNL d   1      30.156 -15.469  -6.564  0.00  0.00     0.158 C 
BRANCH  18  19
ATOM     19  N   UNL d   1      28.745 -15.090  -6.610  0.00  0.00    -0.386 N 
ATOM     20  H   UNL d   1      28.289 -15.011  -7.507  0.00  0.00     0.160 HD
BRANCH  19  21
ATOM     21  C   UNL d   1      28.005 -14.704  -5.528  0.00  0.00     0.030 A 
ATOM     22  C   UNL d   1      28.517 -13.878  -4.538  0.00  0.00     0.046 A 
ATOM     23  C   UNL d   1      27.738 -13.579  -3.435  0.00  0.00     0.089 A 
ATOM     24  N   UNL d   1      26.507 -14.099  -3.321  0.00  0.00    -0.375 N 
ATOM     25  C   UNL d   1      25.974 -14.892  -4.262  0.00  0.00     0.089 A 
ATOM     26  H   UNL d   1      25.957 -13.884  -2.488  0.00  0.00     0.164 HD
ATOM     27  C   UNL d   1      26.708 -15.201  -5.394  0.00  0.00     0.046 A 
ENDBRANCH  19  21
ENDBRANCH  18  19
ENDBRANCH  16  18
ENDBRANCH  11  12
ENDBRANCH   8  11
BRANCH   1  28
ATOM     28  N   UNL d   1      25.956 -16.332   0.019  0.00  0.00    -0.322 N 
ATOM     29  C   UNL d   1      24.842 -16.216  -0.817  0.00  0.00     0.263 C 
ATOM     30  O   UNL d   1      24.780 -15.373  -1.711  0.00  0.00    -0.267 OA
ATOM     31  H   UNL d   1      26.112 -17.230   0.462  0.00  0.00     0.169 HD
BRANCH  29  32
ATOM     32  C   UNL d   1      23.796 -17.216  -0.705  0.00  0.00     0.074 A 
ATOM     33  C   UNL d   1      24.027 -18.575  -0.562  0.00  0.00     0.027 A 
ATOM     34  C   UNL d   1      22.826 -19.334  -0.495  0.00  0.00     0.033 A 
ATOM     35  C   UNL d   1      21.736 -18.529  -0.692  0.00  0.00     0.075 A 
ATOM     36 CL   UNL d   1      20.101 -19.050  -0.750  0.00  0.00    -0.076 Cl
ATOM     37  S   UNL d   1      22.129 -16.885  -0.877  0.00  0.00    -0.072 SA
ENDBRANCH  29  32
ENDBRANCH   1  28
TORSDOF 7
ENDMDL
