MODEL 1
REMARK VINA RESULT:    -9.905      0.000      0.000
REMARK INTER + INTRA:         -14.569
REMARK INTER:                 -12.888
REMARK INTRA:                  -1.681
REMARK CONF_INDEPENDENT:        2.983
REMARK UNBOUND:                -1.681
REMARK  10 active torsions:
REMARK  status: ('A' for Active; 'I' for Inactive)
REMARK    1  A    between atoms: C_2  and  C_3 
REMARK    2  A    between atoms: C_3  and  C_4 
REMARK       I    between atoms: C_4  and  N_6 
REMARK    3  A    between atoms: N_6  and  C_7 
REMARK    4  A    between atoms: C_10  and  C_11 
REMARK       I    between atoms: C_11  and  N_13 
REMARK    5  A    between atoms: N_13  and  N_14 
REMARK    6  A    between atoms: N_14  and  C_15 
REMARK    7  A    between atoms: C_15  and  N_17 
REMARK       I    between atoms: N_17  and  C_18 
REMARK    8  A    between atoms: C_18  and  C_20 
REMARK    9  A    between atoms: C_20  and  O_21 
REMARK   10  A    between atoms: O_21  and  C_22 
ROOT
ATOM      1  N   UNL d   1      27.024 -14.450  -2.826  0.00  0.00    -0.273 N 
ATOM      2  H   UNL d   1      27.862 -14.437  -2.247  0.00  0.00     0.189 HD
ENDROOT
BRANCH   1   3
ATOM      3  N   UNL d   1      25.908 -15.212  -2.264  0.00  0.00    -0.264 N 
ATOM      4  C   UNL d   1      26.063 -16.219  -1.319  0.00  0.00     0.270 C 
ATOM      5  O   UNL d   1      27.176 -16.528  -0.878  0.00  0.00    -0.266 OA
ATOM      6  H   UNL d   1      25.004 -14.961  -2.662  0.00  0.00     0.190 HD
BRANCH   4   7
ATOM      7  C   UNL d   1      24.816 -16.968  -0.848  0.00  0.00     0.033 A 
ATOM      8  C   UNL d   1      24.899 -18.331  -0.487  0.00  0.00     0.019 A 
ATOM      9  C   UNL d   1      23.748 -19.091  -0.150  0.00  0.00     0.030 A 
ATOM     10  C   UNL d   1      22.487 -18.491  -0.137  0.00  0.00     0.034 A 
ATOM     11  C   UNL d   1      22.410 -17.133  -0.451  0.00  0.00     0.030 A 
ATOM     12  C   UNL d   1      23.549 -16.378  -0.791  0.00  0.00     0.019 A 
BRANCH  10  13
ATOM     13  N   UNL d   1      21.318 -19.216   0.227  0.00  0.00    -0.327 N 
ATOM     14  C   UNL d   1      20.401 -19.655  -0.723  0.00  0.00     0.222 C 
ATOM     15  O   UNL d   1      20.569 -19.531  -1.935  0.00  0.00    -0.273 OA
ATOM     16  H   UNL d   1      21.233 -19.541   1.183  0.00  0.00     0.169 HD
BRANCH  14  17
ATOM     17  C   UNL d   1      19.156 -20.354  -0.180  0.00  0.00     0.103 C 
BRANCH  17  18
ATOM     18  C   UNL d   1      19.385 -20.751   1.288  0.00  0.00     0.005 C 
ATOM     19  C   UNL d   1      18.417 -20.083   2.246  0.00  0.00     0.005 C 
ENDBRANCH  17  18
ENDBRANCH  14  17
ENDBRANCH  10  13
ENDBRANCH   4   7
ENDBRANCH   1   3
BRANCH   1  20
ATOM     20  C   UNL d   1      26.839 -13.829  -4.081  0.00  0.00     0.193 C 
ATOM     21  S   UNL d   1      25.271 -13.392  -4.546  0.00  0.00    -0.039 SA
BRANCH  20  22
ATOM     22  N   UNL d   1      28.010 -13.615  -4.859  0.00  0.00    -0.301 N 
ATOM     23  C   UNL d   1      28.351 -14.301  -6.056  0.00  0.00     0.248 C 
ATOM     24  O   UNL d   1      27.648 -15.193  -6.534  0.00  0.00    -0.271 OA
ATOM     25  H   UNL d   1      28.654 -12.907  -4.535  0.00  0.00     0.171 HD
BRANCH  23  26
ATOM     26  C   UNL d   1      29.671 -13.936  -6.799  0.00  0.00     0.278 C 
BRANCH  26  27
ATOM     27  O   UNL d   1      30.744 -14.676  -6.167  0.00  0.00    -0.342 OA
BRANCH  27  28
ATOM     28  C   UNL d   1      30.660 -16.030  -6.017  0.00  0.00     0.070 A 
ATOM     29  C   UNL d   1      30.444 -16.498  -4.715  0.00  0.00     0.038 A 
ATOM     30  C   UNL d   1      30.437 -17.870  -4.434  0.00  0.00     0.022 A 
ATOM     31  C   UNL d   1      30.599 -18.795  -5.465  0.00  0.00     0.017 A 
ATOM     32 BR   UNL d   1      30.406 -20.632  -5.017  0.00  0.00    -0.051 Br
ATOM     33  C   UNL d   1      30.857 -18.350  -6.770  0.00  0.00    -0.042 A 
ATOM     34  C   UNL d   1      31.151 -19.275  -7.918  0.00  0.00     0.049 C 
ATOM     35  C   UNL d   1      30.887 -16.958  -7.029  0.00  0.00     0.044 A 
ENDBRANCH  27  28
ENDBRANCH  26  27
ENDBRANCH  23  26
ENDBRANCH  20  22
ENDBRANCH   1  20
TORSDOF 10
ENDMDL
MODEL 2
REMARK VINA RESULT:    -9.465      3.182      4.622
REMARK INTER + INTRA:         -15.074
REMARK INTER:                 -12.448
REMARK INTRA:                  -2.626
REMARK CONF_INDEPENDENT:        2.983
REMARK UNBOUND:                -2.626
REMARK  10 active torsions:
REMARK  status: ('A' for Active; 'I' for Inactive)
REMARK    1  A    between atoms: C_2  and  C_3 
REMARK    2  A    between atoms: C_3  and  C_4 
REMARK       I    between atoms: C_4  and  N_6 
REMARK    3  A    between atoms: N_6  and  C_7 
REMARK    4  A    between atoms: C_10  and  C_11 
REMARK       I    between atoms: C_11  and  N_13 
REMARK    5  A    between atoms: N_13  and  N_14 
REMARK    6  A    between atoms: N_14  and  C_15 
REMARK    7  A    between atoms: C_15  and  N_17 
REMARK       I    between atoms: N_17  and  C_18 
REMARK    8  A    between atoms: C_18  and  C_20 
REMARK    9  A    between atoms: C_20  and  O_21 
REMARK   10  A    between atoms: O_21  and  C_22 
ROOT
ATOM      1  N   UNL d   1      28.905 -16.801  -0.533  0.00  0.00    -0.273 N 
ATOM      2  H   UNL d   1      29.244 -16.310   0.293  0.00  0.00     0.189 HD
ENDROOT
BRANCH   1   3
ATOM      3  N   UNL d   1      27.520 -17.265  -0.440  0.00  0.00    -0.264 N 
ATOM      4  C   UNL d   1      26.447 -16.609  -1.032  0.00  0.00     0.270 C 
ATOM      5  O   UNL d   1      26.606 -15.578  -1.696  0.00  0.00    -0.266 OA
ATOM      6  H   UNL d   1      27.410 -18.099   0.135  0.00  0.00     0.190 HD
BRANCH   4   7
ATOM      7  C   UNL d   1      25.045 -17.178  -0.820  0.00  0.00     0.033 A 
ATOM      8  C   UNL d   1      23.910 -16.355  -0.996  0.00  0.00     0.019 A 
ATOM      9  C   UNL d   1      22.597 -16.812  -0.704  0.00  0.00     0.030 A 
ATOM     10  C   UNL d   1      22.390 -18.118  -0.256  0.00  0.00     0.034 A 
ATOM     11  C   UNL d   1      23.507 -18.946  -0.123  0.00  0.00     0.030 A 
ATOM     12  C   UNL d   1      24.810 -18.493  -0.407  0.00  0.00     0.019 A 
BRANCH  10  13
ATOM     13  N   UNL d   1      21.085 -18.617   0.016  0.00  0.00    -0.327 N 
ATOM     14  C   UNL d   1      20.362 -19.336  -0.931  0.00  0.00     0.222 C 
ATOM     15  O   UNL d   1      20.818 -19.666  -2.024  0.00  0.00    -0.273 OA
ATOM     16  H   UNL d   1      20.742 -18.571   0.968  0.00  0.00     0.169 HD
BRANCH  14  17
ATOM     17  C   UNL d   1      18.947 -19.743  -0.526  0.00  0.00     0.103 C 
BRANCH  17  18
ATOM     18  C   UNL d   1      19.013 -20.808   0.582  0.00  0.00     0.005 C 
ATOM     19  C   UNL d   1      19.346 -20.233   1.945  0.00  0.00     0.005 C 
ENDBRANCH  17  18
ENDBRANCH  14  17
ENDBRANCH  10  13
ENDBRANCH   4   7
ENDBRANCH   1   3
BRANCH   1  20
ATOM     20  C   UNL d   1      29.620 -17.075  -1.720  0.00  0.00     0.193 C 
ATOM     21  S   UNL d   1      30.962 -18.104  -1.638  0.00  0.00    -0.039 SA
BRANCH  20  22
ATOM     22  N   UNL d   1      29.137 -16.457  -2.905  0.00  0.00    -0.301 N 
ATOM     23  C   UNL d   1      29.616 -16.693  -4.223  0.00  0.00     0.248 C 
ATOM     24  O   UNL d   1      30.544 -17.469  -4.463  0.00  0.00    -0.271 OA
ATOM     25  H   UNL d   1      28.382 -15.794  -2.804  0.00  0.00     0.171 HD
BRANCH  23  26
ATOM     26  C   UNL d   1      28.967 -15.939  -5.422  0.00  0.00     0.278 C 
BRANCH  26  27
ATOM     27  O   UNL d   1      27.622 -15.574  -5.029  0.00  0.00    -0.342 OA
BRANCH  27  28
ATOM     28  C   UNL d   1      27.236 -14.265  -5.007  0.00  0.00     0.070 A 
ATOM     29  C   UNL d   1      26.267 -13.919  -4.056  0.00  0.00     0.038 A 
ATOM     30  C   UNL d   1      25.730 -12.626  -4.011  0.00  0.00     0.022 A 
ATOM     31  C   UNL d   1      26.193 -11.647  -4.889  0.00  0.00     0.017 A 
ATOM     32 BR   UNL d   1      25.532  -9.882  -4.644  0.00  0.00    -0.051 Br
ATOM     33  C   UNL d   1      27.133 -11.980  -5.877  0.00  0.00    -0.042 A 
ATOM     34  C   UNL d   1      27.604 -11.017  -6.930  0.00  0.00     0.049 C 
ATOM     35  C   UNL d   1      27.644 -13.300  -5.924  0.00  0.00     0.044 A 
ENDBRANCH  27  28
ENDBRANCH  26  27
ENDBRANCH  23  26
ENDBRANCH  20  22
ENDBRANCH   1  20
TORSDOF 10
ENDMDL
MODEL 3
REMARK VINA RESULT:    -9.436      6.447      8.812
REMARK INTER + INTRA:         -14.611
REMARK INTER:                 -12.419
REMARK INTRA:                  -2.192
REMARK CONF_INDEPENDENT:        2.983
REMARK UNBOUND:                -2.192
REMARK  10 active torsions:
REMARK  status: ('A' for Active; 'I' for Inactive)
REMARK    1  A    between atoms: C_2  and  C_3 
REMARK    2  A    between atoms: C_3  and  C_4 
REMARK       I    between atoms: C_4  and  N_6 
REMARK    3  A    between atoms: N_6  and  C_7 
REMARK    4  A    between atoms: C_10  and  C_11 
REMARK       I    between atoms: C_11  and  N_13 
REMARK    5  A    between atoms: N_13  and  N_14 
REMARK    6  A    between atoms: N_14  and  C_15 
REMARK    7  A    between atoms: C_15  and  N_17 
REMARK       I    between atoms: N_17  and  C_18 
REMARK    8  A    between atoms: C_18  and  C_20 
REMARK    9  A    between atoms: C_20  and  O_21 
REMARK   10  A    between atoms: O_21  and  C_22 
ROOT
ATOM      1  N   UNL d   1      28.300 -14.689  -0.142  0.00  0.00    -0.273 N 
ATOM      2  H   UNL d   1      28.234 -14.026  -0.913  0.00  0.00     0.189 HD
ENDROOT
BRANCH   1   3
ATOM      3  N   UNL d   1      27.163 -15.603  -0.026  0.00  0.00    -0.264 N 
ATOM      4  C   UNL d   1      26.662 -16.347  -1.088  0.00  0.00     0.270 C 
ATOM      5  O   UNL d   1      27.168 -16.288  -2.215  0.00  0.00    -0.266 OA
ATOM      6  H   UNL d   1      26.744 -15.614   0.903  0.00  0.00     0.190 HD
BRANCH   4   7
ATOM      7  C   UNL d   1      25.441 -17.232  -0.840  0.00  0.00     0.033 A 
ATOM      8  C   UNL d   1      24.480 -17.420  -1.858  0.00  0.00     0.019 A 
ATOM      9  C   UNL d   1      23.278 -18.143  -1.635  0.00  0.00     0.030 A 
ATOM     10  C   UNL d   1      23.026 -18.722  -0.390  0.00  0.00     0.034 A 
ATOM     11  C   UNL d   1      23.996 -18.574   0.605  0.00  0.00     0.030 A 
ATOM     12  C   UNL d   1      25.186 -17.852   0.388  0.00  0.00     0.019 A 
BRANCH  10  13
ATOM     13  N   UNL d   1      21.847 -19.478  -0.142  0.00  0.00    -0.327 N 
ATOM     14  C   UNL d   1      20.596 -19.052  -0.575  0.00  0.00     0.222 C 
ATOM     15  O   UNL d   1      20.424 -18.051  -1.270  0.00  0.00    -0.273 OA
ATOM     16  H   UNL d   1      21.948 -20.416   0.230  0.00  0.00     0.169 HD
BRANCH  14  17
ATOM     17  C   UNL d   1      19.412 -19.928  -0.172  0.00  0.00     0.103 C 
BRANCH  17  18
ATOM     18  C   UNL d   1      18.988 -19.594   1.268  0.00  0.00     0.005 C 
ATOM     19  C   UNL d   1      18.871 -20.818   2.157  0.00  0.00     0.005 C 
ENDBRANCH  17  18
ENDBRANCH  14  17
ENDBRANCH  10  13
ENDBRANCH   4   7
ENDBRANCH   1   3
BRANCH   1  20
ATOM     20  C   UNL d   1      29.344 -14.805   0.802  0.00  0.00     0.193 C 
ATOM     21  S   UNL d   1      30.909 -15.130   0.244  0.00  0.00    -0.039 SA
BRANCH  20  22
ATOM     22  N   UNL d   1      28.985 -14.629   2.166  0.00  0.00    -0.301 N 
ATOM     23  C   UNL d   1      27.761 -14.086   2.642  0.00  0.00     0.248 C 
ATOM     24  O   UNL d   1      26.875 -13.680   1.886  0.00  0.00    -0.271 OA
ATOM     25  H   UNL d   1      29.657 -14.924   2.860  0.00  0.00     0.171 HD
BRANCH  23  26
ATOM     26  C   UNL d   1      27.516 -13.974   4.177  0.00  0.00     0.278 C 
BRANCH  26  27
ATOM     27  O   UNL d   1      28.811 -13.860   4.816  0.00  0.00    -0.342 OA
BRANCH  27  28
ATOM     28  C   UNL d   1      28.906 -13.678   6.166  0.00  0.00     0.070 A 
ATOM     29  C   UNL d   1      28.075 -12.695   6.719  0.00  0.00     0.038 A 
ATOM     30  C   UNL d   1      28.159 -12.359   8.075  0.00  0.00     0.022 A 
ATOM     31  C   UNL d   1      29.046 -13.040   8.910  0.00  0.00     0.017 A 
ATOM     32 BR   UNL d   1      28.972 -12.637  10.765  0.00  0.00    -0.051 Br
ATOM     33  C   UNL d   1      29.917 -13.999   8.371  0.00  0.00    -0.042 A 
ATOM     34  C   UNL d   1      30.976 -14.700   9.173  0.00  0.00     0.049 C 
ATOM     35  C   UNL d   1      29.835 -14.305   6.990  0.00  0.00     0.044 A 
ENDBRANCH  27  28
ENDBRANCH  26  27
ENDBRANCH  23  26
ENDBRANCH  20  22
ENDBRANCH   1  20
TORSDOF 10
ENDMDL
MODEL 4
REMARK VINA RESULT:    -9.333      3.175      4.561
REMARK INTER + INTRA:         -15.522
REMARK INTER:                 -12.316
REMARK INTRA:                  -3.205
REMARK CONF_INDEPENDENT:        2.983
REMARK UNBOUND:                -3.205
REMARK  10 active torsions:
REMARK  status: ('A' for Active; 'I' for Inactive)
REMARK    1  A    between atoms: C_2  and  C_3 
REMARK    2  A    between atoms: C_3  and  C_4 
REMARK       I    between atoms: C_4  and  N_6 
REMARK    3  A    between atoms: N_6  and  C_7 
REMARK    4  A    between atoms: C_10  and  C_11 
REMARK       I    between atoms: C_11  and  N_13 
REMARK    5  A    between atoms: N_13  and  N_14 
REMARK    6  A    between atoms: N_14  and  C_15 
REMARK    7  A    between atoms: C_15  and  N_17 
REMARK       I    between atoms: N_17  and  C_18 
REMARK    8  A    between atoms: C_18  and  C_20 
REMARK    9  A    between atoms: C_20  and  O_21 
REMARK   10  A    between atoms: O_21  and  C_22 
ROOT
ATOM      1  N   UNL d   1      30.010 -17.142  -0.817  0.00  0.00    -0.273 N 
ATOM      2  H   UNL d   1      30.499 -16.687  -0.048  0.00  0.00     0.189 HD
ENDROOT
BRANCH   1   3
ATOM      3  N   UNL d   1      28.583 -17.368  -0.583  0.00  0.00    -0.264 N 
ATOM      4  C   UNL d   1      27.576 -16.670  -1.239  0.00  0.00     0.270 C 
ATOM      5  O   UNL d   1      27.832 -15.807  -2.086  0.00  0.00    -0.266 OA
ATOM      6  H   UNL d   1      28.395 -18.063   0.138  0.00  0.00     0.190 HD
BRANCH   4   7
ATOM      7  C   UNL d   1      26.124 -16.974  -0.868  0.00  0.00     0.033 A 
ATOM      8  C   UNL d   1      25.805 -18.146  -0.147  0.00  0.00     0.019 A 
ATOM      9  C   UNL d   1      24.462 -18.521   0.123  0.00  0.00     0.030 A 
ATOM     10  C   UNL d   1      23.407 -17.711  -0.301  0.00  0.00     0.034 A 
ATOM     11  C   UNL d   1      23.723 -16.530  -0.977  0.00  0.00     0.030 A 
ATOM     12  C   UNL d   1      25.054 -16.159  -1.250  0.00  0.00     0.019 A 
BRANCH  10  13
ATOM     13  N   UNL d   1      22.052 -18.042  -0.021  0.00  0.00    -0.327 N 
ATOM     14  C   UNL d   1      21.286 -18.808  -0.894  0.00  0.00     0.222 C 
ATOM     15  O   UNL d   1      21.738 -19.325  -1.916  0.00  0.00    -0.273 OA
ATOM     16  H   UNL d   1      21.688 -17.835   0.902  0.00  0.00     0.169 HD
BRANCH  14  17
ATOM     17  C   UNL d   1      19.827 -19.020  -0.498  0.00  0.00     0.103 C 
BRANCH  17  18
ATOM     18  C   UNL d   1      19.665 -20.399   0.162  0.00  0.00     0.005 C 
ATOM     19  C   UNL d   1      19.271 -20.320   1.625  0.00  0.00     0.005 C 
ENDBRANCH  17  18
ENDBRANCH  14  17
ENDBRANCH  10  13
ENDBRANCH   4   7
ENDBRANCH   1   3
BRANCH   1  20
ATOM     20  C   UNL d   1      30.557 -17.570  -2.047  0.00  0.00     0.193 C 
ATOM     21  S   UNL d   1      31.818 -18.700  -2.023  0.00  0.00    -0.039 SA
BRANCH  20  22
ATOM     22  N   UNL d   1      29.988 -17.009  -3.222  0.00  0.00    -0.301 N 
ATOM     23  C   UNL d   1      30.690 -16.681  -4.413  0.00  0.00     0.248 C 
ATOM     24  O   UNL d   1      31.907 -16.838  -4.531  0.00  0.00    -0.271 OA
ATOM     25  H   UNL d   1      28.993 -16.833  -3.212  0.00  0.00     0.171 HD
BRANCH  23  26
ATOM     26  C   UNL d   1      29.912 -16.082  -5.622  0.00  0.00     0.278 C 
BRANCH  26  27
ATOM     27  O   UNL d   1      28.502 -16.118  -5.293  0.00  0.00    -0.342 OA
BRANCH  27  28
ATOM     28  C   UNL d   1      27.821 -14.965  -5.028  0.00  0.00     0.070 A 
ATOM     29  C   UNL d   1      28.574 -13.784  -5.035  0.00  0.00     0.038 A 
ATOM     30  C   UNL d   1      27.997 -12.558  -4.682  0.00  0.00     0.022 A 
ATOM     31  C   UNL d   1      26.640 -12.491  -4.364  0.00  0.00     0.017 A 
ATOM     32 BR   UNL d   1      25.906 -10.764  -4.064  0.00  0.00    -0.051 Br
ATOM     33  C   UNL d   1      25.875 -13.666  -4.310  0.00  0.00    -0.042 A 
ATOM     34  C   UNL d   1      24.438 -13.700  -3.871  0.00  0.00     0.049 C 
ATOM     35  C   UNL d   1      26.485 -14.900  -4.643  0.00  0.00     0.044 A 
ENDBRANCH  27  28
ENDBRANCH  26  27
ENDBRANCH  23  26
ENDBRANCH  20  22
ENDBRANCH   1  20
TORSDOF 10
ENDMDL
MODEL 5
REMARK VINA RESULT:    -9.155      4.034      6.167
REMARK INTER + INTRA:         -14.851
REMARK INTER:                 -12.138
REMARK INTRA:                  -2.713
REMARK CONF_INDEPENDENT:        2.983
REMARK UNBOUND:                -2.713
REMARK  10 active torsions:
REMARK  status: ('A' for Active; 'I' for Inactive)
REMARK    1  A    between atoms: C_2  and  C_3 
REMARK    2  A    between atoms: C_3  and  C_4 
REMARK       I    between atoms: C_4  and  N_6 
REMARK    3  A    between atoms: N_6  and  C_7 
REMARK    4  A    between atoms: C_10  and  C_11 
REMARK       I    between atoms: C_11  and  N_13 
REMARK    5  A    between atoms: N_13  and  N_14 
REMARK    6  A    between atoms: N_14  and  C_15 
REMARK    7  A    between atoms: C_15  and  N_17 
REMARK       I    between atoms: N_17  and  C_18 
REMARK    8  A    between atoms: C_18  and  C_20 
REMARK    9  A    between atoms: C_20  and  O_21 
REMARK   10  A    between atoms: O_21  and  C_22 
ROOT
ATOM      1  N   UNL d   1      28.033 -15.707  -2.548  0.00  0.00    -0.273 N 
ATOM      2  H   UNL d   1      28.712 -15.776  -1.792  0.00  0.00     0.189 HD
ENDROOT
BRANCH   1   3
ATOM      3  N   UNL d   1      26.701 -16.220  -2.220  0.00  0.00    -0.264 N 
ATOM      4  C   UNL d   1      26.355 -16.719  -0.970  0.00  0.00     0.270 C 
ATOM      5  O   UNL d   1      27.167 -16.749  -0.038  0.00  0.00    -0.266 OA
ATOM      6  H   UNL d   1      26.058 -16.212  -3.010  0.00  0.00     0.190 HD
BRANCH   4   7
ATOM      7  C   UNL d   1      24.941 -17.264  -0.774  0.00  0.00     0.033 A 
ATOM      8  C   UNL d   1      23.825 -16.409  -0.905  0.00  0.00     0.019 A 
ATOM      9  C   UNL d   1      22.503 -16.848  -0.625  0.00  0.00     0.030 A 
ATOM     10  C   UNL d   1      22.268 -18.168  -0.235  0.00  0.00     0.034 A 
ATOM     11  C   UNL d   1      23.366 -19.027  -0.148  0.00  0.00     0.030 A 
ATOM     12  C   UNL d   1      24.678 -18.592  -0.420  0.00  0.00     0.019 A 
BRANCH  10  13
ATOM     13  N   UNL d   1      20.954 -18.648   0.023  0.00  0.00    -0.327 N 
ATOM     14  C   UNL d   1      20.232 -19.360  -0.931  0.00  0.00     0.222 C 
ATOM     15  O   UNL d   1      20.696 -19.699  -2.018  0.00  0.00    -0.273 OA
ATOM     16  H   UNL d   1      20.601 -18.595   0.971  0.00  0.00     0.169 HD
BRANCH  14  17
ATOM     17  C   UNL d   1      18.807 -19.746  -0.541  0.00  0.00     0.103 C 
BRANCH  17  18
ATOM     18  C   UNL d   1      18.785 -20.237   0.917  0.00  0.00     0.005 C 
ATOM     19  C   UNL d   1      18.049 -21.551   1.094  0.00  0.00     0.005 C 
ENDBRANCH  17  18
ENDBRANCH  14  17
ENDBRANCH  10  13
ENDBRANCH   4   7
ENDBRANCH   1   3
BRANCH   1  20
ATOM     20  C   UNL d   1      28.244 -15.188  -3.844  0.00  0.00     0.193 C 
ATOM     21  S   UNL d   1      29.456 -15.876  -4.805  0.00  0.00    -0.039 SA
BRANCH  20  22
ATOM     22  N   UNL d   1      27.400 -14.115  -4.241  0.00  0.00    -0.301 N 
ATOM     23  C   UNL d   1      26.034 -14.226  -4.621  0.00  0.00     0.248 C 
ATOM     24  O   UNL d   1      25.442 -15.307  -4.664  0.00  0.00    -0.271 OA
ATOM     25  H   UNL d   1      27.804 -13.190  -4.248  0.00  0.00     0.171 HD
BRANCH  23  26
ATOM     26  C   UNL d   1      25.242 -12.944  -5.018  0.00  0.00     0.278 C 
BRANCH  26  27
ATOM     27  O   UNL d   1      26.200 -11.866  -5.152  0.00  0.00    -0.342 OA
BRANCH  27  28
ATOM     28  C   UNL d   1      25.845 -10.582  -4.852  0.00  0.00     0.070 A 
ATOM     29  C   UNL d   1      25.478  -9.771  -5.934  0.00  0.00     0.038 A 
ATOM     30  C   UNL d   1      25.190  -8.413  -5.752  0.00  0.00     0.022 A 
ATOM     31  C   UNL d   1      25.219  -7.858  -4.473  0.00  0.00     0.017 A 
ATOM     32 BR   UNL d   1      24.649  -6.053  -4.300  0.00  0.00    -0.051 Br
ATOM     33  C   UNL d   1      25.623  -8.639  -3.381  0.00  0.00    -0.042 A 
ATOM     34  C   UNL d   1      25.788  -8.096  -1.989  0.00  0.00     0.049 C 
ATOM     35  C   UNL d   1      25.937 -10.005  -3.589  0.00  0.00     0.044 A 
ENDBRANCH  27  28
ENDBRANCH  26  27
ENDBRANCH  23  26
ENDBRANCH  20  22
ENDBRANCH   1  20
TORSDOF 10
ENDMDL
MODEL 6
REMARK VINA RESULT:    -9.068      5.372      7.718
REMARK INTER + INTRA:         -14.699
REMARK INTER:                 -12.051
REMARK INTRA:                  -2.648
REMARK CONF_INDEPENDENT:        2.983
REMARK UNBOUND:                -2.648
REMARK  10 active torsions:
REMARK  status: ('A' for Active; 'I' for Inactive)
REMARK    1  A    between atoms: C_2  and  C_3 
REMARK    2  A    between atoms: C_3  and  C_4 
REMARK       I    between atoms: C_4  and  N_6 
REMARK    3  A    between atoms: N_6  and  C_7 
REMARK    4  A    between atoms: C_10  and  C_11 
REMARK       I    between atoms: C_11  and  N_13 
REMARK    5  A    between atoms: N_13  and  N_14 
REMARK    6  A    between atoms: N_14  and  C_15 
REMARK    7  A    between atoms: C_15  and  N_17 
REMARK       I    between atoms: N_17  and  C_18 
REMARK    8  A    between atoms: C_18  and  C_20 
REMARK    9  A    between atoms: C_20  and  O_21 
REMARK   10  A    between atoms: O_21  and  C_22 
ROOT
ATOM      1  N   UNL d   1      28.118 -14.593  -0.623  0.00  0.00    -0.273 N 
ATOM      2  H   UNL d   1      28.325 -14.409  -1.603  0.00  0.00     0.189 HD
ENDROOT
BRANCH   1   3
ATOM      3  N   UNL d   1      26.961 -15.461  -0.398  0.00  0.00    -0.264 N 
ATOM      4  C   UNL d   1      26.230 -16.050  -1.422  0.00  0.00     0.270 C 
ATOM      5  O   UNL d   1      26.529 -15.882  -2.610  0.00  0.00    -0.266 OA
ATOM      6  H   UNL d   1      26.716 -15.563   0.586  0.00  0.00     0.190 HD
BRANCH   4   7
ATOM      7  C   UNL d   1      25.016 -16.901  -1.049  0.00  0.00     0.033 A 
ATOM      8  C   UNL d   1      23.712 -16.369  -1.165  0.00  0.00     0.019 A 
ATOM      9  C   UNL d   1      22.566 -17.083  -0.728  0.00  0.00     0.030 A 
ATOM     10  C   UNL d   1      22.699 -18.365  -0.189  0.00  0.00     0.034 A 
ATOM     11  C   UNL d   1      23.983 -18.910  -0.114  0.00  0.00     0.030 A 
ATOM     12  C   UNL d   1      25.122 -18.200  -0.543  0.00  0.00     0.019 A 
BRANCH  10  13
ATOM     13  N   UNL d   1      21.569 -19.121   0.230  0.00  0.00    -0.327 N 
ATOM     14  C   UNL d   1      20.583 -19.526  -0.664  0.00  0.00     0.222 C 
ATOM     15  O   UNL d   1      20.654 -19.343  -1.879  0.00  0.00    -0.273 OA
ATOM     16  H   UNL d   1      21.563 -19.492   1.173  0.00  0.00     0.169 HD
BRANCH  14  17
ATOM     17  C   UNL d   1      19.392 -20.266  -0.059  0.00  0.00     0.103 C 
BRANCH  17  18
ATOM     18  C   UNL d   1      18.982 -19.592   1.261  0.00  0.00     0.005 C 
ATOM     19  C   UNL d   1      19.258 -20.450   2.481  0.00  0.00     0.005 C 
ENDBRANCH  17  18
ENDBRANCH  14  17
ENDBRANCH  10  13
ENDBRANCH   4   7
ENDBRANCH   1   3
BRANCH   1  20
ATOM     20  C   UNL d   1      28.810 -14.103   0.506  0.00  0.00     0.193 C 
ATOM     21  S   UNL d   1      30.251 -14.863   0.967  0.00  0.00    -0.039 SA
BRANCH  20  22
ATOM     22  N   UNL d   1      28.229 -12.988   1.169  0.00  0.00    -0.301 N 
ATOM     23  C   UNL d   1      26.837 -12.752   1.338  0.00  0.00     0.248 C 
ATOM     24  O   UNL d   1      25.975 -13.509   0.887  0.00  0.00    -0.271 OA
ATOM     25  H   UNL d   1      28.861 -12.305   1.562  0.00  0.00     0.171 HD
BRANCH  23  26
ATOM     26  C   UNL d   1      26.362 -11.482   2.105  0.00  0.00     0.278 C 
BRANCH  26  27
ATOM     27  O   UNL d   1      27.464 -11.037   2.933  0.00  0.00    -0.342 OA
BRANCH  27  28
ATOM     28  C   UNL d   1      27.780 -11.702   4.084  0.00  0.00     0.070 A 
ATOM     29  C   UNL d   1      28.240 -10.915   5.148  0.00  0.00     0.038 A 
ATOM     30  C   UNL d   1      28.683 -11.503   6.339  0.00  0.00     0.022 A 
ATOM     31  C   UNL d   1      28.625 -12.887   6.499  0.00  0.00     0.017 A 
ATOM     32 BR   UNL d   1      29.086 -13.582   8.207  0.00  0.00    -0.051 Br
ATOM     33  C   UNL d   1      28.207 -13.698   5.433  0.00  0.00    -0.042 A 
ATOM     34  C   UNL d   1      28.218 -15.200   5.480  0.00  0.00     0.049 C 
ATOM     35  C   UNL d   1      27.789 -13.086   4.226  0.00  0.00     0.044 A 
ENDBRANCH  27  28
ENDBRANCH  26  27
ENDBRANCH  23  26
ENDBRANCH  20  22
ENDBRANCH   1  20
TORSDOF 10
ENDMDL
MODEL 7
REMARK VINA RESULT:    -8.881      3.003      4.472
REMARK INTER + INTRA:         -14.764
REMARK INTER:                 -11.864
REMARK INTRA:                  -2.900
REMARK CONF_INDEPENDENT:        2.983
REMARK UNBOUND:                -2.900
REMARK  10 active torsions:
REMARK  status: ('A' for Active; 'I' for Inactive)
REMARK    1  A    between atoms: C_2  and  C_3 
REMARK    2  A    between atoms: C_3  and  C_4 
REMARK       I    between atoms: C_4  and  N_6 
REMARK    3  A    between atoms: N_6  and  C_7 
REMARK    4  A    between atoms: C_10  and  C_11 
REMARK       I    between atoms: C_11  and  N_13 
REMARK    5  A    between atoms: N_13  and  N_14 
REMARK    6  A    between atoms: N_14  and  C_15 
REMARK    7  A    between atoms: C_15  and  N_17 
REMARK       I    between atoms: N_17  and  C_18 
REMARK    8  A    between atoms: C_18  and  C_20 
REMARK    9  A    between atoms: C_20  and  O_21 
REMARK   10  A    between atoms: O_21  and  C_22 
ROOT
ATOM      1  N   UNL d   1      27.943 -14.901  -0.746  0.00  0.00    -0.273 N 
ATOM      2  H   UNL d   1      27.961 -13.955  -0.369  0.00  0.00     0.189 HD
ENDROOT
BRANCH   1   3
ATOM      3  N   UNL d   1      26.738 -15.664  -0.422  0.00  0.00    -0.264 N 
ATOM      4  C   UNL d   1      25.869 -16.175  -1.379  0.00  0.00     0.270 C 
ATOM      5  O   UNL d   1      26.075 -16.020  -2.588  0.00  0.00    -0.266 OA
ATOM      6  H   UNL d   1      26.573 -15.755   0.580  0.00  0.00     0.190 HD
BRANCH   4   7
ATOM      7  C   UNL d   1      24.622 -16.918  -0.902  0.00  0.00     0.033 A 
ATOM      8  C   UNL d   1      24.709 -18.269  -0.497  0.00  0.00     0.019 A 
ATOM      9  C   UNL d   1      23.560 -19.027  -0.152  0.00  0.00     0.030 A 
ATOM     10  C   UNL d   1      22.294 -18.437  -0.175  0.00  0.00     0.034 A 
ATOM     11  C   UNL d   1      22.211 -17.089  -0.533  0.00  0.00     0.030 A 
ATOM     12  C   UNL d   1      23.350 -16.336  -0.881  0.00  0.00     0.019 A 
BRANCH  10  13
ATOM     13  N   UNL d   1      21.125 -19.159   0.195  0.00  0.00    -0.327 N 
ATOM     14  C   UNL d   1      20.190 -19.575  -0.747  0.00  0.00     0.222 C 
ATOM     15  O   UNL d   1      20.340 -19.433  -1.960  0.00  0.00    -0.273 OA
ATOM     16  H   UNL d   1      21.053 -19.499   1.147  0.00  0.00     0.169 HD
BRANCH  14  17
ATOM     17  C   UNL d   1      18.949 -20.274  -0.196  0.00  0.00     0.103 C 
BRANCH  17  18
ATOM     18  C   UNL d   1      19.324 -21.082   1.057  0.00  0.00     0.005 C 
ATOM     19  C   UNL d   1      19.144 -20.304   2.347  0.00  0.00     0.005 C 
ENDBRANCH  17  18
ENDBRANCH  14  17
ENDBRANCH  10  13
ENDBRANCH   4   7
ENDBRANCH   1   3
BRANCH   1  20
ATOM     20  C   UNL d   1      28.940 -15.532  -1.523  0.00  0.00     0.193 C 
ATOM     21  S   UNL d   1      30.308 -16.149  -0.739  0.00  0.00    -0.039 SA
BRANCH  20  22
ATOM     22  N   UNL d   1      28.703 -15.599  -2.923  0.00  0.00    -0.301 N 
ATOM     23  C   UNL d   1      29.692 -15.780  -3.928  0.00  0.00     0.248 C 
ATOM     24  O   UNL d   1      30.893 -15.874  -3.668  0.00  0.00    -0.271 OA
ATOM     25  H   UNL d   1      27.744 -15.519  -3.231  0.00  0.00     0.171 HD
BRANCH  23  26
ATOM     26  C   UNL d   1      29.262 -15.846  -5.424  0.00  0.00     0.278 C 
BRANCH  26  27
ATOM     27  O   UNL d   1      27.841 -15.571  -5.480  0.00  0.00    -0.342 OA
BRANCH  27  28
ATOM     28  C   UNL d   1      27.380 -14.287  -5.430  0.00  0.00     0.070 A 
ATOM     29  C   UNL d   1      27.781 -13.443  -6.474  0.00  0.00     0.038 A 
ATOM     30  C   UNL d   1      27.445 -12.084  -6.471  0.00  0.00     0.022 A 
ATOM     31  C   UNL d   1      26.661 -11.560  -5.444  0.00  0.00     0.017 A 
ATOM     32 BR   UNL d   1      26.113  -9.747  -5.610  0.00  0.00    -0.051 Br
ATOM     33  C   UNL d   1      26.282 -12.376  -4.367  0.00  0.00    -0.042 A 
ATOM     34  C   UNL d   1      25.531 -11.870  -3.168  0.00  0.00     0.049 C 
ATOM     35  C   UNL d   1      26.654 -13.742  -4.375  0.00  0.00     0.044 A 
ENDBRANCH  27  28
ENDBRANCH  26  27
ENDBRANCH  23  26
ENDBRANCH  20  22
ENDBRANCH   1  20
TORSDOF 10
ENDMDL
MODEL 8
REMARK VINA RESULT:    -8.693      2.256      3.298
REMARK INTER + INTRA:         -14.514
REMARK INTER:                 -11.676
REMARK INTRA:                  -2.838
REMARK CONF_INDEPENDENT:        2.983
REMARK UNBOUND:                -2.838
REMARK  10 active torsions:
REMARK  status: ('A' for Active; 'I' for Inactive)
REMARK    1  A    between atoms: C_2  and  C_3 
REMARK    2  A    between atoms: C_3  and  C_4 
REMARK       I    between atoms: C_4  and  N_6 
REMARK    3  A    between atoms: N_6  and  C_7 
REMARK    4  A    between atoms: C_10  and  C_11 
REMARK       I    between atoms: C_11  and  N_13 
REMARK    5  A    between atoms: N_13  and  N_14 
REMARK    6  A    between atoms: N_14  and  C_15 
REMARK    7  A    between atoms: C_15  and  N_17 
REMARK       I    between atoms: N_17  and  C_18 
REMARK    8  A    between atoms: C_18  and  C_20 
REMARK    9  A    between atoms: C_20  and  O_21 
REMARK   10  A    between atoms: O_21  and  C_22 
ROOT
ATOM      1  N   UNL d   1      27.541 -14.368  -0.331  0.00  0.00    -0.273 N 
ATOM      2  H   UNL d   1      28.436 -14.734  -0.008  0.00  0.00     0.189 HD
ENDROOT
BRANCH   1   3
ATOM      3  N   UNL d   1      26.412 -15.283  -0.158  0.00  0.00    -0.264 N 
ATOM      4  C   UNL d   1      25.859 -16.027  -1.193  0.00  0.00     0.270 C 
ATOM      5  O   UNL d   1      26.306 -15.968  -2.345  0.00  0.00    -0.266 OA
ATOM      6  H   UNL d   1      26.041 -15.295   0.791  0.00  0.00     0.190 HD
BRANCH   4   7
ATOM      7  C   UNL d   1      24.652 -16.912  -0.884  0.00  0.00     0.033 A 
ATOM      8  C   UNL d   1      23.347 -16.371  -0.912  0.00  0.00     0.019 A 
ATOM      9  C   UNL d   1      22.210 -17.128  -0.526  0.00  0.00     0.030 A 
ATOM     10  C   UNL d   1      22.352 -18.460  -0.130  0.00  0.00     0.034 A 
ATOM     11  C   UNL d   1      23.636 -19.009  -0.143  0.00  0.00     0.030 A 
ATOM     12  C   UNL d   1      24.767 -18.258  -0.521  0.00  0.00     0.019 A 
BRANCH  10  13
ATOM     13  N   UNL d   1      21.231 -19.256   0.233  0.00  0.00    -0.327 N 
ATOM     14  C   UNL d   1      20.286 -19.666  -0.703  0.00  0.00     0.222 C 
ATOM     15  O   UNL d   1      20.391 -19.450  -1.909  0.00  0.00    -0.273 OA
ATOM     16  H   UNL d   1      21.204 -19.651   1.166  0.00  0.00     0.169 HD
BRANCH  14  17
ATOM     17  C   UNL d   1      19.097 -20.451  -0.156  0.00  0.00     0.103 C 
BRANCH  17  18
ATOM     18  C   UNL d   1      19.394 -20.903   1.284  0.00  0.00     0.005 C 
ATOM     19  C   UNL d   1      18.670 -20.076   2.331  0.00  0.00     0.005 C 
ENDBRANCH  17  18
ENDBRANCH  14  17
ENDBRANCH  10  13
ENDBRANCH   4   7
ENDBRANCH   1   3
BRANCH   1  20
ATOM     20  C   UNL d   1      27.292 -13.108  -0.918  0.00  0.00     0.193 C 
ATOM     21  S   UNL d   1      27.602 -11.715  -0.009  0.00  0.00    -0.039 SA
BRANCH  20  22
ATOM     22  N   UNL d   1      26.796 -13.119  -2.251  0.00  0.00    -0.301 N 
ATOM     23  C   UNL d   1      26.483 -11.973  -3.032  0.00  0.00     0.248 C 
ATOM     24  O   UNL d   1      26.595 -10.824  -2.600  0.00  0.00    -0.271 OA
ATOM     25  H   UNL d   1      26.661 -14.021  -2.684  0.00  0.00     0.171 HD
BRANCH  23  26
ATOM     26  C   UNL d   1      25.960 -12.158  -4.488  0.00  0.00     0.278 C 
BRANCH  26  27
ATOM     27  O   UNL d   1      26.050 -13.567  -4.807  0.00  0.00    -0.342 OA
BRANCH  27  28
ATOM     28  C   UNL d   1      27.239 -14.118  -5.191  0.00  0.00     0.070 A 
ATOM     29  C   UNL d   1      27.781 -13.646  -6.393  0.00  0.00     0.038 A 
ATOM     30  C   UNL d   1      28.946 -14.209  -6.928  0.00  0.00     0.022 A 
ATOM     31  C   UNL d   1      29.612 -15.223  -6.239  0.00  0.00     0.017 A 
ATOM     32 BR   UNL d   1      31.274 -15.808  -6.954  0.00  0.00    -0.051 Br
ATOM     33  C   UNL d   1      29.066 -15.740  -5.055  0.00  0.00    -0.042 A 
ATOM     34  C   UNL d   1      29.657 -16.903  -4.308  0.00  0.00     0.049 C 
ATOM     35  C   UNL d   1      27.872 -15.175  -4.544  0.00  0.00     0.044 A 
ENDBRANCH  27  28
ENDBRANCH  26  27
ENDBRANCH  23  26
ENDBRANCH  20  22
ENDBRANCH   1  20
TORSDOF 10
ENDMDL
MODEL 9
REMARK VINA RESULT:    -8.320      3.337      5.053
REMARK INTER + INTRA:         -14.653
REMARK INTER:                 -11.303
REMARK INTRA:                  -3.349
REMARK CONF_INDEPENDENT:        2.983
REMARK UNBOUND:                -3.349
REMARK  10 active torsions:
REMARK  status: ('A' for Active; 'I' for Inactive)
REMARK    1  A    between atoms: C_2  and  C_3 
REMARK    2  A    between atoms: C_3  and  C_4 
REMARK       I    between atoms: C_4  and  N_6 
REMARK    3  A    between atoms: N_6  and  C_7 
REMARK    4  A    between atoms: C_10  and  C_11 
REMARK       I    between atoms: C_11  and  N_13 
REMARK    5  A    between atoms: N_13  and  N_14 
REMARK    6  A    between atoms: N_14  and  C_15 
REMARK    7  A    between atoms: C_15  and  N_17 
REMARK       I    between atoms: N_17  and  C_18 
REMARK    8  A    between atoms: C_18  and  C_20 
REMARK    9  A    between atoms: C_20  and  O_21 
REMARK   10  A    between atoms: O_21  and  C_22 
ROOT
ATOM      1  N   UNL d   1      28.493 -15.735  -3.246  0.00  0.00    -0.273 N 
ATOM      2  H   UNL d   1      29.315 -16.020  -2.716  0.00  0.00     0.189 HD
ENDROOT
BRANCH   1   3
ATOM      3  N   UNL d   1      27.221 -16.207  -2.699  0.00  0.00    -0.264 N 
ATOM      4  C   UNL d   1      27.081 -16.733  -1.420  0.00  0.00     0.270 C 
ATOM      5  O   UNL d   1      28.044 -16.824  -0.649  0.00  0.00    -0.266 OA
ATOM      6  H   UNL d   1      26.448 -16.149  -3.360  0.00  0.00     0.190 HD
BRANCH   4   7
ATOM      7  C   UNL d   1      25.702 -17.231  -0.988  0.00  0.00     0.033 A 
ATOM      8  C   UNL d   1      24.535 -16.657  -1.539  0.00  0.00     0.019 A 
ATOM      9  C   UNL d   1      23.236 -17.013  -1.087  0.00  0.00     0.030 A 
ATOM     10  C   UNL d   1      23.078 -17.978  -0.090  0.00  0.00     0.034 A 
ATOM     11  C   UNL d   1      24.230 -18.578   0.425  0.00  0.00     0.030 A 
ATOM     12  C   UNL d   1      25.519 -18.222  -0.019  0.00  0.00     0.019 A 
BRANCH  10  13
ATOM     13  N   UNL d   1      21.791 -18.380   0.364  0.00  0.00    -0.327 N 
ATOM     14  C   UNL d   1      20.877 -19.005  -0.479  0.00  0.00     0.222 C 
ATOM     15  O   UNL d   1      21.137 -19.333  -1.636  0.00  0.00    -0.273 OA
ATOM     16  H   UNL d   1      21.598 -18.339   1.358  0.00  0.00     0.169 HD
BRANCH  14  17
ATOM     17  C   UNL d   1      19.509 -19.311   0.126  0.00  0.00     0.103 C 
BRANCH  17  18
ATOM     18  C   UNL d   1      19.438 -20.797   0.518  0.00  0.00     0.005 C 
ATOM     19  C   UNL d   1      18.072 -21.215   1.030  0.00  0.00     0.005 C 
ENDBRANCH  17  18
ENDBRANCH  14  17
ENDBRANCH  10  13
ENDBRANCH   4   7
ENDBRANCH   1   3
BRANCH   1  20
ATOM     20  C   UNL d   1      28.461 -14.958  -4.426  0.00  0.00     0.193 C 
ATOM     21  S   UNL d   1      29.494 -15.378  -5.700  0.00  0.00    -0.039 SA
BRANCH  20  22
ATOM     22  N   UNL d   1      27.543 -13.873  -4.443  0.00  0.00    -0.301 N 
ATOM     23  C   UNL d   1      26.145 -13.969  -4.678  0.00  0.00     0.248 C 
ATOM     24  O   UNL d   1      25.583 -15.040  -4.919  0.00  0.00    -0.271 OA
ATOM     25  H   UNL d   1      27.917 -12.951  -4.267  0.00  0.00     0.171 HD
BRANCH  23  26
ATOM     26  C   UNL d   1      25.272 -12.679  -4.650  0.00  0.00     0.278 C 
BRANCH  26  27
ATOM     27  O   UNL d   1      26.073 -11.625  -4.062  0.00  0.00    -0.342 OA
BRANCH  27  28
ATOM     28  C   UNL d   1      26.481 -11.707  -2.762  0.00  0.00     0.070 A 
ATOM     29  C   UNL d   1      27.268 -10.648  -2.291  0.00  0.00     0.038 A 
ATOM     30  C   UNL d   1      27.820 -10.676  -1.004  0.00  0.00     0.022 A 
ATOM     31  C   UNL d   1      27.549 -11.747  -0.152  0.00  0.00     0.017 A 
ATOM     32 BR   UNL d   1      28.198 -11.620   1.630  0.00  0.00    -0.051 Br
ATOM     33  C   UNL d   1      26.798 -12.837  -0.615  0.00  0.00    -0.042 A 
ATOM     34  C   UNL d   1      26.551 -14.078   0.197  0.00  0.00     0.049 C 
ATOM     35  C   UNL d   1      26.271 -12.802  -1.929  0.00  0.00     0.044 A 
ENDBRANCH  27  28
ENDBRANCH  26  27
ENDBRANCH  23  26
ENDBRANCH  20  22
ENDBRANCH   1  20
TORSDOF 10
ENDMDL
