MODEL 1
REMARK VINA RESULT:    -7.154      0.000      0.000
REMARK INTER + INTRA:         -10.099
REMARK INTER:                  -9.242
REMARK INTRA:                  -0.857
REMARK CONF_INDEPENDENT:        2.088
REMARK UNBOUND:                -0.857
REMARK  7 active torsions:
REMARK  status: ('A' for Active; 'I' for Inactive)
REMARK    1  A    between atoms: C_2  and  C_3 
REMARK       I    between atoms: C_2  and  N_16 
REMARK    2  A    between atoms: C_3  and  S_4 
REMARK    3  A    between atoms: S_4  and  C_5 
REMARK    4  A    between atoms: C_10  and  C_11 
REMARK    5  A    between atoms: N_16  and  C_17 
REMARK    6  A    between atoms: C_20  and  N_21 
REMARK    7  A    between atoms: C_25  and  C_26 
ROOT
ATOM      1  O   UNL d   1      28.888 -15.228   0.611  0.00  0.00    -0.272 OA
ATOM      2  C   UNL d   1      27.661 -15.345   0.498  0.00  0.00     0.231 C 
ATOM      3  N   UNL d   1      27.183 -16.600   0.161  0.00  0.00    -0.326 N 
ATOM      4  H   UNL d   1      27.912 -17.312   0.184  0.00  0.00     0.169 HD
ENDROOT
BRANCH   2   5
ATOM      5  C   UNL d   1      26.664 -14.207   0.797  0.00  0.00     0.182 C 
BRANCH   5   6
ATOM      6  S   UNL d   1      27.435 -12.568   0.919  0.00  0.00    -0.121 SA
BRANCH   6   7
ATOM      7  C   UNL d   1      27.552 -12.322   2.696  0.00  0.00     0.001 A 
ATOM      8  C   UNL d   1      27.444 -11.093   3.357  0.00  0.00     0.020 A 
ATOM      9  C   UNL d   1      27.780 -10.995   4.720  0.00  0.00     0.026 A 
ATOM     10  C   UNL d   1      28.224 -12.114   5.436  0.00  0.00     0.049 A 
ATOM     11 CL   UNL d   1      28.680 -11.862   7.080  0.00  0.00    -0.083 Cl
ATOM     12  C   UNL d   1      28.300 -13.356   4.805  0.00  0.00     0.070 A 
ATOM     13  C   UNL d   1      27.958 -13.436   3.435  0.00  0.00     0.036 A 
BRANCH  12  14
ATOM     14  C   UNL d   1      28.742 -14.633   5.466  0.00  0.00     0.419 C 
ATOM     15  F   UNL d   1      28.115 -15.715   4.919  0.00  0.00    -0.166 F 
ATOM     16  F   UNL d   1      30.075 -14.860   5.290  0.00  0.00    -0.166 F 
ATOM     17  F   UNL d   1      28.530 -14.731   6.802  0.00  0.00    -0.166 F 
ENDBRANCH  12  14
ENDBRANCH   6   7
ENDBRANCH   5   6
ENDBRANCH   2   5
BRANCH   3  18
ATOM     18  C   UNL d   1      25.904 -17.011  -0.265  0.00  0.00     0.050 C 
ATOM     19  C   UNL d   1      25.294 -18.066   0.451  0.00  0.00     0.033 C 
ATOM     20  C   UNL d   1      24.003 -18.517   0.124  0.00  0.00     0.038 C 
ATOM     21  C   UNL d   1      23.298 -17.878  -0.897  0.00  0.00     0.103 C 
ATOM     22  C   UNL d   1      23.923 -16.887  -1.655  0.00  0.00     0.054 C 
ATOM     23  C   UNL d   1      25.247 -16.485  -1.387  0.00  0.00     0.076 C 
BRANCH  21  24
ATOM     24  N   UNL d   1      21.894 -18.207  -1.172  0.00  0.00    -0.116 N 
ATOM     25  O   UNL d   1      21.644 -19.325  -1.638  0.00  0.00    -0.532 OA
ATOM     26  O   UNL d   1      21.043 -17.349  -0.896  0.00  0.00    -0.532 OA
ENDBRANCH  21  24
BRANCH  23  27
ATOM     27  C   UNL d   1      25.835 -15.543  -2.411  0.00  0.00     0.419 C 
ATOM     28  F   UNL d   1      25.498 -15.856  -3.688  0.00  0.00    -0.166 F 
ATOM     29  F   UNL d   1      25.358 -14.279  -2.218  0.00  0.00    -0.166 F 
ATOM     30  F   UNL d   1      27.189 -15.457  -2.415  0.00  0.00    -0.166 F 
ENDBRANCH  23  27
ENDBRANCH   3  18
TORSDOF 7
ENDMDL
MODEL 2
REMARK VINA RESULT:    -7.067      1.570      2.255
REMARK INTER + INTRA:         -10.017
REMARK INTER:                  -9.155
REMARK INTRA:                  -0.862
REMARK CONF_INDEPENDENT:        2.088
REMARK UNBOUND:                -0.862
REMARK  7 active torsions:
REMARK  status: ('A' for Active; 'I' for Inactive)
REMARK    1  A    between atoms: C_2  and  C_3 
REMARK       I    between atoms: C_2  and  N_16 
REMARK    2  A    between atoms: C_3  and  S_4 
REMARK    3  A    between atoms: S_4  and  C_5 
REMARK    4  A    between atoms: C_10  and  C_11 
REMARK    5  A    between atoms: N_16  and  C_17 
REMARK    6  A    between atoms: C_20  and  N_21 
REMARK    7  A    between atoms: C_25  and  C_26 
ROOT
ATOM      1  O   UNL d   1      28.905 -15.143   0.440  0.00  0.00    -0.272 OA
ATOM      2  C   UNL d   1      27.677 -15.301   0.420  0.00  0.00     0.231 C 
ATOM      3  N   UNL d   1      27.214 -16.533  -0.009  0.00  0.00    -0.326 N 
ATOM      4  H   UNL d   1      27.967 -17.211  -0.127  0.00  0.00     0.169 HD
ENDROOT
BRANCH   2   5
ATOM      5  C   UNL d   1      26.673 -14.246   0.925  0.00  0.00     0.182 C 
BRANCH   5   6
ATOM      6  S   UNL d   1      27.450 -12.716   1.519  0.00  0.00    -0.121 SA
BRANCH   6   7
ATOM      7  C   UNL d   1      28.073 -13.195   3.135  0.00  0.00     0.001 A 
ATOM      8  C   UNL d   1      28.177 -14.506   3.613  0.00  0.00     0.020 A 
ATOM      9  C   UNL d   1      28.461 -14.741   4.971  0.00  0.00     0.026 A 
ATOM     10  C   UNL d   1      28.646 -13.678   5.864  0.00  0.00     0.049 A 
ATOM     11 CL   UNL d   1      28.913 -14.082   7.519  0.00  0.00    -0.083 Cl
ATOM     12  C   UNL d   1      28.585 -12.364   5.399  0.00  0.00     0.070 A 
ATOM     13  C   UNL d   1      28.299 -12.147   4.031  0.00  0.00     0.036 A 
BRANCH  12  14
ATOM     14  C   UNL d   1      28.784 -11.139   6.250  0.00  0.00     0.419 C 
ATOM     15  F   UNL d   1      30.107 -10.923   6.503  0.00  0.00    -0.166 F 
ATOM     16  F   UNL d   1      28.347 -10.009   5.623  0.00  0.00    -0.166 F 
ATOM     17  F   UNL d   1      28.180 -11.138   7.465  0.00  0.00    -0.166 F 
ENDBRANCH  12  14
ENDBRANCH   6   7
ENDBRANCH   5   6
ENDBRANCH   2   5
BRANCH   3  18
ATOM     18  C   UNL d   1      25.918 -16.952  -0.365  0.00  0.00     0.050 C 
ATOM     19  C   UNL d   1      25.360 -18.023   0.371  0.00  0.00     0.033 C 
ATOM     20  C   UNL d   1      24.057 -18.483   0.113  0.00  0.00     0.038 C 
ATOM     21  C   UNL d   1      23.288 -17.840  -0.857  0.00  0.00     0.103 C 
ATOM     22  C   UNL d   1      23.858 -16.833  -1.638  0.00  0.00     0.054 C 
ATOM     23  C   UNL d   1      25.191 -16.420  -1.442  0.00  0.00     0.076 C 
BRANCH  21  24
ATOM     24  N   UNL d   1      21.874 -18.180  -1.056  0.00  0.00    -0.116 N 
ATOM     25  O   UNL d   1      21.037 -17.282  -0.903  0.00  0.00    -0.532 OA
ATOM     26  O   UNL d   1      21.609 -19.344  -1.389  0.00  0.00    -0.532 OA
ENDBRANCH  21  24
BRANCH  23  27
ATOM     27  C   UNL d   1      25.709 -15.460  -2.485  0.00  0.00     0.419 C 
ATOM     28  F   UNL d   1      25.444 -14.160  -2.200  0.00  0.00    -0.166 F 
ATOM     29  F   UNL d   1      27.070 -15.536  -2.563  0.00  0.00    -0.166 F 
ATOM     30  F   UNL d   1      25.231 -15.650  -3.741  0.00  0.00    -0.166 F 
ENDBRANCH  23  27
ENDBRANCH   3  18
TORSDOF 7
ENDMDL
MODEL 3
REMARK VINA RESULT:    -6.738      5.403      8.091
REMARK INTER + INTRA:          -9.728
REMARK INTER:                  -8.826
REMARK INTRA:                  -0.902
REMARK CONF_INDEPENDENT:        2.088
REMARK UNBOUND:                -0.902
REMARK  7 active torsions:
REMARK  status: ('A' for Active; 'I' for Inactive)
REMARK    1  A    between atoms: C_2  and  C_3 
REMARK       I    between atoms: C_2  and  N_16 
REMARK    2  A    between atoms: C_3  and  S_4 
REMARK    3  A    between atoms: S_4  and  C_5 
REMARK    4  A    between atoms: C_10  and  C_11 
REMARK    5  A    between atoms: N_16  and  C_17 
REMARK    6  A    between atoms: C_20  and  N_21 
REMARK    7  A    between atoms: C_25  and  C_26 
ROOT
ATOM      1  O   UNL d   1      28.139 -13.050  -3.698  0.00  0.00    -0.272 OA
ATOM      2  C   UNL d   1      27.355 -12.297  -3.105  0.00  0.00     0.231 C 
ATOM      3  N   UNL d   1      27.917 -11.305  -2.321  0.00  0.00    -0.326 N 
ATOM      4  H   UNL d   1      28.927 -11.238  -2.445  0.00  0.00     0.169 HD
ENDROOT
BRANCH   2   5
ATOM      5  C   UNL d   1      25.823 -12.359  -3.270  0.00  0.00     0.182 C 
BRANCH   5   6
ATOM      6  S   UNL d   1      25.207 -13.978  -3.814  0.00  0.00    -0.121 SA
BRANCH   6   7
ATOM      7  C   UNL d   1      25.572 -15.030  -2.404  0.00  0.00     0.001 A 
ATOM      8  C   UNL d   1      26.831 -15.199  -1.817  0.00  0.00     0.020 A 
ATOM      9  C   UNL d   1      27.035 -16.219  -0.869  0.00  0.00     0.026 A 
ATOM     10  C   UNL d   1      25.993 -17.077  -0.497  0.00  0.00     0.049 A 
ATOM     11 CL   UNL d   1      26.376 -18.338   0.615  0.00  0.00    -0.083 Cl
ATOM     12  C   UNL d   1      24.721 -16.900  -1.041  0.00  0.00     0.070 A 
ATOM     13  C   UNL d   1      24.533 -15.869  -1.991  0.00  0.00     0.036 A 
BRANCH  12  14
ATOM     14  C   UNL d   1      23.517 -17.740  -0.709  0.00  0.00     0.419 C 
ATOM     15  F   UNL d   1      23.519 -18.107   0.605  0.00  0.00    -0.166 F 
ATOM     16  F   UNL d   1      22.353 -17.051  -0.891  0.00  0.00    -0.166 F 
ATOM     17  F   UNL d   1      23.370 -18.894  -1.406  0.00  0.00    -0.166 F 
ENDBRANCH  12  14
ENDBRANCH   6   7
ENDBRANCH   5   6
ENDBRANCH   2   5
BRANCH   3  18
ATOM     18  C   UNL d   1      27.336 -10.456  -1.358  0.00  0.00     0.050 C 
ATOM     19  C   UNL d   1      27.421 -10.860  -0.006  0.00  0.00     0.033 C 
ATOM     20  C   UNL d   1      26.904 -10.058   1.027  0.00  0.00     0.038 C 
ATOM     21  C   UNL d   1      26.340  -8.823   0.711  0.00  0.00     0.103 C 
ATOM     22  C   UNL d   1      26.186  -8.452  -0.626  0.00  0.00     0.054 C 
ATOM     23  C   UNL d   1      26.627  -9.287  -1.672  0.00  0.00     0.076 C 
BRANCH  21  24
ATOM     24  N   UNL d   1      25.929  -7.884   1.762  0.00  0.00    -0.116 N 
ATOM     25  O   UNL d   1      26.397  -8.046   2.896  0.00  0.00    -0.532 OA
ATOM     26  O   UNL d   1      25.156  -6.970   1.440  0.00  0.00    -0.532 OA
ENDBRANCH  21  24
BRANCH  23  27
ATOM     27  C   UNL d   1      26.218  -8.829  -3.052  0.00  0.00     0.419 C 
ATOM     28  F   UNL d   1      25.884  -7.515  -3.107  0.00  0.00    -0.166 F 
ATOM     29  F   UNL d   1      27.260  -8.968  -3.923  0.00  0.00    -0.166 F 
ATOM     30  F   UNL d   1      25.161  -9.485  -3.595  0.00  0.00    -0.166 F 
ENDBRANCH  23  27
ENDBRANCH   3  18
TORSDOF 7
ENDMDL
MODEL 4
REMARK VINA RESULT:    -6.595      5.355      7.643
REMARK INTER + INTRA:          -9.534
REMARK INTER:                  -8.683
REMARK INTRA:                  -0.850
REMARK CONF_INDEPENDENT:        2.088
REMARK UNBOUND:                -0.850
REMARK  7 active torsions:
REMARK  status: ('A' for Active; 'I' for Inactive)
REMARK    1  A    between atoms: C_2  and  C_3 
REMARK       I    between atoms: C_2  and  N_16 
REMARK    2  A    between atoms: C_3  and  S_4 
REMARK    3  A    between atoms: S_4  and  C_5 
REMARK    4  A    between atoms: C_10  and  C_11 
REMARK    5  A    between atoms: N_16  and  C_17 
REMARK    6  A    between atoms: C_20  and  N_21 
REMARK    7  A    between atoms: C_25  and  C_26 
ROOT
ATOM      1  O   UNL d   1      29.352 -15.839  -0.268  0.00  0.00    -0.272 OA
ATOM      2  C   UNL d   1      28.328 -16.213  -0.855  0.00  0.00     0.231 C 
ATOM      3  N   UNL d   1      27.137 -16.117  -0.154  0.00  0.00    -0.326 N 
ATOM      4  H   UNL d   1      27.245 -15.612   0.725  0.00  0.00     0.169 HD
ENDROOT
BRANCH   2   5
ATOM      5  C   UNL d   1      28.309 -16.683  -2.323  0.00  0.00     0.182 C 
BRANCH   5   6
ATOM      6  S   UNL d   1      28.809 -15.404  -3.511  0.00  0.00    -0.121 SA
BRANCH   6   7
ATOM      7  C   UNL d   1      29.724 -16.346  -4.738  0.00  0.00     0.001 A 
ATOM      8  C   UNL d   1      29.976 -15.942  -6.054  0.00  0.00     0.020 A 
ATOM      9  C   UNL d   1      30.501 -16.859  -6.984  0.00  0.00     0.026 A 
ATOM     10  C   UNL d   1      30.780 -18.181  -6.615  0.00  0.00     0.049 A 
ATOM     11 CL   UNL d   1      31.348 -19.237  -7.856  0.00  0.00    -0.083 Cl
ATOM     12  C   UNL d   1      30.572 -18.592  -5.299  0.00  0.00     0.070 A 
ATOM     13  C   UNL d   1      30.045 -17.657  -4.377  0.00  0.00     0.036 A 
BRANCH  12  14
ATOM     14  C   UNL d   1      30.849 -19.975  -4.774  0.00  0.00     0.419 C 
ATOM     15  F   UNL d   1      30.995 -19.968  -3.417  0.00  0.00    -0.166 F 
ATOM     16  F   UNL d   1      29.814 -20.828  -5.023  0.00  0.00    -0.166 F 
ATOM     17  F   UNL d   1      31.956 -20.596  -5.252  0.00  0.00    -0.166 F 
ENDBRANCH  12  14
ENDBRANCH   6   7
ENDBRANCH   5   6
ENDBRANCH   2   5
BRANCH   3  18
ATOM     18  C   UNL d   1      25.865 -16.655  -0.428  0.00  0.00     0.050 C 
ATOM     19  C   UNL d   1      25.529 -17.873   0.205  0.00  0.00     0.033 C 
ATOM     20  C   UNL d   1      24.267 -18.465   0.022  0.00  0.00     0.038 C 
ATOM     21  C   UNL d   1      23.317 -17.812  -0.763  0.00  0.00     0.103 C 
ATOM     22  C   UNL d   1      23.667 -16.649  -1.450  0.00  0.00     0.054 C 
ATOM     23  C   UNL d   1      24.956 -16.092  -1.338  0.00  0.00     0.076 C 
BRANCH  21  24
ATOM     24  N   UNL d   1      21.938 -18.308  -0.858  0.00  0.00    -0.116 N 
ATOM     25  O   UNL d   1      21.765 -19.533  -0.861  0.00  0.00    -0.532 OA
ATOM     26  O   UNL d   1      21.031 -17.465  -0.903  0.00  0.00    -0.532 OA
ENDBRANCH  21  24
BRANCH  23  27
ATOM     27  C   UNL d   1      25.229 -14.948  -2.285  0.00  0.00     0.419 C 
ATOM     28  F   UNL d   1      25.943 -15.313  -3.380  0.00  0.00    -0.166 F 
ATOM     29  F   UNL d   1      24.056 -14.451  -2.775  0.00  0.00    -0.166 F 
ATOM     30  F   UNL d   1      25.910 -13.901  -1.754  0.00  0.00    -0.166 F 
ENDBRANCH  23  27
ENDBRANCH   3  18
TORSDOF 7
ENDMDL
MODEL 5
REMARK VINA RESULT:    -6.548      4.727      7.805
REMARK INTER + INTRA:          -9.820
REMARK INTER:                  -8.636
REMARK INTRA:                  -1.184
REMARK CONF_INDEPENDENT:        2.088
REMARK UNBOUND:                -1.184
REMARK  7 active torsions:
REMARK  status: ('A' for Active; 'I' for Inactive)
REMARK    1  A    between atoms: C_2  and  C_3 
REMARK       I    between atoms: C_2  and  N_16 
REMARK    2  A    between atoms: C_3  and  S_4 
REMARK    3  A    between atoms: S_4  and  C_5 
REMARK    4  A    between atoms: C_10  and  C_11 
REMARK    5  A    between atoms: N_16  and  C_17 
REMARK    6  A    between atoms: C_20  and  N_21 
REMARK    7  A    between atoms: C_25  and  C_26 
ROOT
ATOM      1  O   UNL d   1      28.054 -13.194  -3.879  0.00  0.00    -0.272 OA
ATOM      2  C   UNL d   1      27.371 -12.452  -3.162  0.00  0.00     0.231 C 
ATOM      3  N   UNL d   1      28.058 -11.575  -2.340  0.00  0.00    -0.326 N 
ATOM      4  H   UNL d   1      29.058 -11.561  -2.538  0.00  0.00     0.169 HD
ENDROOT
BRANCH   2   5
ATOM      5  C   UNL d   1      25.830 -12.400  -3.208  0.00  0.00     0.182 C 
BRANCH   5   6
ATOM      6  S   UNL d   1      25.057 -13.969  -3.694  0.00  0.00    -0.121 SA
BRANCH   6   7
ATOM      7  C   UNL d   1      25.475 -15.053  -2.322  0.00  0.00     0.001 A 
ATOM      8  C   UNL d   1      26.758 -15.247  -1.799  0.00  0.00     0.020 A 
ATOM      9  C   UNL d   1      26.995 -16.287  -0.881  0.00  0.00     0.026 A 
ATOM     10  C   UNL d   1      25.961 -17.141  -0.476  0.00  0.00     0.049 A 
ATOM     11 CL   UNL d   1      26.381 -18.428   0.592  0.00  0.00    -0.083 Cl
ATOM     12  C   UNL d   1      24.666 -16.939  -0.957  0.00  0.00     0.070 A 
ATOM     13  C   UNL d   1      24.447 -15.888  -1.877  0.00  0.00     0.036 A 
BRANCH  12  14
ATOM     14  C   UNL d   1      23.470 -17.772  -0.585  0.00  0.00     0.419 C 
ATOM     15  F   UNL d   1      22.332 -17.019  -0.562  0.00  0.00    -0.166 F 
ATOM     16  F   UNL d   1      23.234 -18.757  -1.499  0.00  0.00    -0.166 F 
ATOM     17  F   UNL d   1      23.514 -18.396   0.619  0.00  0.00    -0.166 F 
ENDBRANCH  12  14
ENDBRANCH   6   7
ENDBRANCH   5   6
ENDBRANCH   2   5
BRANCH   3  18
ATOM     18  C   UNL d   1      27.611 -10.785  -1.263  0.00  0.00     0.050 C 
ATOM     19  C   UNL d   1      27.444  -9.401  -1.503  0.00  0.00     0.033 C 
ATOM     20  C   UNL d   1      26.964  -8.541  -0.500  0.00  0.00     0.038 C 
ATOM     21  C   UNL d   1      26.605  -9.074   0.739  0.00  0.00     0.103 C 
ATOM     22  C   UNL d   1      26.838 -10.424   1.006  0.00  0.00     0.054 C 
ATOM     23  C   UNL d   1      27.395 -11.278   0.033  0.00  0.00     0.076 C 
BRANCH  21  24
ATOM     24  N   UNL d   1      25.956  -8.247   1.763  0.00  0.00    -0.116 N 
ATOM     25  O   UNL d   1      26.262  -8.445   2.945  0.00  0.00    -0.532 OA
ATOM     26  O   UNL d   1      25.157  -7.382   1.375  0.00  0.00    -0.532 OA
ENDBRANCH  21  24
BRANCH  23  27
ATOM     27  C   UNL d   1      27.754 -12.654   0.539  0.00  0.00     0.419 C 
ATOM     28  F   UNL d   1      26.705 -13.515   0.550  0.00  0.00    -0.166 F 
ATOM     29  F   UNL d   1      28.680 -13.232  -0.280  0.00  0.00    -0.166 F 
ATOM     30  F   UNL d   1      28.259 -12.699   1.798  0.00  0.00    -0.166 F 
ENDBRANCH  23  27
ENDBRANCH   3  18
TORSDOF 7
ENDMDL
MODEL 6
REMARK VINA RESULT:    -6.501      2.244      3.057
REMARK INTER + INTRA:          -9.350
REMARK INTER:                  -8.589
REMARK INTRA:                  -0.761
REMARK CONF_INDEPENDENT:        2.088
REMARK UNBOUND:                -0.761
REMARK  7 active torsions:
REMARK  status: ('A' for Active; 'I' for Inactive)
REMARK    1  A    between atoms: C_2  and  C_3 
REMARK       I    between atoms: C_2  and  N_16 
REMARK    2  A    between atoms: C_3  and  S_4 
REMARK    3  A    between atoms: S_4  and  C_5 
REMARK    4  A    between atoms: C_10  and  C_11 
REMARK    5  A    between atoms: N_16  and  C_17 
REMARK    6  A    between atoms: C_20  and  N_21 
REMARK    7  A    between atoms: C_25  and  C_26 
ROOT
ATOM      1  O   UNL d   1      28.984 -14.104  -0.599  0.00  0.00    -0.272 OA
ATOM      2  C   UNL d   1      28.052 -14.814  -0.199  0.00  0.00     0.231 C 
ATOM      3  N   UNL d   1      27.309 -15.471  -1.166  0.00  0.00    -0.326 N 
ATOM      4  H   UNL d   1      27.723 -15.389  -2.094  0.00  0.00     0.169 HD
ENDROOT
BRANCH   2   5
ATOM      5  C   UNL d   1      27.746 -15.063   1.292  0.00  0.00     0.182 C 
BRANCH   5   6
ATOM      6  S   UNL d   1      27.096 -13.608   2.162  0.00  0.00    -0.121 SA
BRANCH   6   7
ATOM      7  C   UNL d   1      27.902 -13.716   3.764  0.00  0.00     0.001 A 
ATOM      8  C   UNL d   1      28.161 -14.898   4.468  0.00  0.00     0.020 A 
ATOM      9  C   UNL d   1      28.587 -14.840   5.808  0.00  0.00     0.026 A 
ATOM     10  C   UNL d   1      28.762 -13.612   6.457  0.00  0.00     0.049 A 
ATOM     11 CL   UNL d   1      29.213 -13.663   8.121  0.00  0.00    -0.083 Cl
ATOM     12  C   UNL d   1      28.547 -12.422   5.761  0.00  0.00     0.070 A 
ATOM     13  C   UNL d   1      28.120 -12.499   4.415  0.00  0.00     0.036 A 
BRANCH  12  14
ATOM     14  C   UNL d   1      28.718 -11.043   6.338  0.00  0.00     0.419 C 
ATOM     15  F   UNL d   1      28.080 -10.107   5.577  0.00  0.00    -0.166 F 
ATOM     16  F   UNL d   1      28.161 -10.941   7.579  0.00  0.00    -0.166 F 
ATOM     17  F   UNL d   1      29.990 -10.593   6.472  0.00  0.00    -0.166 F 
ENDBRANCH  12  14
ENDBRANCH   6   7
ENDBRANCH   5   6
ENDBRANCH   2   5
BRANCH   3  18
ATOM     18  C   UNL d   1      26.077 -16.146  -1.075  0.00  0.00     0.050 C 
ATOM     19  C   UNL d   1      24.938 -15.484  -1.589  0.00  0.00     0.033 C 
ATOM     20  C   UNL d   1      23.672 -16.096  -1.577  0.00  0.00     0.038 C 
ATOM     21  C   UNL d   1      23.552 -17.398  -1.091  0.00  0.00     0.103 C 
ATOM     22  C   UNL d   1      24.655 -18.028  -0.515  0.00  0.00     0.054 C 
ATOM     23  C   UNL d   1      25.910 -17.390  -0.447  0.00  0.00     0.076 C 
BRANCH  21  24
ATOM     24  N   UNL d   1      22.287 -18.136  -1.200  0.00  0.00    -0.116 N 
ATOM     25  O   UNL d   1      22.338 -19.317  -1.564  0.00  0.00    -0.532 OA
ATOM     26  O   UNL d   1      21.248 -17.533  -0.896  0.00  0.00    -0.532 OA
ENDBRANCH  21  24
BRANCH  23  27
ATOM     27  C   UNL d   1      26.945 -18.128   0.369  0.00  0.00     0.419 C 
ATOM     28  F   UNL d   1      26.755 -19.471   0.392  0.00  0.00    -0.166 F 
ATOM     29  F   UNL d   1      28.185 -17.953  -0.171  0.00  0.00    -0.166 F 
ATOM     30  F   UNL d   1      27.028 -17.761   1.674  0.00  0.00    -0.166 F 
ENDBRANCH  23  27
ENDBRANCH   3  18
TORSDOF 7
ENDMDL
MODEL 7
REMARK VINA RESULT:    -6.295      3.071      3.980
REMARK INTER + INTRA:          -9.251
REMARK INTER:                  -8.383
REMARK INTRA:                  -0.868
REMARK CONF_INDEPENDENT:        2.088
REMARK UNBOUND:                -0.868
REMARK  7 active torsions:
REMARK  status: ('A' for Active; 'I' for Inactive)
REMARK    1  A    between atoms: C_2  and  C_3 
REMARK       I    between atoms: C_2  and  N_16 
REMARK    2  A    between atoms: C_3  and  S_4 
REMARK    3  A    between atoms: S_4  and  C_5 
REMARK    4  A    between atoms: C_10  and  C_11 
REMARK    5  A    between atoms: N_16  and  C_17 
REMARK    6  A    between atoms: C_20  and  N_21 
REMARK    7  A    between atoms: C_25  and  C_26 
ROOT
ATOM      1  O   UNL d   1      29.920 -14.571   2.385  0.00  0.00    -0.272 OA
ATOM      2  C   UNL d   1      29.025 -14.319   1.567  0.00  0.00     0.231 C 
ATOM      3  N   UNL d   1      28.703 -15.322   0.668  0.00  0.00    -0.326 N 
ATOM      4  H   UNL d   1      29.162 -16.205   0.891  0.00  0.00     0.169 HD
ENDROOT
BRANCH   2   5
ATOM      5  C   UNL d   1      28.215 -13.007   1.563  0.00  0.00     0.182 C 
BRANCH   5   6
ATOM      6  S   UNL d   1      26.919 -12.940   2.833  0.00  0.00    -0.121 SA
BRANCH   6   7
ATOM      7  C   UNL d   1      27.819 -13.353   4.333  0.00  0.00     0.001 A 
ATOM      8  C   UNL d   1      28.026 -14.645   4.829  0.00  0.00     0.020 A 
ATOM      9  C   UNL d   1      28.544 -14.827   6.125  0.00  0.00     0.026 A 
ATOM     10  C   UNL d   1      28.860 -13.729   6.936  0.00  0.00     0.049 A 
ATOM     11 CL   UNL d   1      29.415 -14.070   8.533  0.00  0.00    -0.083 Cl
ATOM     12  C   UNL d   1      28.697 -12.434   6.445  0.00  0.00     0.070 A 
ATOM     13  C   UNL d   1      28.177 -12.270   5.140  0.00  0.00     0.036 A 
BRANCH  12  14
ATOM     14  C   UNL d   1      29.017 -11.177   7.207  0.00  0.00     0.419 C 
ATOM     15  F   UNL d   1      28.546 -11.242   8.486  0.00  0.00    -0.166 F 
ATOM     16  F   UNL d   1      30.363 -10.985   7.326  0.00  0.00    -0.166 F 
ATOM     17  F   UNL d   1      28.527 -10.017   6.701  0.00  0.00    -0.166 F 
ENDBRANCH  12  14
ENDBRANCH   6   7
ENDBRANCH   5   6
ENDBRANCH   2   5
BRANCH   3  18
ATOM     18  C   UNL d   1      27.926 -15.288  -0.506  0.00  0.00     0.050 C 
ATOM     19  C   UNL d   1      28.089 -14.169  -1.355  0.00  0.00     0.033 C 
ATOM     20  C   UNL d   1      27.384 -14.068  -2.568  0.00  0.00     0.038 C 
ATOM     21  C   UNL d   1      26.545 -15.112  -2.957  0.00  0.00     0.103 C 
ATOM     22  C   UNL d   1      26.322 -16.182  -2.089  0.00  0.00     0.054 C 
ATOM     23  C   UNL d   1      26.962 -16.253  -0.835  0.00  0.00     0.076 C 
BRANCH  21  24
ATOM     24  N   UNL d   1      25.910 -15.125  -4.280  0.00  0.00    -0.116 N 
ATOM     25  O   UNL d   1      26.527 -15.655  -5.211  0.00  0.00    -0.532 OA
ATOM     26  O   UNL d   1      24.780 -14.624  -4.375  0.00  0.00    -0.532 OA
ENDBRANCH  21  24
BRANCH  23  27
ATOM     27  C   UNL d   1      26.472 -17.371   0.055  0.00  0.00     0.419 C 
ATOM     28  F   UNL d   1      25.123 -17.396   0.195  0.00  0.00    -0.166 F 
ATOM     29  F   UNL d   1      26.797 -18.581  -0.485  0.00  0.00    -0.166 F 
ATOM     30  F   UNL d   1      26.958 -17.362   1.323  0.00  0.00    -0.166 F 
ENDBRANCH  23  27
ENDBRANCH   3  18
TORSDOF 7
ENDMDL
MODEL 8
REMARK VINA RESULT:    -6.145      5.149      7.020
REMARK INTER + INTRA:          -9.211
REMARK INTER:                  -8.233
REMARK INTRA:                  -0.978
REMARK CONF_INDEPENDENT:        2.088
REMARK UNBOUND:                -0.978
REMARK  7 active torsions:
REMARK  status: ('A' for Active; 'I' for Inactive)
REMARK    1  A    between atoms: C_2  and  C_3 
REMARK       I    between atoms: C_2  and  N_16 
REMARK    2  A    between atoms: C_3  and  S_4 
REMARK    3  A    between atoms: S_4  and  C_5 
REMARK    4  A    between atoms: C_10  and  C_11 
REMARK    5  A    between atoms: N_16  and  C_17 
REMARK    6  A    between atoms: C_20  and  N_21 
REMARK    7  A    between atoms: C_25  and  C_26 
ROOT
ATOM      1  O   UNL d   1      29.149 -15.977  -0.148  0.00  0.00    -0.272 OA
ATOM      2  C   UNL d   1      28.119 -16.323  -0.742  0.00  0.00     0.231 C 
ATOM      3  N   UNL d   1      26.940 -16.287  -0.018  0.00  0.00    -0.326 N 
ATOM      4  H   UNL d   1      27.056 -15.840   0.891  0.00  0.00     0.169 HD
ENDROOT
BRANCH   2   5
ATOM      5  C   UNL d   1      28.081 -16.697  -2.237  0.00  0.00     0.182 C 
BRANCH   5   6
ATOM      6  S   UNL d   1      29.650 -16.413  -3.106  0.00  0.00    -0.121 SA
BRANCH   6   7
ATOM      7  C   UNL d   1      29.137 -15.451  -4.535  0.00  0.00     0.001 A 
ATOM      8  C   UNL d   1      29.753 -15.467  -5.792  0.00  0.00     0.020 A 
ATOM      9  C   UNL d   1      29.406 -14.505  -6.759  0.00  0.00     0.026 A 
ATOM     10  C   UNL d   1      28.445 -13.523  -6.487  0.00  0.00     0.049 A 
ATOM     11 CL   UNL d   1      28.154 -12.350  -7.717  0.00  0.00    -0.083 Cl
ATOM     12  C   UNL d   1      27.792 -13.514  -5.254  0.00  0.00     0.070 A 
ATOM     13  C   UNL d   1      28.153 -14.489  -4.295  0.00  0.00     0.036 A 
BRANCH  12  14
ATOM     14  C   UNL d   1      26.731 -12.527  -4.848  0.00  0.00     0.419 C 
ATOM     15  F   UNL d   1      27.250 -11.542  -4.059  0.00  0.00    -0.166 F 
ATOM     16  F   UNL d   1      26.199 -11.883  -5.926  0.00  0.00    -0.166 F 
ATOM     17  F   UNL d   1      25.672 -13.021  -4.159  0.00  0.00    -0.166 F 
ENDBRANCH  12  14
ENDBRANCH   6   7
ENDBRANCH   5   6
ENDBRANCH   2   5
BRANCH   3  18
ATOM     18  C   UNL d   1      25.669 -16.821  -0.306  0.00  0.00     0.050 C 
ATOM     19  C   UNL d   1      25.289 -17.994   0.387  0.00  0.00     0.033 C 
ATOM     20  C   UNL d   1      24.024 -18.576   0.193  0.00  0.00     0.038 C 
ATOM     21  C   UNL d   1      23.114 -17.957  -0.665  0.00  0.00     0.103 C 
ATOM     22  C   UNL d   1      23.510 -16.843  -1.407  0.00  0.00     0.054 C 
ATOM     23  C   UNL d   1      24.804 -16.301  -1.281  0.00  0.00     0.076 C 
BRANCH  21  24
ATOM     24  N   UNL d   1      21.732 -18.437  -0.781  0.00  0.00    -0.116 N 
ATOM     25  O   UNL d   1      20.836 -17.591  -0.900  0.00  0.00    -0.532 OA
ATOM     26  O   UNL d   1      21.552 -19.663  -0.779  0.00  0.00    -0.532 OA
ENDBRANCH  21  24
BRANCH  23  27
ATOM     27  C   UNL d   1      25.131 -15.221  -2.285  0.00  0.00     0.419 C 
ATOM     28  F   UNL d   1      26.082 -14.354  -1.853  0.00  0.00    -0.166 F 
ATOM     29  F   UNL d   1      25.644 -15.773  -3.422  0.00  0.00    -0.166 F 
ATOM     30  F   UNL d   1      24.087 -14.439  -2.661  0.00  0.00    -0.166 F 
ENDBRANCH  23  27
ENDBRANCH   3  18
TORSDOF 7
ENDMDL
MODEL 9
REMARK VINA RESULT:    -5.574      4.582      7.397
REMARK INTER + INTRA:          -9.159
REMARK INTER:                  -7.662
REMARK INTRA:                  -1.496
REMARK CONF_INDEPENDENT:        2.088
REMARK UNBOUND:                -1.496
REMARK  7 active torsions:
REMARK  status: ('A' for Active; 'I' for Inactive)
REMARK    1  A    between atoms: C_2  and  C_3 
REMARK       I    between atoms: C_2  and  N_16 
REMARK    2  A    between atoms: C_3  and  S_4 
REMARK    3  A    between atoms: S_4  and  C_5 
REMARK    4  A    between atoms: C_10  and  C_11 
REMARK    5  A    between atoms: N_16  and  C_17 
REMARK    6  A    between atoms: C_20  and  N_21 
REMARK    7  A    between atoms: C_25  and  C_26 
ROOT
ATOM      1  O   UNL d   1      28.056 -13.041  -3.666  0.00  0.00    -0.272 OA
ATOM      2  C   UNL d   1      27.364 -12.446  -2.829  0.00  0.00     0.231 C 
ATOM      3  N   UNL d   1      28.031 -11.608  -1.952  0.00  0.00    -0.326 N 
ATOM      4  H   UNL d   1      29.011 -11.483  -2.204  0.00  0.00     0.169 HD
ENDROOT
BRANCH   2   5
ATOM      5  C   UNL d   1      25.825 -12.528  -2.780  0.00  0.00     0.182 C 
BRANCH   5   6
ATOM      6  S   UNL d   1      25.134 -13.935  -3.696  0.00  0.00    -0.121 SA
BRANCH   6   7
ATOM      7  C   UNL d   1      25.420 -15.310  -2.575  0.00  0.00     0.001 A 
ATOM      8  C   UNL d   1      24.436 -15.980  -1.839  0.00  0.00     0.020 A 
ATOM      9  C   UNL d   1      24.806 -16.884  -0.826  0.00  0.00     0.026 A 
ATOM     10  C   UNL d   1      26.154 -17.131  -0.537  0.00  0.00     0.049 A 
ATOM     11 CL   UNL d   1      26.492 -18.199   0.774  0.00  0.00    -0.083 Cl
ATOM     12  C   UNL d   1      27.150 -16.503  -1.286  0.00  0.00     0.070 A 
ATOM     13  C   UNL d   1      26.759 -15.598  -2.300  0.00  0.00     0.036 A 
BRANCH  12  14
ATOM     14  C   UNL d   1      28.629 -16.698  -1.088  0.00  0.00     0.419 C 
ATOM     15  F   UNL d   1      29.069 -16.039   0.023  0.00  0.00    -0.166 F 
ATOM     16  F   UNL d   1      28.944 -18.009  -0.880  0.00  0.00    -0.166 F 
ATOM     17  F   UNL d   1      29.437 -16.285  -2.096  0.00  0.00    -0.166 F 
ENDBRANCH  12  14
ENDBRANCH   6   7
ENDBRANCH   5   6
ENDBRANCH   2   5
BRANCH   3  18
ATOM     18  C   UNL d   1      27.594 -10.985  -0.767  0.00  0.00     0.050 C 
ATOM     19  C   UNL d   1      27.559  -9.572  -0.755  0.00  0.00     0.033 C 
ATOM     20  C   UNL d   1      27.099  -8.864   0.370  0.00  0.00     0.038 C 
ATOM     21  C   UNL d   1      26.629  -9.574   1.475  0.00  0.00     0.103 C 
ATOM     22  C   UNL d   1      26.731 -10.966   1.498  0.00  0.00     0.054 C 
ATOM     23  C   UNL d   1      27.266 -11.680   0.408  0.00  0.00     0.076 C 
BRANCH  21  24
ATOM     24  N   UNL d   1      25.997  -8.887   2.607  0.00  0.00    -0.116 N 
ATOM     25  O   UNL d   1      25.617  -9.576   3.562  0.00  0.00    -0.532 OA
ATOM     26  O   UNL d   1      25.906  -7.652   2.546  0.00  0.00    -0.532 OA
ENDBRANCH  21  24
BRANCH  23  27
ATOM     27  C   UNL d   1      27.478 -13.153   0.667  0.00  0.00     0.419 C 
ATOM     28  F   UNL d   1      26.527 -13.941   0.106  0.00  0.00    -0.166 F 
ATOM     29  F   UNL d   1      28.655 -13.565   0.111  0.00  0.00    -0.166 F 
ATOM     30  F   UNL d   1      27.511 -13.516   1.974  0.00  0.00    -0.166 F 
ENDBRANCH  23  27
ENDBRANCH   3  18
TORSDOF 7
ENDMDL
