MODEL 1
REMARK VINA RESULT:    -8.329      0.000      0.000
REMARK INTER + INTRA:         -15.941
REMARK INTER:                 -11.908
REMARK INTRA:                  -4.032
REMARK CONF_INDEPENDENT:        3.580
REMARK UNBOUND:                -4.032
REMARK  12 active torsions:
REMARK  status: ('A' for Active; 'I' for Inactive)
REMARK    1  A    between atoms: C_7  and  O_8 
REMARK    2  A    between atoms: O_8  and  C_9 
REMARK    3  A    between atoms: C_10  and  C_9 
REMARK    4  A    between atoms: C_10  and  C_12 
REMARK    5  A    between atoms: C_10  and  O_11 
REMARK    6  A    between atoms: N_13  and  C_12 
REMARK    7  A    between atoms: N_13  and  C_32 
REMARK    8  A    between atoms: N_13  and  C_14 
REMARK    9  A    between atoms: C_14  and  C_15 
REMARK   10  A    between atoms: C_19  and  C_20 
REMARK   11  A    between atoms: C_20  and  O_22 
REMARK   12  A    between atoms: O_22  and  C_23 
ROOT
ATOM      1  C   UNL d   1      28.099 -14.561   1.420  0.00  0.00     0.313 C 
ENDROOT
BRANCH   1   2
ATOM      2  C   UNL d   1      27.860 -14.094   2.866  0.00  0.00     0.134 C 
ATOM      3  N   UNL d   1      27.583 -12.846   3.117  0.00  0.00    -0.225 NA
ATOM      4  C   UNL d   1      27.952 -12.453   4.380  0.00  0.00     0.116 C 
ATOM      5  S   UNL d   1      28.382 -10.838   4.735  0.00  0.00    -0.063 SA
ATOM      6  C   UNL d   1      28.261 -13.276   5.435  0.00  0.00     0.075 C 
ATOM      7  C   UNL d   1      28.684 -11.185   6.391  0.00  0.00     0.089 C 
ATOM      8  C   UNL d   1      28.521 -12.544   6.650  0.00  0.00    -0.020 C 
ATOM      9  C   UNL d   1      28.538 -13.216   7.980  0.00  0.00     0.051 C 
ATOM     10  C   UNL d   1      28.207 -14.705   5.181  0.00  0.00     0.260 C 
ATOM     11  O   UNL d   1      28.246 -15.575   6.037  0.00  0.00    -0.267 OA
ATOM     12  N   UNL d   1      28.124 -15.031   3.841  0.00  0.00    -0.309 N 
ATOM     13  H   UNL d   1      28.145 -16.022   3.649  0.00  0.00     0.170 HD
BRANCH   7  14
ATOM     14  C   UNL d   1      28.981 -10.035   7.244  0.00  0.00     0.301 C 
ATOM     15  O   UNL d   1      29.223  -8.907   6.853  0.00  0.00    -0.259 OA
BRANCH  14  16
ATOM     16  O   UNL d   1      28.903 -10.385   8.561  0.00  0.00    -0.312 OA
BRANCH  16  17
ATOM     17  C   UNL d   1      30.128 -10.396   9.315  0.00  0.00     0.124 C 
ATOM     18  C   UNL d   1      31.288 -10.858   8.440  0.00  0.00     0.040 C 
ATOM     19  C   UNL d   1      30.406  -8.967   9.788  0.00  0.00     0.040 C 
ENDBRANCH  16  17
ENDBRANCH  14  16
ENDBRANCH   7  14
ENDBRANCH   1   2
BRANCH   1  20
ATOM     20  N   UNL d   1      29.489 -15.200   1.131  0.00  0.00    -0.058 N 
ATOM     21  H   UNL d   1      29.363 -16.201   1.355  0.00  0.00     0.280 HD
BRANCH  20  22
ATOM     22  C   UNL d   1      30.619 -14.617   1.978  0.00  0.00     0.180 C 
ATOM     23  C   UNL d   1      31.840 -15.523   1.943  0.00  0.00     0.039 C 
ATOM     24  C   UNL d   1      31.012 -13.228   1.461  0.00  0.00     0.039 C 
ENDBRANCH  20  22
BRANCH  20  25
ATOM     25  C   UNL d   1      29.919 -15.137  -0.343  0.00  0.00     0.269 C 
BRANCH  25  26
ATOM     26  C   UNL d   1      29.870 -16.484  -0.999  0.00  0.00     0.168 C 
BRANCH  26  27
ATOM     27  O   UNL d   1      30.473 -17.488  -0.167  0.00  0.00    -0.392 OA
ATOM     28  H   UNL d   1      29.818 -17.971   0.360  0.00  0.00     0.210 HD
ENDBRANCH  26  27
BRANCH  26  29
ATOM     29  C   UNL d   1      28.510 -16.993  -1.216  0.00  0.00     0.209 C 
BRANCH  29  30
ATOM     30  O   UNL d   1      27.782 -17.172  -0.043  0.00  0.00    -0.348 OA
BRANCH  30  31
ATOM     31  C   UNL d   1      26.432 -17.129  -0.283  0.00  0.00     0.074 A 
ATOM     32  C   UNL d   1      25.792 -18.261   0.230  0.00  0.00     0.037 A 
ATOM     33  C   UNL d   1      24.427 -18.430   0.054  0.00  0.00     0.003 A 
ATOM     34  C   UNL d   1      23.700 -17.470  -0.640  0.00  0.00     0.001 A 
ATOM     35  C   UNL d   1      24.327 -16.335  -1.144  0.00  0.00     0.009 A 
ATOM     36  C   UNL d   1      25.696 -16.127  -0.971  0.00  0.00    -0.029 A 
ATOM     37  C   UNL d   1      26.223 -14.830  -1.548  0.00  0.00     0.051 C 
ENDBRANCH  30  31
ENDBRANCH  29  30
ENDBRANCH  26  29
ENDBRANCH  25  26
ENDBRANCH  20  25
ENDBRANCH   1  20
TORSDOF 12
ENDMDL
MODEL 2
REMARK VINA RESULT:    -8.036      5.848      8.724
REMARK INTER + INTRA:         -16.327
REMARK INTER:                 -11.615
REMARK INTRA:                  -4.712
REMARK CONF_INDEPENDENT:        3.580
REMARK UNBOUND:                -4.712
REMARK  12 active torsions:
REMARK  status: ('A' for Active; 'I' for Inactive)
REMARK    1  A    between atoms: C_7  and  O_8 
REMARK    2  A    between atoms: O_8  and  C_9 
REMARK    3  A    between atoms: C_10  and  C_9 
REMARK    4  A    between atoms: C_10  and  C_12 
REMARK    5  A    between atoms: C_10  and  O_11 
REMARK    6  A    between atoms: N_13  and  C_12 
REMARK    7  A    between atoms: N_13  and  C_32 
REMARK    8  A    between atoms: N_13  and  C_14 
REMARK    9  A    between atoms: C_14  and  C_15 
REMARK   10  A    between atoms: C_19  and  C_20 
REMARK   11  A    between atoms: C_20  and  O_22 
REMARK   12  A    between atoms: O_22  and  C_23 
ROOT
ATOM      1  C   UNL d   1      31.011 -16.482   0.606  0.00  0.00     0.313 C 
ENDROOT
BRANCH   1   2
ATOM      2  C   UNL d   1      29.712 -16.694  -0.191  0.00  0.00     0.134 C 
ATOM      3  N   UNL d   1      29.746 -16.804  -1.488  0.00  0.00    -0.225 NA
ATOM      4  C   UNL d   1      28.576 -16.419  -2.095  0.00  0.00     0.116 C 
ATOM      5  S   UNL d   1      28.547 -15.782  -3.680  0.00  0.00    -0.063 SA
ATOM      6  C   UNL d   1      27.356 -16.255  -1.487  0.00  0.00     0.075 C 
ATOM      7  C   UNL d   1      26.840 -15.575  -3.664  0.00  0.00     0.089 C 
ATOM      8  C   UNL d   1      26.310 -15.930  -2.426  0.00  0.00    -0.020 C 
ATOM      9  C   UNL d   1      24.869 -16.041  -2.062  0.00  0.00     0.051 C 
ATOM     10  C   UNL d   1      27.305 -16.497  -0.056  0.00  0.00     0.260 C 
ATOM     11  O   UNL d   1      26.284 -16.601   0.605  0.00  0.00    -0.267 OA
ATOM     12  N   UNL d   1      28.549 -16.587   0.539  0.00  0.00    -0.309 N 
ATOM     13  H   UNL d   1      28.525 -16.698   1.542  0.00  0.00     0.170 HD
BRANCH   7  14
ATOM     14  C   UNL d   1      26.235 -15.146  -4.924  0.00  0.00     0.301 C 
ATOM     15  O   UNL d   1      26.635 -15.437  -6.037  0.00  0.00    -0.259 OA
BRANCH  14  16
ATOM     16  O   UNL d   1      25.113 -14.405  -4.685  0.00  0.00    -0.312 OA
BRANCH  16  17
ATOM     17  C   UNL d   1      25.282 -12.986  -4.521  0.00  0.00     0.124 C 
ATOM     18  C   UNL d   1      25.530 -12.645  -3.055  0.00  0.00     0.040 C 
ATOM     19  C   UNL d   1      26.501 -12.556  -5.340  0.00  0.00     0.040 C 
ENDBRANCH  16  17
ENDBRANCH  14  16
ENDBRANCH   7  14
ENDBRANCH   1   2
BRANCH   1  20
ATOM     20  N   UNL d   1      31.871 -17.755   0.860  0.00  0.00    -0.058 N 
ATOM     21  H   UNL d   1      31.182 -18.522   0.922  0.00  0.00     0.280 HD
BRANCH  20  22
ATOM     22  C   UNL d   1      32.692 -17.692   2.148  0.00  0.00     0.180 C 
ATOM     23  C   UNL d   1      33.512 -18.960   2.325  0.00  0.00     0.039 C 
ATOM     24  C   UNL d   1      33.636 -16.484   2.121  0.00  0.00     0.039 C 
ENDBRANCH  20  22
BRANCH  20  25
ATOM     25  C   UNL d   1      32.821 -18.116  -0.292  0.00  0.00     0.269 C 
BRANCH  25  26
ATOM     26  C   UNL d   1      32.179 -19.047  -1.277  0.00  0.00     0.168 C 
BRANCH  26  27
ATOM     27  O   UNL d   1      30.822 -19.337  -0.907  0.00  0.00    -0.392 OA
ATOM     28  H   UNL d   1      30.180 -18.920  -1.503  0.00  0.00     0.210 HD
ENDBRANCH  26  27
BRANCH  26  29
ATOM     29  C   UNL d   1      32.052 -18.488  -2.628  0.00  0.00     0.209 C 
BRANCH  29  30
ATOM     30  O   UNL d   1      30.768 -18.582  -3.158  0.00  0.00    -0.348 OA
BRANCH  30  31
ATOM     31  C   UNL d   1      30.800 -18.948  -4.480  0.00  0.00     0.074 A 
ATOM     32  C   UNL d   1      30.831 -17.825  -5.314  0.00  0.00     0.037 A 
ATOM     33  C   UNL d   1      30.824 -17.980  -6.692  0.00  0.00     0.003 A 
ATOM     34  C   UNL d   1      30.781 -19.257  -7.239  0.00  0.00     0.001 A 
ATOM     35  C   UNL d   1      30.763 -20.379  -6.417  0.00  0.00     0.009 A 
ATOM     36  C   UNL d   1      30.784 -20.259  -5.027  0.00  0.00    -0.029 A 
ATOM     37  C   UNL d   1      30.793 -21.571  -4.273  0.00  0.00     0.051 C 
ENDBRANCH  30  31
ENDBRANCH  29  30
ENDBRANCH  26  29
ENDBRANCH  25  26
ENDBRANCH  20  25
ENDBRANCH   1  20
TORSDOF 12
ENDMDL
MODEL 3
REMARK VINA RESULT:    -7.754      7.405     10.557
REMARK INTER + INTRA:         -15.580
REMARK INTER:                 -11.334
REMARK INTRA:                  -4.246
REMARK CONF_INDEPENDENT:        3.580
REMARK UNBOUND:                -4.246
REMARK  12 active torsions:
REMARK  status: ('A' for Active; 'I' for Inactive)
REMARK    1  A    between atoms: C_7  and  O_8 
REMARK    2  A    between atoms: O_8  and  C_9 
REMARK    3  A    between atoms: C_10  and  C_9 
REMARK    4  A    between atoms: C_10  and  C_12 
REMARK    5  A    between atoms: C_10  and  O_11 
REMARK    6  A    between atoms: N_13  and  C_12 
REMARK    7  A    between atoms: N_13  and  C_32 
REMARK    8  A    between atoms: N_13  and  C_14 
REMARK    9  A    between atoms: C_14  and  C_15 
REMARK   10  A    between atoms: C_19  and  C_20 
REMARK   11  A    between atoms: C_20  and  O_22 
REMARK   12  A    between atoms: O_22  and  C_23 
ROOT
ATOM      1  C   UNL d   1      26.572 -11.358  -6.063  0.00  0.00     0.313 C 
ENDROOT
BRANCH   1   2
ATOM      2  C   UNL d   1      27.373 -12.634  -6.372  0.00  0.00     0.134 C 
ATOM      3  N   UNL d   1      27.076 -13.757  -5.782  0.00  0.00    -0.225 NA
ATOM      4  C   UNL d   1      28.142 -14.616  -5.685  0.00  0.00     0.116 C 
ATOM      5  S   UNL d   1      28.274 -15.753  -4.416  0.00  0.00    -0.063 SA
ATOM      6  C   UNL d   1      29.318 -14.543  -6.390  0.00  0.00     0.075 C 
ATOM      7  C   UNL d   1      29.773 -16.365  -4.996  0.00  0.00     0.089 C 
ATOM      8  C   UNL d   1      30.197 -15.653  -6.116  0.00  0.00    -0.020 C 
ATOM      9  C   UNL d   1      31.356 -15.970  -6.999  0.00  0.00     0.051 C 
ATOM     10  C   UNL d   1      29.450 -13.434  -7.319  0.00  0.00     0.260 C 
ATOM     11  O   UNL d   1      30.322 -13.325  -8.167  0.00  0.00    -0.267 OA
ATOM     12  N   UNL d   1      28.490 -12.454  -7.158  0.00  0.00    -0.309 N 
ATOM     13  H   UNL d   1      28.607 -11.651  -7.759  0.00  0.00     0.170 HD
BRANCH   7  14
ATOM     14  C   UNL d   1      30.304 -17.532  -4.295  0.00  0.00     0.301 C 
ATOM     15  O   UNL d   1      30.145 -17.781  -3.113  0.00  0.00    -0.259 OA
BRANCH  14  16
ATOM     16  O   UNL d   1      30.972 -18.347  -5.164  0.00  0.00    -0.312 OA
BRANCH  16  17
ATOM     17  C   UNL d   1      30.404 -19.643  -5.422  0.00  0.00     0.124 C 
ATOM     18  C   UNL d   1      30.456 -19.960  -6.913  0.00  0.00     0.040 C 
ATOM     19  C   UNL d   1      31.234 -20.684  -4.667  0.00  0.00     0.040 C 
ENDBRANCH  16  17
ENDBRANCH  14  16
ENDBRANCH   7  14
ENDBRANCH   1   2
BRANCH   1  20
ATOM     20  N   UNL d   1      25.723 -11.383  -4.758  0.00  0.00    -0.058 N 
ATOM     21  H   UNL d   1      24.826 -11.810  -5.044  0.00  0.00     0.280 HD
BRANCH  20  22
ATOM     22  C   UNL d   1      25.471  -9.998  -4.165  0.00  0.00     0.180 C 
ATOM     23  C   UNL d   1      26.716  -9.480  -3.462  0.00  0.00     0.039 C 
ATOM     24  C   UNL d   1      25.072  -9.009  -5.268  0.00  0.00     0.039 C 
ENDBRANCH  20  22
BRANCH  20  25
ATOM     25  C   UNL d   1      26.296 -12.278  -3.649  0.00  0.00     0.269 C 
BRANCH  25  26
ATOM     26  C   UNL d   1      25.333 -13.352  -3.242  0.00  0.00     0.168 C 
BRANCH  26  27
ATOM     27  O   UNL d   1      24.779 -14.014  -4.390  0.00  0.00    -0.392 OA
ATOM     28  H   UNL d   1      25.392 -14.661  -4.773  0.00  0.00     0.210 HD
ENDBRANCH  26  27
BRANCH  26  29
ATOM     29  C   UNL d   1      25.947 -14.446  -2.481  0.00  0.00     0.209 C 
BRANCH  29  30
ATOM     30  O   UNL d   1      25.543 -15.714  -2.890  0.00  0.00    -0.348 OA
BRANCH  30  31
ATOM     31  C   UNL d   1      25.405 -16.562  -1.820  0.00  0.00     0.074 A 
ATOM     32  C   UNL d   1      24.070 -16.937  -1.642  0.00  0.00     0.037 A 
ATOM     33  C   UNL d   1      23.712 -17.761  -0.585  0.00  0.00     0.003 A 
ATOM     34  C   UNL d   1      24.687 -18.206   0.299  0.00  0.00     0.001 A 
ATOM     35  C   UNL d   1      26.019 -17.847   0.123  0.00  0.00     0.009 A 
ATOM     36  C   UNL d   1      26.416 -17.032  -0.939  0.00  0.00    -0.029 A 
ATOM     37  C   UNL d   1      27.903 -16.758  -1.013  0.00  0.00     0.051 C 
ENDBRANCH  30  31
ENDBRANCH  29  30
ENDBRANCH  26  29
ENDBRANCH  25  26
ENDBRANCH  20  25
ENDBRANCH   1  20
TORSDOF 12
ENDMDL
MODEL 4
REMARK VINA RESULT:    -7.403      3.420      7.922
REMARK INTER + INTRA:         -16.214
REMARK INTER:                 -10.982
REMARK INTRA:                  -5.231
REMARK CONF_INDEPENDENT:        3.580
REMARK UNBOUND:                -5.231
REMARK  12 active torsions:
REMARK  status: ('A' for Active; 'I' for Inactive)
REMARK    1  A    between atoms: C_7  and  O_8 
REMARK    2  A    between atoms: O_8  and  C_9 
REMARK    3  A    between atoms: C_10  and  C_9 
REMARK    4  A    between atoms: C_10  and  C_12 
REMARK    5  A    between atoms: C_10  and  O_11 
REMARK    6  A    between atoms: N_13  and  C_12 
REMARK    7  A    between atoms: N_13  and  C_32 
REMARK    8  A    between atoms: N_13  and  C_14 
REMARK    9  A    between atoms: C_14  and  C_15 
REMARK   10  A    between atoms: C_19  and  C_20 
REMARK   11  A    between atoms: C_20  and  O_22 
REMARK   12  A    between atoms: O_22  and  C_23 
ROOT
ATOM      1  C   UNL d   1      28.777 -13.771   2.722  0.00  0.00     0.313 C 
ENDROOT
BRANCH   1   2
ATOM      2  C   UNL d   1      28.293 -14.494   1.453  0.00  0.00     0.134 C 
ATOM      3  N   UNL d   1      28.244 -13.864   0.314  0.00  0.00    -0.225 NA
ATOM      4  C   UNL d   1      27.310 -14.380  -0.550  0.00  0.00     0.116 C 
ATOM      5  S   UNL d   1      26.533 -13.412  -1.724  0.00  0.00    -0.063 SA
ATOM      6  C   UNL d   1      26.701 -15.607  -0.458  0.00  0.00     0.075 C 
ATOM      7  C   UNL d   1      25.599 -14.725  -2.322  0.00  0.00     0.089 C 
ATOM      8  C   UNL d   1      25.834 -15.879  -1.579  0.00  0.00    -0.020 C 
ATOM      9  C   UNL d   1      25.343 -17.256  -1.872  0.00  0.00     0.051 C 
ATOM     10  C   UNL d   1      27.073 -16.433   0.677  0.00  0.00     0.260 C 
ATOM     11  O   UNL d   1      26.797 -17.615   0.809  0.00  0.00    -0.267 OA
ATOM     12  N   UNL d   1      27.775 -15.755   1.654  0.00  0.00    -0.309 N 
ATOM     13  H   UNL d   1      27.988 -16.304   2.474  0.00  0.00     0.170 HD
BRANCH   7  14
ATOM     14  C   UNL d   1      24.794 -14.451  -3.511  0.00  0.00     0.301 C 
ATOM     15  O   UNL d   1      23.674 -13.970  -3.513  0.00  0.00    -0.259 OA
BRANCH  14  16
ATOM     16  O   UNL d   1      25.492 -14.764  -4.642  0.00  0.00    -0.312 OA
BRANCH  16  17
ATOM     17  C   UNL d   1      26.781 -14.147  -4.813  0.00  0.00     0.124 C 
ATOM     18  C   UNL d   1      27.557 -14.837  -5.931  0.00  0.00     0.040 C 
ATOM     19  C   UNL d   1      26.559 -12.683  -5.198  0.00  0.00     0.040 C 
ENDBRANCH  16  17
ENDBRANCH  14  16
ENDBRANCH   7  14
ENDBRANCH   1   2
BRANCH   1  20
ATOM     20  N   UNL d   1      29.889 -14.493   3.537  0.00  0.00    -0.058 N 
ATOM     21  H   UNL d   1      29.891 -15.459   3.169  0.00  0.00     0.280 HD
BRANCH  20  22
ATOM     22  C   UNL d   1      29.630 -14.513   5.042  0.00  0.00     0.180 C 
ATOM     23  C   UNL d   1      30.092 -13.214   5.685  0.00  0.00     0.039 C 
ATOM     24  C   UNL d   1      28.135 -14.706   5.325  0.00  0.00     0.039 C 
ENDBRANCH  20  22
BRANCH  20  25
ATOM     25  C   UNL d   1      31.303 -13.938   3.305  0.00  0.00     0.269 C 
BRANCH  25  26
ATOM     26  C   UNL d   1      32.079 -14.771   2.329  0.00  0.00     0.168 C 
BRANCH  26  27
ATOM     27  O   UNL d   1      31.893 -16.173   2.581  0.00  0.00    -0.392 OA
ATOM     28  H   UNL d   1      31.308 -16.589   1.929  0.00  0.00     0.210 HD
ENDBRANCH  26  27
BRANCH  26  29
ATOM     29  C   UNL d   1      31.645 -14.615   0.935  0.00  0.00     0.209 C 
BRANCH  29  30
ATOM     30  O   UNL d   1      31.771 -15.772   0.172  0.00  0.00    -0.348 OA
BRANCH  30  31
ATOM     31  C   UNL d   1      30.938 -15.743  -0.918  0.00  0.00     0.074 A 
ATOM     32  C   UNL d   1      30.940 -14.481  -1.520  0.00  0.00     0.037 A 
ATOM     33  C   UNL d   1      30.129 -14.232  -2.617  0.00  0.00     0.003 A 
ATOM     34  C   UNL d   1      29.309 -15.240  -3.109  0.00  0.00     0.001 A 
ATOM     35  C   UNL d   1      29.310 -16.502  -2.523  0.00  0.00     0.009 A 
ATOM     36  C   UNL d   1      30.126 -16.791  -1.428  0.00  0.00    -0.029 A 
ATOM     37  C   UNL d   1      30.037 -18.216  -0.924  0.00  0.00     0.051 C 
ENDBRANCH  30  31
ENDBRANCH  29  30
ENDBRANCH  26  29
ENDBRANCH  25  26
ENDBRANCH  20  25
ENDBRANCH   1  20
TORSDOF 12
ENDMDL
MODEL 5
REMARK VINA RESULT:    -7.089      3.400      7.810
REMARK INTER + INTRA:         -16.039
REMARK INTER:                 -10.668
REMARK INTRA:                  -5.371
REMARK CONF_INDEPENDENT:        3.580
REMARK UNBOUND:                -5.371
REMARK  12 active torsions:
REMARK  status: ('A' for Active; 'I' for Inactive)
REMARK    1  A    between atoms: C_7  and  O_8 
REMARK    2  A    between atoms: O_8  and  C_9 
REMARK    3  A    between atoms: C_10  and  C_9 
REMARK    4  A    between atoms: C_10  and  C_12 
REMARK    5  A    between atoms: C_10  and  O_11 
REMARK    6  A    between atoms: N_13  and  C_12 
REMARK    7  A    between atoms: N_13  and  C_32 
REMARK    8  A    between atoms: N_13  and  C_14 
REMARK    9  A    between atoms: C_14  and  C_15 
REMARK   10  A    between atoms: C_19  and  C_20 
REMARK   11  A    between atoms: C_20  and  O_22 
REMARK   12  A    between atoms: O_22  and  C_23 
ROOT
ATOM      1  C   UNL d   1      30.199 -14.453   2.293  0.00  0.00     0.313 C 
ENDROOT
BRANCH   1   2
ATOM      2  C   UNL d   1      30.332 -14.871   0.819  0.00  0.00     0.134 C 
ATOM      3  N   UNL d   1      30.162 -13.996  -0.132  0.00  0.00    -0.225 NA
ATOM      4  C   UNL d   1      29.744 -14.556  -1.314  0.00  0.00     0.116 C 
ATOM      5  S   UNL d   1      28.789 -13.691  -2.435  0.00  0.00    -0.063 SA
ATOM      6  C   UNL d   1      29.802 -15.885  -1.654  0.00  0.00     0.075 C 
ATOM      7  C   UNL d   1      28.716 -15.013  -3.532  0.00  0.00     0.089 C 
ATOM      8  C   UNL d   1      29.364 -16.129  -3.007  0.00  0.00    -0.020 C 
ATOM      9  C   UNL d   1      29.656 -17.413  -3.705  0.00  0.00     0.051 C 
ATOM     10  C   UNL d   1      30.346 -16.789  -0.655  0.00  0.00     0.260 C 
ATOM     11  O   UNL d   1      30.662 -17.951  -0.854  0.00  0.00    -0.267 OA
ATOM     12  N   UNL d   1      30.468 -16.224   0.600  0.00  0.00    -0.309 N 
ATOM     13  H   UNL d   1      30.791 -16.860   1.315  0.00  0.00     0.170 HD
BRANCH   7  14
ATOM     14  C   UNL d   1      28.076 -14.745  -4.819  0.00  0.00     0.301 C 
ATOM     15  O   UNL d   1      28.207 -15.413  -5.829  0.00  0.00    -0.259 OA
BRANCH  14  16
ATOM     16  O   UNL d   1      27.258 -13.655  -4.726  0.00  0.00    -0.312 OA
BRANCH  16  17
ATOM     17  C   UNL d   1      25.855 -13.900  -4.521  0.00  0.00     0.124 C 
ATOM     18  C   UNL d   1      25.593 -15.393  -4.351  0.00  0.00     0.040 C 
ATOM     19  C   UNL d   1      25.430 -13.176  -3.241  0.00  0.00     0.040 C 
ENDBRANCH  16  17
ENDBRANCH  14  16
ENDBRANCH   7  14
ENDBRANCH   1   2
BRANCH   1  20
ATOM     20  N   UNL d   1      28.778 -14.011   2.752  0.00  0.00    -0.058 N 
ATOM     21  H   UNL d   1      28.740 -13.002   2.530  0.00  0.00     0.280 HD
BRANCH  20  22
ATOM     22  C   UNL d   1      28.523 -14.222   4.244  0.00  0.00     0.180 C 
ATOM     23  C   UNL d   1      29.803 -14.638   4.954  0.00  0.00     0.039 C 
ATOM     24  C   UNL d   1      27.993 -12.934   4.883  0.00  0.00     0.039 C 
ENDBRANCH  20  22
BRANCH  20  25
ATOM     25  C   UNL d   1      27.630 -14.671   1.975  0.00  0.00     0.269 C 
BRANCH  25  26
ATOM     26  C   UNL d   1      26.925 -13.695   1.080  0.00  0.00     0.168 C 
BRANCH  26  27
ATOM     27  O   UNL d   1      27.823 -12.674   0.618  0.00  0.00    -0.392 OA
ATOM     28  H   UNL d   1      28.622 -13.043   0.211  0.00  0.00     0.210 HD
ENDBRANCH  26  27
BRANCH  26  29
ATOM     29  C   UNL d   1      26.415 -14.288  -0.163  0.00  0.00     0.209 C 
BRANCH  29  30
ATOM     30  O   UNL d   1      26.911 -15.562  -0.424  0.00  0.00    -0.348 OA
BRANCH  30  31
ATOM     31  C   UNL d   1      25.898 -16.485  -0.496  0.00  0.00     0.074 A 
ATOM     32  C   UNL d   1      24.772 -15.950  -1.128  0.00  0.00     0.037 A 
ATOM     33  C   UNL d   1      23.621 -16.712  -1.264  0.00  0.00     0.003 A 
ATOM     34  C   UNL d   1      23.592 -18.007  -0.762  0.00  0.00     0.001 A 
ATOM     35  C   UNL d   1      24.712 -18.551  -0.141  0.00  0.00     0.009 A 
ATOM     36  C   UNL d   1      25.891 -17.817  -0.003  0.00  0.00    -0.029 A 
ATOM     37  C   UNL d   1      27.030 -18.559   0.664  0.00  0.00     0.051 C 
ENDBRANCH  30  31
ENDBRANCH  29  30
ENDBRANCH  26  29
ENDBRANCH  25  26
ENDBRANCH  20  25
ENDBRANCH   1  20
TORSDOF 12
ENDMDL
MODEL 6
REMARK VINA RESULT:    -6.650      3.657      8.818
REMARK INTER + INTRA:         -15.705
REMARK INTER:                 -10.229
REMARK INTRA:                  -5.476
REMARK CONF_INDEPENDENT:        3.580
REMARK UNBOUND:                -5.476
REMARK  12 active torsions:
REMARK  status: ('A' for Active; 'I' for Inactive)
REMARK    1  A    between atoms: C_7  and  O_8 
REMARK    2  A    between atoms: O_8  and  C_9 
REMARK    3  A    between atoms: C_10  and  C_9 
REMARK    4  A    between atoms: C_10  and  C_12 
REMARK    5  A    between atoms: C_10  and  O_11 
REMARK    6  A    between atoms: N_13  and  C_12 
REMARK    7  A    between atoms: N_13  and  C_32 
REMARK    8  A    between atoms: N_13  and  C_14 
REMARK    9  A    between atoms: C_14  and  C_15 
REMARK   10  A    between atoms: C_19  and  C_20 
REMARK   11  A    between atoms: C_20  and  O_22 
REMARK   12  A    between atoms: O_22  and  C_23 
ROOT
ATOM      1  C   UNL d   1      28.029 -14.549   2.728  0.00  0.00     0.313 C 
ENDROOT
BRANCH   1   2
ATOM      2  C   UNL d   1      28.356 -14.610   1.226  0.00  0.00     0.134 C 
ATOM      3  N   UNL d   1      27.681 -13.890   0.375  0.00  0.00    -0.225 NA
ATOM      4  C   UNL d   1      27.655 -14.427  -0.888  0.00  0.00     0.116 C 
ATOM      5  S   UNL d   1      26.352 -14.157  -1.958  0.00  0.00    -0.063 SA
ATOM      6  C   UNL d   1      28.485 -15.406  -1.377  0.00  0.00     0.075 C 
ATOM      7  C   UNL d   1      27.057 -15.108  -3.205  0.00  0.00     0.089 C 
ATOM      8  C   UNL d   1      28.250 -15.682  -2.773  0.00  0.00    -0.020 C 
ATOM      9  C   UNL d   1      29.235 -16.441  -3.597  0.00  0.00     0.051 C 
ATOM     10  C   UNL d   1      29.478 -15.935  -0.458  0.00  0.00     0.260 C 
ATOM     11  O   UNL d   1      30.418 -16.647  -0.771  0.00  0.00    -0.267 OA
ATOM     12  N   UNL d   1      29.265 -15.578   0.859  0.00  0.00    -0.309 N 
ATOM     13  H   UNL d   1      29.916 -15.987   1.514  0.00  0.00     0.170 HD
BRANCH   7  14
ATOM     14  C   UNL d   1      26.358 -15.104  -4.488  0.00  0.00     0.301 C 
ATOM     15  O   UNL d   1      25.155 -14.978  -4.640  0.00  0.00    -0.259 OA
BRANCH  14  16
ATOM     16  O   UNL d   1      27.249 -15.212  -5.517  0.00  0.00    -0.312 OA
BRANCH  16  17
ATOM     17  C   UNL d   1      28.183 -14.133  -5.697  0.00  0.00     0.124 C 
ATOM     18  C   UNL d   1      28.963 -14.313  -6.995  0.00  0.00     0.040 C 
ATOM     19  C   UNL d   1      27.389 -12.827  -5.775  0.00  0.00     0.040 C 
ENDBRANCH  16  17
ENDBRANCH  14  16
ENDBRANCH   7  14
ENDBRANCH   1   2
BRANCH   1  20
ATOM     20  N   UNL d   1      29.244 -14.656   3.696  0.00  0.00    -0.058 N 
ATOM     21  H   UNL d   1      29.664 -15.575   3.478  0.00  0.00     0.280 HD
BRANCH  20  22
ATOM     22  C   UNL d   1      28.856 -14.601   5.173  0.00  0.00     0.180 C 
ATOM     23  C   UNL d   1      29.810 -13.703   5.945  0.00  0.00     0.039 C 
ATOM     24  C   UNL d   1      27.428 -14.066   5.331  0.00  0.00     0.039 C 
ENDBRANCH  20  22
BRANCH  20  25
ATOM     25  C   UNL d   1      30.340 -13.608   3.452  0.00  0.00     0.269 C 
BRANCH  25  26
ATOM     26  C   UNL d   1      31.618 -14.234   2.976  0.00  0.00     0.168 C 
BRANCH  26  27
ATOM     27  O   UNL d   1      31.518 -15.666   2.960  0.00  0.00    -0.392 OA
ATOM     28  H   UNL d   1      31.182 -16.002   2.115  0.00  0.00     0.210 HD
ENDBRANCH  26  27
BRANCH  26  29
ATOM     29  C   UNL d   1      31.964 -13.900   1.590  0.00  0.00     0.209 C 
BRANCH  29  30
ATOM     30  O   UNL d   1      31.802 -14.957   0.699  0.00  0.00    -0.348 OA
BRANCH  30  31
ATOM     31  C   UNL d   1      32.524 -14.755  -0.450  0.00  0.00     0.074 A 
ATOM     32  C   UNL d   1      33.719 -15.483  -0.429  0.00  0.00     0.037 A 
ATOM     33  C   UNL d   1      34.614 -15.382  -1.484  0.00  0.00     0.003 A 
ATOM     34  C   UNL d   1      34.321 -14.551  -2.557  0.00  0.00     0.001 A 
ATOM     35  C   UNL d   1      33.129 -13.833  -2.592  0.00  0.00     0.009 A 
ATOM     36  C   UNL d   1      32.200 -13.923  -1.554  0.00  0.00    -0.029 A 
ATOM     37  C   UNL d   1      30.940 -13.107  -1.754  0.00  0.00     0.051 C 
ENDBRANCH  30  31
ENDBRANCH  29  30
ENDBRANCH  26  29
ENDBRANCH  25  26
ENDBRANCH  20  25
ENDBRANCH   1  20
TORSDOF 12
ENDMDL
MODEL 7
REMARK VINA RESULT:    -6.542      6.923      9.862
REMARK INTER + INTRA:         -15.750
REMARK INTER:                 -10.121
REMARK INTRA:                  -5.629
REMARK CONF_INDEPENDENT:        3.580
REMARK UNBOUND:                -5.629
REMARK  12 active torsions:
REMARK  status: ('A' for Active; 'I' for Inactive)
REMARK    1  A    between atoms: C_7  and  O_8 
REMARK    2  A    between atoms: O_8  and  C_9 
REMARK    3  A    between atoms: C_10  and  C_9 
REMARK    4  A    between atoms: C_10  and  C_12 
REMARK    5  A    between atoms: C_10  and  O_11 
REMARK    6  A    between atoms: N_13  and  C_12 
REMARK    7  A    between atoms: N_13  and  C_32 
REMARK    8  A    between atoms: N_13  and  C_14 
REMARK    9  A    between atoms: C_14  and  C_15 
REMARK   10  A    between atoms: C_19  and  C_20 
REMARK   11  A    between atoms: C_20  and  O_22 
REMARK   12  A    between atoms: O_22  and  C_23 
ROOT
ATOM      1  C   UNL d   1      28.746 -14.041  -7.310  0.00  0.00     0.313 C 
ENDROOT
BRANCH   1   2
ATOM      2  C   UNL d   1      28.509 -14.868  -6.034  0.00  0.00     0.134 C 
ATOM      3  N   UNL d   1      27.327 -15.347  -5.770  0.00  0.00    -0.225 NA
ATOM      4  C   UNL d   1      27.108 -15.538  -4.428  0.00  0.00     0.116 C 
ATOM      5  S   UNL d   1      25.544 -15.447  -3.746  0.00  0.00    -0.063 SA
ATOM      6  C   UNL d   1      28.062 -15.577  -3.441  0.00  0.00     0.075 C 
ATOM      7  C   UNL d   1      26.117 -15.775  -2.158  0.00  0.00     0.089 C 
ATOM      8  C   UNL d   1      27.506 -15.884  -2.146  0.00  0.00    -0.020 C 
ATOM      9  C   UNL d   1      28.366 -16.314  -1.007  0.00  0.00     0.051 C 
ATOM     10  C   UNL d   1      29.439 -15.381  -3.861  0.00  0.00     0.260 C 
ATOM     11  O   UNL d   1      30.423 -15.586  -3.168  0.00  0.00    -0.267 OA
ATOM     12  N   UNL d   1      29.566 -14.905  -5.152  0.00  0.00    -0.309 N 
ATOM     13  H   UNL d   1      30.516 -14.710  -5.434  0.00  0.00     0.170 HD
BRANCH   7  14
ATOM     14  C   UNL d   1      25.093 -15.950  -1.130  0.00  0.00     0.301 C 
ATOM     15  O   UNL d   1      25.155 -15.529   0.011  0.00  0.00    -0.259 OA
BRANCH  14  16
ATOM     16  O   UNL d   1      24.016 -16.619  -1.639  0.00  0.00    -0.312 OA
BRANCH  16  17
ATOM     17  C   UNL d   1      23.798 -17.965  -1.181  0.00  0.00     0.124 C 
ATOM     18  C   UNL d   1      24.849 -18.351  -0.145  0.00  0.00     0.040 C 
ATOM     19  C   UNL d   1      22.416 -18.024  -0.527  0.00  0.00     0.040 C 
ENDBRANCH  16  17
ENDBRANCH  14  16
ENDBRANCH   7  14
ENDBRANCH   1   2
BRANCH   1  20
ATOM     20  N   UNL d   1      29.889 -12.987  -7.238  0.00  0.00    -0.058 N 
ATOM     21  H   UNL d   1      30.214 -13.028  -6.258  0.00  0.00     0.280 HD
BRANCH  20  22
ATOM     22  C   UNL d   1      29.435 -11.567  -7.574  0.00  0.00     0.180 C 
ATOM     23  C   UNL d   1      28.453 -11.578  -8.735  0.00  0.00     0.039 C 
ATOM     24  C   UNL d   1      28.764 -10.920  -6.357  0.00  0.00     0.039 C 
ENDBRANCH  20  22
BRANCH  20  25
ATOM     25  C   UNL d   1      31.108 -13.316  -8.114  0.00  0.00     0.269 C 
BRANCH  25  26
ATOM     26  C   UNL d   1      32.121 -14.142  -7.378  0.00  0.00     0.168 C 
BRANCH  26  27
ATOM     27  O   UNL d   1      31.992 -13.974  -5.957  0.00  0.00    -0.392 OA
ATOM     28  H   UNL d   1      32.232 -14.776  -5.469  0.00  0.00     0.210 HD
ENDBRANCH  26  27
BRANCH  26  29
ATOM     29  C   UNL d   1      31.960 -15.588  -7.567  0.00  0.00     0.209 C 
BRANCH  29  30
ATOM     30  O   UNL d   1      31.470 -16.252  -6.446  0.00  0.00    -0.348 OA
BRANCH  30  31
ATOM     31  C   UNL d   1      31.226 -17.574  -6.717  0.00  0.00     0.074 A 
ATOM     32  C   UNL d   1      31.513 -17.876  -8.052  0.00  0.00     0.037 A 
ATOM     33  C   UNL d   1      31.293 -19.156  -8.540  0.00  0.00     0.003 A 
ATOM     34  C   UNL d   1      30.780 -20.134  -7.696  0.00  0.00     0.001 A 
ATOM     35  C   UNL d   1      30.502 -19.845  -6.364  0.00  0.00     0.009 A 
ATOM     36  C   UNL d   1      30.727 -18.572  -5.837  0.00  0.00    -0.029 A 
ATOM     37  C   UNL d   1      30.406 -18.424  -4.365  0.00  0.00     0.051 C 
ENDBRANCH  30  31
ENDBRANCH  29  30
ENDBRANCH  26  29
ENDBRANCH  25  26
ENDBRANCH  20  25
ENDBRANCH   1  20
TORSDOF 12
ENDMDL
MODEL 8
REMARK VINA RESULT:    -6.509      3.482      7.609
REMARK INTER + INTRA:         -16.124
REMARK INTER:                 -10.088
REMARK INTRA:                  -6.035
REMARK CONF_INDEPENDENT:        3.580
REMARK UNBOUND:                -6.035
REMARK  12 active torsions:
REMARK  status: ('A' for Active; 'I' for Inactive)
REMARK    1  A    between atoms: C_7  and  O_8 
REMARK    2  A    between atoms: O_8  and  C_9 
REMARK    3  A    between atoms: C_10  and  C_9 
REMARK    4  A    between atoms: C_10  and  C_12 
REMARK    5  A    between atoms: C_10  and  O_11 
REMARK    6  A    between atoms: N_13  and  C_12 
REMARK    7  A    between atoms: N_13  and  C_32 
REMARK    8  A    between atoms: N_13  and  C_14 
REMARK    9  A    between atoms: C_14  and  C_15 
REMARK   10  A    between atoms: C_19  and  C_20 
REMARK   11  A    between atoms: C_20  and  O_22 
REMARK   12  A    between atoms: O_22  and  C_23 
ROOT
ATOM      1  C   UNL d   1      29.306 -12.995   3.030  0.00  0.00     0.313 C 
ENDROOT
BRANCH   1   2
ATOM      2  C   UNL d   1      28.218 -13.046   1.943  0.00  0.00     0.134 C 
ATOM      3  N   UNL d   1      27.427 -14.077   1.851  0.00  0.00    -0.225 NA
ATOM      4  C   UNL d   1      26.936 -14.270   0.583  0.00  0.00     0.116 C 
ATOM      5  S   UNL d   1      26.516 -15.822   0.004  0.00  0.00    -0.063 SA
ATOM      6  C   UNL d   1      26.939 -13.358  -0.443  0.00  0.00     0.075 C 
ATOM      7  C   UNL d   1      26.039 -15.220  -1.534  0.00  0.00     0.089 C 
ATOM      8  C   UNL d   1      26.266 -13.848  -1.621  0.00  0.00    -0.020 C 
ATOM      9  C   UNL d   1      25.846 -12.933  -2.720  0.00  0.00     0.051 C 
ATOM     10  C   UNL d   1      27.537 -12.064  -0.160  0.00  0.00     0.260 C 
ATOM     11  O   UNL d   1      27.445 -11.076  -0.871  0.00  0.00    -0.267 OA
ATOM     12  N   UNL d   1      28.267 -12.032   1.012  0.00  0.00    -0.309 N 
ATOM     13  H   UNL d   1      28.735 -11.154   1.189  0.00  0.00     0.170 HD
BRANCH   7  14
ATOM     14  C   UNL d   1      25.429 -16.190  -2.442  0.00  0.00     0.301 C 
ATOM     15  O   UNL d   1      25.155 -15.990  -3.612  0.00  0.00    -0.259 OA
BRANCH  14  16
ATOM     16  O   UNL d   1      25.247 -17.386  -1.809  0.00  0.00    -0.312 OA
BRANCH  16  17
ATOM     17  C   UNL d   1      23.924 -17.682  -1.325  0.00  0.00     0.124 C 
ATOM     18  C   UNL d   1      23.997 -18.575  -0.090  0.00  0.00     0.040 C 
ATOM     19  C   UNL d   1      23.254 -16.361  -0.940  0.00  0.00     0.040 C 
ENDBRANCH  16  17
ENDBRANCH  14  16
ENDBRANCH   7  14
ENDBRANCH   1   2
BRANCH   1  20
ATOM     20  N   UNL d   1      30.002 -14.347   3.362  0.00  0.00    -0.058 N 
ATOM     21  H   UNL d   1      29.658 -14.998   2.637  0.00  0.00     0.280 HD
BRANCH  20  22
ATOM     22  C   UNL d   1      29.658 -14.888   4.749  0.00  0.00     0.180 C 
ATOM     23  C   UNL d   1      30.025 -13.880   5.826  0.00  0.00     0.039 C 
ATOM     24  C   UNL d   1      28.159 -15.198   4.845  0.00  0.00     0.039 C 
ENDBRANCH  20  22
BRANCH  20  25
ATOM     25  C   UNL d   1      31.532 -14.319   3.229  0.00  0.00     0.269 C 
BRANCH  25  26
ATOM     26  C   UNL d   1      32.000 -15.019   1.989  0.00  0.00     0.168 C 
BRANCH  26  27
ATOM     27  O   UNL d   1      31.530 -16.376   1.951  0.00  0.00    -0.392 OA
ATOM     28  H   UNL d   1      30.607 -16.438   1.659  0.00  0.00     0.210 HD
ENDBRANCH  26  27
BRANCH  26  29
ATOM     29  C   UNL d   1      31.476 -14.443   0.745  0.00  0.00     0.209 C 
BRANCH  29  30
ATOM     30  O   UNL d   1      30.117 -14.671   0.547  0.00  0.00    -0.348 OA
BRANCH  30  31
ATOM     31  C   UNL d   1      29.854 -15.010  -0.756  0.00  0.00     0.074 A 
ATOM     32  C   UNL d   1      29.948 -13.895  -1.596  0.00  0.00     0.037 A 
ATOM     33  C   UNL d   1      29.676 -14.018  -2.950  0.00  0.00     0.003 A 
ATOM     34  C   UNL d   1      29.305 -15.253  -3.467  0.00  0.00     0.001 A 
ATOM     35  C   UNL d   1      29.220 -16.370  -2.641  0.00  0.00     0.009 A 
ATOM     36  C   UNL d   1      29.502 -16.284  -1.277  0.00  0.00    -0.029 A 
ATOM     37  C   UNL d   1      29.398 -17.591  -0.520  0.00  0.00     0.051 C 
ENDBRANCH  30  31
ENDBRANCH  29  30
ENDBRANCH  26  29
ENDBRANCH  25  26
ENDBRANCH  20  25
ENDBRANCH   1  20
TORSDOF 12
ENDMDL
MODEL 9
REMARK VINA RESULT:    -6.309      3.811      8.657
REMARK INTER + INTRA:         -16.261
REMARK INTER:                  -9.888
REMARK INTRA:                  -6.372
REMARK CONF_INDEPENDENT:        3.580
REMARK UNBOUND:                -6.372
REMARK  12 active torsions:
REMARK  status: ('A' for Active; 'I' for Inactive)
REMARK    1  A    between atoms: C_7  and  O_8 
REMARK    2  A    between atoms: O_8  and  C_9 
REMARK    3  A    between atoms: C_10  and  C_9 
REMARK    4  A    between atoms: C_10  and  C_12 
REMARK    5  A    between atoms: C_10  and  O_11 
REMARK    6  A    between atoms: N_13  and  C_12 
REMARK    7  A    between atoms: N_13  and  C_32 
REMARK    8  A    between atoms: N_13  and  C_14 
REMARK    9  A    between atoms: C_14  and  C_15 
REMARK   10  A    between atoms: C_19  and  C_20 
REMARK   11  A    between atoms: C_20  and  O_22 
REMARK   12  A    between atoms: O_22  and  C_23 
ROOT
ATOM      1  C   UNL d   1      27.841 -14.821   2.488  0.00  0.00     0.313 C 
ENDROOT
BRANCH   1   2
ATOM      2  C   UNL d   1      28.208 -14.827   0.994  0.00  0.00     0.134 C 
ATOM      3  N   UNL d   1      27.537 -14.096   0.148  0.00  0.00    -0.225 NA
ATOM      4  C   UNL d   1      27.556 -14.595  -1.131  0.00  0.00     0.116 C 
ATOM      5  S   UNL d   1      26.274 -14.322  -2.227  0.00  0.00    -0.063 SA
ATOM      6  C   UNL d   1      28.422 -15.538  -1.628  0.00  0.00     0.075 C 
ATOM      7  C   UNL d   1      27.034 -15.216  -3.483  0.00  0.00     0.089 C 
ATOM      8  C   UNL d   1      28.230 -15.775  -3.038  0.00  0.00    -0.020 C 
ATOM      9  C   UNL d   1      29.253 -16.484  -3.859  0.00  0.00     0.051 C 
ATOM     10  C   UNL d   1      29.404 -16.072  -0.701  0.00  0.00     0.260 C 
ATOM     11  O   UNL d   1      30.370 -16.751  -1.011  0.00  0.00    -0.267 OA
ATOM     12  N   UNL d   1      29.149 -15.761   0.621  0.00  0.00    -0.309 N 
ATOM     13  H   UNL d   1      29.793 -16.175   1.280  0.00  0.00     0.170 HD
BRANCH   7  14
ATOM     14  C   UNL d   1      26.368 -15.189  -4.783  0.00  0.00     0.301 C 
ATOM     15  O   UNL d   1      25.165 -15.120  -4.962  0.00  0.00    -0.259 OA
BRANCH  14  16
ATOM     16  O   UNL d   1      27.289 -15.200  -5.791  0.00  0.00    -0.312 OA
BRANCH  16  17
ATOM     17  C   UNL d   1      28.183 -14.076  -5.881  0.00  0.00     0.124 C 
ATOM     18  C   UNL d   1      28.905 -14.075  -7.225  0.00  0.00     0.040 C 
ATOM     19  C   UNL d   1      27.350 -12.798  -5.766  0.00  0.00     0.040 C 
ENDBRANCH  16  17
ENDBRANCH  14  16
ENDBRANCH   7  14
ENDBRANCH   1   2
BRANCH   1  20
ATOM     20  N   UNL d   1      29.037 -14.760   3.484  0.00  0.00    -0.058 N 
ATOM     21  H   UNL d   1      29.622 -15.574   3.231  0.00  0.00     0.280 HD
BRANCH  20  22
ATOM     22  C   UNL d   1      28.618 -14.858   4.949  0.00  0.00     0.180 C 
ATOM     23  C   UNL d   1      29.760 -14.444   5.864  0.00  0.00     0.039 C 
ATOM     24  C   UNL d   1      27.408 -13.956   5.221  0.00  0.00     0.039 C 
ENDBRANCH  20  22
BRANCH  20  25
ATOM     25  C   UNL d   1      29.928 -13.519   3.326  0.00  0.00     0.269 C 
BRANCH  25  26
ATOM     26  C   UNL d   1      31.226 -13.843   2.647  0.00  0.00     0.168 C 
BRANCH  26  27
ATOM     27  O   UNL d   1      31.227 -15.191   2.150  0.00  0.00    -0.392 OA
ATOM     28  H   UNL d   1      31.667 -15.266   1.289  0.00  0.00     0.210 HD
ENDBRANCH  26  27
BRANCH  26  29
ATOM     29  C   UNL d   1      31.488 -13.038   1.448  0.00  0.00     0.209 C 
BRANCH  29  30
ATOM     30  O   UNL d   1      31.354 -13.743   0.255  0.00  0.00    -0.348 OA
BRANCH  30  31
ATOM     31  C   UNL d   1      30.664 -13.014  -0.680  0.00  0.00     0.074 A 
ATOM     32  C   UNL d   1      29.839 -12.064  -0.070  0.00  0.00     0.037 A 
ATOM     33  C   UNL d   1      29.023 -11.250  -0.842  0.00  0.00     0.003 A 
ATOM     34  C   UNL d   1      29.027 -11.389  -2.225  0.00  0.00     0.001 A 
ATOM     35  C   UNL d   1      29.853 -12.323  -2.841  0.00  0.00     0.009 A 
ATOM     36  C   UNL d   1      30.697 -13.147  -2.094  0.00  0.00    -0.029 A 
ATOM     37  C   UNL d   1      31.557 -14.088  -2.911  0.00  0.00     0.051 C 
ENDBRANCH  30  31
ENDBRANCH  29  30
ENDBRANCH  26  29
ENDBRANCH  25  26
ENDBRANCH  20  25
ENDBRANCH   1  20
TORSDOF 12
ENDMDL
