MODEL 1
REMARK VINA RESULT:   -12.152      0.000      0.000
REMARK INTER + INTRA:         -17.655
REMARK INTER:                 -15.433
REMARK INTRA:                  -2.222
REMARK CONF_INDEPENDENT:        3.281
REMARK UNBOUND:                -2.222
REMARK  11 active torsions:
REMARK  status: ('A' for Active; 'I' for Inactive)
REMARK    1  A    between atoms: C_2  and  C_3 
REMARK       I    between atoms: C_2  and  N_28 
REMARK    2  A    between atoms: C_3  and  C_4 
REMARK    3  A    between atoms: C_4  and  S_5 
REMARK    4  A    between atoms: S_5  and  C_6 
REMARK    5  A    between atoms: C_9  and  N_10 
REMARK    6  A    between atoms: N_10  and  N_11 
REMARK    7  A    between atoms: C_12  and  C_13 
REMARK    8  A    between atoms: C_18  and  O_19 
REMARK    9  A    between atoms: O_19  and  C_20 
REMARK   10  A    between atoms: C_20  and  C_21 
REMARK   11  A    between atoms: N_28  and  C_29 
ROOT
ATOM      1  C   UNL d   1      27.118 -11.525  -2.676  0.00  0.00     0.226 A 
ATOM      2  N   UNL d   1      26.306 -10.737  -3.385  0.00  0.00    -0.132 NA
ATOM      3  N   UNL d   1      25.508 -11.639  -3.980  0.00  0.00    -0.103 N 
ATOM      4  C   UNL d   1      25.825 -12.933  -3.642  0.00  0.00     0.739 A 
ATOM      5  N   UNL d   1      26.857 -12.869  -2.810  0.00  0.00    -0.034 NA
ATOM      6  H   UNL d   1      24.779 -11.301  -4.591  0.00  0.00     0.208 HD
ENDROOT
BRANCH   4   7
ATOM      7  N   UNL d   1      25.084 -14.010  -4.101  0.00  0.00    -0.106 N 
ATOM      8  H   UNL d   1      24.385 -13.856  -4.828  0.00  0.00     0.208 HD
BRANCH   7   9
ATOM      9  N   UNL d   1      25.023 -15.184  -3.368  0.00  0.00    -0.171 NA
ATOM     10  C   UNL d   1      24.576 -15.215  -2.147  0.00  0.00     0.153 C 
BRANCH  10  11
ATOM     11  C   UNL d   1      24.945 -16.353  -1.212  0.00  0.00     0.016 A 
ATOM     12  C   UNL d   1      26.313 -16.596  -1.012  0.00  0.00     0.016 A 
ATOM     13  C   UNL d   1      26.751 -17.716  -0.282  0.00  0.00     0.001 A 
ATOM     14  C   UNL d   1      25.836 -18.575   0.317  0.00  0.00     0.003 A 
ATOM     15  C   UNL d   1      24.478 -18.353   0.129  0.00  0.00     0.037 A 
ATOM     16  C   UNL d   1      24.019 -17.269  -0.647  0.00  0.00     0.080 A 
BRANCH  16  17
ATOM     17  O   UNL d   1      22.650 -17.326  -0.782  0.00  0.00    -0.346 OA
BRANCH  17  18
ATOM     18  C   UNL d   1      22.160 -18.561  -1.270  0.00  0.00     0.214 C 
BRANCH  18  19
ATOM     19  C   UNL d   1      21.019 -19.141  -0.517  0.00  0.00    -0.034 C 
ATOM     20  C   UNL d   1      21.038 -19.107   0.865  0.00  0.00     0.009 C 
ATOM     21  C   UNL d   1      19.996 -19.692   1.555  0.00  0.00     0.001 C 
ATOM     22  C   UNL d   1      18.862 -20.141   0.872  0.00  0.00     0.000 C 
ATOM     23  C   UNL d   1      18.791 -20.074  -0.515  0.00  0.00     0.001 C 
ATOM     24  C   UNL d   1      19.893 -19.615  -1.211  0.00  0.00     0.009 C 
ENDBRANCH  18  19
ENDBRANCH  17  18
ENDBRANCH  16  17
ENDBRANCH  10  11
ENDBRANCH   7   9
ENDBRANCH   4   7
BRANCH   1  25
ATOM     25  S   UNL d   1      28.254 -10.795  -1.566  0.00  0.00    -0.087 SA
BRANCH  25  26
ATOM     26  C   UNL d   1      27.278  -9.496  -0.738  0.00  0.00     0.092 C 
BRANCH  26  27
ATOM     27  C   UNL d   1      27.639  -9.478   0.740  0.00  0.00     0.113 C 
BRANCH  27  28
ATOM     28  C   UNL d   1      26.443  -9.511   1.669  0.00  0.00     0.222 C 
ATOM     29  O   UNL d   1      25.769  -8.490   1.915  0.00  0.00    -0.273 OA
ATOM     30  N   UNL d   1      26.005 -10.712   2.149  0.00  0.00    -0.326 N 
ATOM     31  H   UNL d   1      25.044 -10.693   2.485  0.00  0.00     0.169 HD
BRANCH  30  32
ATOM     32  C   UNL d   1      26.654 -11.964   2.107  0.00  0.00     0.045 A 
ATOM     33  C   UNL d   1      26.457 -12.682   0.887  0.00  0.00     0.030 A 
ATOM     34  C   UNL d   1      27.012 -13.939   0.712  0.00  0.00     0.003 A 
ATOM     35  C   UNL d   1      27.794 -14.452   1.730  0.00  0.00     0.012 A 
ATOM     36  C   UNL d   1      27.993 -13.764   2.940  0.00  0.00    -0.027 A 
ATOM     37  C   UNL d   1      28.693 -14.438   3.928  0.00  0.00    -0.005 C 
ATOM     38  C   UNL d   1      27.447 -12.501   3.221  0.00  0.00     0.000 A 
ATOM     39  C   UNL d   1      28.771 -13.943   5.221  0.00  0.00     0.043 C 
ATOM     40  C   UNL d   1      28.718 -12.606   5.437  0.00  0.00    -0.016 C 
ATOM     41  C   UNL d   1      27.778 -12.001   4.596  0.00  0.00     0.011 C 
ENDBRANCH  30  32
ENDBRANCH  27  28
ENDBRANCH  26  27
ENDBRANCH  25  26
ENDBRANCH   1  25
TORSDOF 11
ENDMDL
MODEL 2
REMARK VINA RESULT:   -12.001      0.643      2.002
REMARK INTER + INTRA:         -17.713
REMARK INTER:                 -15.282
REMARK INTRA:                  -2.431
REMARK CONF_INDEPENDENT:        3.281
REMARK UNBOUND:                -2.431
REMARK  11 active torsions:
REMARK  status: ('A' for Active; 'I' for Inactive)
REMARK    1  A    between atoms: C_2  and  C_3 
REMARK       I    between atoms: C_2  and  N_28 
REMARK    2  A    between atoms: C_3  and  C_4 
REMARK    3  A    between atoms: C_4  and  S_5 
REMARK    4  A    between atoms: S_5  and  C_6 
REMARK    5  A    between atoms: C_9  and  N_10 
REMARK    6  A    between atoms: N_10  and  N_11 
REMARK    7  A    between atoms: C_12  and  C_13 
REMARK    8  A    between atoms: C_18  and  O_19 
REMARK    9  A    between atoms: O_19  and  C_20 
REMARK   10  A    between atoms: C_20  and  C_21 
REMARK   11  A    between atoms: N_28  and  C_29 
ROOT
ATOM      1  C   UNL d   1      27.023 -11.360  -2.663  0.00  0.00     0.226 A 
ATOM      2  N   UNL d   1      26.220 -10.625  -3.436  0.00  0.00    -0.132 NA
ATOM      3  N   UNL d   1      25.509 -11.575  -4.065  0.00  0.00    -0.103 N 
ATOM      4  C   UNL d   1      25.867 -12.846  -3.684  0.00  0.00     0.739 A 
ATOM      5  N   UNL d   1      26.840 -12.717  -2.790  0.00  0.00    -0.034 NA
ATOM      6  H   UNL d   1      24.804 -11.285  -4.726  0.00  0.00     0.208 HD
ENDROOT
BRANCH   4   7
ATOM      7  N   UNL d   1      25.213 -13.967  -4.170  0.00  0.00    -0.106 N 
ATOM      8  H   UNL d   1      24.548 -13.858  -4.936  0.00  0.00     0.208 HD
BRANCH   7   9
ATOM      9  N   UNL d   1      25.175 -15.135  -3.428  0.00  0.00    -0.171 NA
ATOM     10  C   UNL d   1      24.840 -15.146  -2.171  0.00  0.00     0.153 C 
BRANCH  10  11
ATOM     11  C   UNL d   1      25.250 -16.295  -1.266  0.00  0.00     0.016 A 
ATOM     12  C   UNL d   1      26.618 -16.602  -1.205  0.00  0.00     0.016 A 
ATOM     13  C   UNL d   1      27.076 -17.738  -0.513  0.00  0.00     0.001 A 
ATOM     14  C   UNL d   1      26.189 -18.548   0.187  0.00  0.00     0.003 A 
ATOM     15  C   UNL d   1      24.830 -18.261   0.138  0.00  0.00     0.037 A 
ATOM     16  C   UNL d   1      24.345 -17.162  -0.598  0.00  0.00     0.080 A 
BRANCH  16  17
ATOM     17  O   UNL d   1      22.969 -17.154  -0.591  0.00  0.00    -0.346 OA
BRANCH  17  18
ATOM     18  C   UNL d   1      22.373 -18.289  -1.191  0.00  0.00     0.214 C 
BRANCH  18  19
ATOM     19  C   UNL d   1      21.208 -18.859  -0.468  0.00  0.00    -0.034 C 
ATOM     20  C   UNL d   1      20.158 -19.390  -1.196  0.00  0.00     0.009 C 
ATOM     21  C   UNL d   1      19.060 -19.874  -0.515  0.00  0.00     0.001 C 
ATOM     22  C   UNL d   1      19.090 -19.992   0.879  0.00  0.00     0.000 C 
ATOM     23  C   UNL d   1      20.191 -19.561   1.608  0.00  0.00     0.001 C 
ATOM     24  C   UNL d   1      21.232 -18.951   0.933  0.00  0.00     0.009 C 
ENDBRANCH  18  19
ENDBRANCH  17  18
ENDBRANCH  16  17
ENDBRANCH  10  11
ENDBRANCH   7   9
ENDBRANCH   4   7
BRANCH   1  25
ATOM     25  S   UNL d   1      28.048 -10.557  -1.497  0.00  0.00    -0.087 SA
BRANCH  25  26
ATOM     26  C   UNL d   1      27.048  -9.134  -0.949  0.00  0.00     0.092 C 
BRANCH  26  27
ATOM     27  C   UNL d   1      27.304  -8.895   0.532  0.00  0.00     0.113 C 
BRANCH  27  28
ATOM     28  C   UNL d   1      26.045  -8.744   1.361  0.00  0.00     0.222 C 
ATOM     29  O   UNL d   1      25.175  -7.891   1.091  0.00  0.00    -0.273 OA
ATOM     30  N   UNL d   1      25.786  -9.648   2.350  0.00  0.00    -0.326 N 
ATOM     31  H   UNL d   1      24.808  -9.677   2.633  0.00  0.00     0.169 HD
BRANCH  30  32
ATOM     32  C   UNL d   1      26.652 -10.612   2.909  0.00  0.00     0.045 A 
ATOM     33  C   UNL d   1      27.246 -10.213   4.146  0.00  0.00     0.030 A 
ATOM     34  C   UNL d   1      28.139 -11.046   4.799  0.00  0.00     0.003 A 
ATOM     35  C   UNL d   1      28.400 -12.284   4.242  0.00  0.00     0.012 A 
ATOM     36  C   UNL d   1      27.832 -12.690   3.022  0.00  0.00    -0.027 A 
ATOM     37  C   UNL d   1      28.269 -13.901   2.508  0.00  0.00    -0.005 C 
ATOM     38  C   UNL d   1      26.940 -11.905   2.274  0.00  0.00     0.000 A 
ATOM     39  C   UNL d   1      27.934 -14.301   1.223  0.00  0.00     0.043 C 
ATOM     40  C   UNL d   1      26.768 -13.887   0.669  0.00  0.00    -0.016 C 
ATOM     41  C   UNL d   1      26.507 -12.551   0.992  0.00  0.00     0.011 C 
ENDBRANCH  30  32
ENDBRANCH  27  28
ENDBRANCH  26  27
ENDBRANCH  25  26
ENDBRANCH   1  25
TORSDOF 11
ENDMDL
MODEL 3
REMARK VINA RESULT:   -11.181      2.838      4.802
REMARK INTER + INTRA:         -17.119
REMARK INTER:                 -14.462
REMARK INTRA:                  -2.657
REMARK CONF_INDEPENDENT:        3.281
REMARK UNBOUND:                -2.657
REMARK  11 active torsions:
REMARK  status: ('A' for Active; 'I' for Inactive)
REMARK    1  A    between atoms: C_2  and  C_3 
REMARK       I    between atoms: C_2  and  N_28 
REMARK    2  A    between atoms: C_3  and  C_4 
REMARK    3  A    between atoms: C_4  and  S_5 
REMARK    4  A    between atoms: S_5  and  C_6 
REMARK    5  A    between atoms: C_9  and  N_10 
REMARK    6  A    between atoms: N_10  and  N_11 
REMARK    7  A    between atoms: C_12  and  C_13 
REMARK    8  A    between atoms: C_18  and  O_19 
REMARK    9  A    between atoms: O_19  and  C_20 
REMARK   10  A    between atoms: C_20  and  C_21 
REMARK   11  A    between atoms: N_28  and  C_29 
ROOT
ATOM      1  C   UNL d   1      30.412 -12.484   2.590  0.00  0.00     0.226 A 
ATOM      2  N   UNL d   1      30.455 -13.345   3.610  0.00  0.00    -0.132 NA
ATOM      3  N   UNL d   1      29.938 -14.450   3.049  0.00  0.00    -0.103 N 
ATOM      4  C   UNL d   1      29.594 -14.266   1.731  0.00  0.00     0.739 A 
ATOM      5  N   UNL d   1      29.891 -13.009   1.431  0.00  0.00    -0.034 NA
ATOM      6  H   UNL d   1      29.856 -15.280   3.618  0.00  0.00     0.208 HD
ENDROOT
BRANCH   4   7
ATOM      7  N   UNL d   1      29.100 -15.301   0.953  0.00  0.00    -0.106 N 
ATOM      8  H   UNL d   1      29.317 -16.264   1.214  0.00  0.00     0.208 HD
BRANCH   7   9
ATOM      9  N   UNL d   1      28.635 -15.057  -0.328  0.00  0.00    -0.171 NA
ATOM     10  C   UNL d   1      27.738 -14.149  -0.578  0.00  0.00     0.153 C 
BRANCH  10  11
ATOM     11  C   UNL d   1      26.903 -14.207  -1.845  0.00  0.00     0.016 A 
ATOM     12  C   UNL d   1      26.507 -12.983  -2.405  0.00  0.00     0.016 A 
ATOM     13  C   UNL d   1      25.613 -12.939  -3.491  0.00  0.00     0.001 A 
ATOM     14  C   UNL d   1      25.153 -14.111  -4.080  0.00  0.00     0.003 A 
ATOM     15  C   UNL d   1      25.533 -15.333  -3.539  0.00  0.00     0.037 A 
ATOM     16  C   UNL d   1      26.381 -15.399  -2.416  0.00  0.00     0.080 A 
BRANCH  16  17
ATOM     17  O   UNL d   1      26.519 -16.703  -1.998  0.00  0.00    -0.346 OA
BRANCH  17  18
ATOM     18  C   UNL d   1      26.027 -16.956  -0.695  0.00  0.00     0.214 C 
BRANCH  18  19
ATOM     19  C   UNL d   1      24.607 -17.382  -0.617  0.00  0.00    -0.034 C 
ATOM     20  C   UNL d   1      23.611 -16.434  -0.769  0.00  0.00     0.009 C 
ATOM     21  C   UNL d   1      22.295 -16.832  -0.647  0.00  0.00     0.001 C 
ATOM     22  C   UNL d   1      21.975 -18.190  -0.556  0.00  0.00     0.000 C 
ATOM     23  C   UNL d   1      22.972 -19.157  -0.515  0.00  0.00     0.001 C 
ATOM     24  C   UNL d   1      24.292 -18.746  -0.499  0.00  0.00     0.009 C 
ENDBRANCH  18  19
ENDBRANCH  17  18
ENDBRANCH  16  17
ENDBRANCH  10  11
ENDBRANCH   7   9
ENDBRANCH   4   7
BRANCH   1  25
ATOM     25  S   UNL d   1      31.153 -10.911   2.775  0.00  0.00    -0.087 SA
BRANCH  25  26
ATOM     26  C   UNL d   1      29.767  -9.749   2.544  0.00  0.00     0.092 C 
BRANCH  26  27
ATOM     27  C   UNL d   1      28.460 -10.524   2.608  0.00  0.00     0.113 C 
BRANCH  27  28
ATOM     28  C   UNL d   1      27.375  -9.842   3.416  0.00  0.00     0.222 C 
ATOM     29  O   UNL d   1      26.546  -9.072   2.890  0.00  0.00    -0.273 OA
ATOM     30  N   UNL d   1      27.210 -10.179   4.729  0.00  0.00    -0.326 N 
ATOM     31  H   UNL d   1      26.294  -9.937   5.102  0.00  0.00     0.169 HD
BRANCH  30  32
ATOM     32  C   UNL d   1      28.074 -10.923   5.561  0.00  0.00     0.045 A 
ATOM     33  C   UNL d   1      28.919 -10.121   6.387  0.00  0.00     0.030 A 
ATOM     34  C   UNL d   1      29.839 -10.712   7.237  0.00  0.00     0.003 A 
ATOM     35  C   UNL d   1      29.880 -12.093   7.292  0.00  0.00     0.012 A 
ATOM     36  C   UNL d   1      29.062 -12.898   6.481  0.00  0.00    -0.027 A 
ATOM     37  C   UNL d   1      29.286 -14.265   6.538  0.00  0.00    -0.005 C 
ATOM     38  C   UNL d   1      28.122 -12.391   5.568  0.00  0.00     0.000 A 
ATOM     39  C   UNL d   1      28.685 -15.132   5.638  0.00  0.00     0.043 C 
ATOM     40  C   UNL d   1      27.478 -14.821   5.104  0.00  0.00    -0.016 C 
ATOM     41  C   UNL d   1      27.403 -13.458   4.798  0.00  0.00     0.011 C 
ENDBRANCH  30  32
ENDBRANCH  27  28
ENDBRANCH  26  27
ENDBRANCH  25  26
ENDBRANCH   1  25
TORSDOF 11
ENDMDL
MODEL 4
REMARK VINA RESULT:   -11.153      3.830      5.963
REMARK INTER + INTRA:         -16.954
REMARK INTER:                 -14.434
REMARK INTRA:                  -2.520
REMARK CONF_INDEPENDENT:        3.281
REMARK UNBOUND:                -2.520
REMARK  11 active torsions:
REMARK  status: ('A' for Active; 'I' for Inactive)
REMARK    1  A    between atoms: C_2  and  C_3 
REMARK       I    between atoms: C_2  and  N_28 
REMARK    2  A    between atoms: C_3  and  C_4 
REMARK    3  A    between atoms: C_4  and  S_5 
REMARK    4  A    between atoms: S_5  and  C_6 
REMARK    5  A    between atoms: C_9  and  N_10 
REMARK    6  A    between atoms: N_10  and  N_11 
REMARK    7  A    between atoms: C_12  and  C_13 
REMARK    8  A    between atoms: C_18  and  O_19 
REMARK    9  A    between atoms: O_19  and  C_20 
REMARK   10  A    between atoms: C_20  and  C_21 
REMARK   11  A    between atoms: N_28  and  C_29 
ROOT
ATOM      1  C   UNL d   1      27.541 -12.167  -4.274  0.00  0.00     0.226 A 
ATOM      2  N   UNL d   1      26.745 -11.294  -4.896  0.00  0.00    -0.132 NA
ATOM      3  N   UNL d   1      25.577 -11.957  -4.908  0.00  0.00    -0.103 N 
ATOM      4  C   UNL d   1      25.662 -13.192  -4.310  0.00  0.00     0.739 A 
ATOM      5  N   UNL d   1      26.917 -13.336  -3.906  0.00  0.00    -0.034 NA
ATOM      6  H   UNL d   1      24.778 -11.509  -5.331  0.00  0.00     0.208 HD
ENDROOT
BRANCH   4   7
ATOM      7  N   UNL d   1      24.553 -14.010  -4.164  0.00  0.00    -0.106 N 
ATOM      8  H   UNL d   1      23.688 -13.763  -4.646  0.00  0.00     0.208 HD
BRANCH   7   9
ATOM      9  N   UNL d   1      24.489 -14.928  -3.129  0.00  0.00    -0.171 NA
ATOM     10  C   UNL d   1      25.211 -14.811  -2.053  0.00  0.00     0.153 C 
BRANCH  10  11
ATOM     11  C   UNL d   1      25.497 -16.014  -1.172  0.00  0.00     0.016 A 
ATOM     12  C   UNL d   1      26.813 -16.169  -0.711  0.00  0.00     0.016 A 
ATOM     13  C   UNL d   1      27.205 -17.327  -0.015  0.00  0.00     0.001 A 
ATOM     14  C   UNL d   1      26.279 -18.317   0.294  0.00  0.00     0.003 A 
ATOM     15  C   UNL d   1      24.971 -18.183  -0.155  0.00  0.00     0.037 A 
ATOM     16  C   UNL d   1      24.572 -17.058  -0.905  0.00  0.00     0.080 A 
BRANCH  16  17
ATOM     17  O   UNL d   1      23.272 -17.207  -1.331  0.00  0.00    -0.346 OA
BRANCH  17  18
ATOM     18  C   UNL d   1      22.856 -18.551  -1.487  0.00  0.00     0.214 C 
BRANCH  18  19
ATOM     19  C   UNL d   1      21.595 -18.918  -0.793  0.00  0.00    -0.034 C 
ATOM     20  C   UNL d   1      20.510 -19.332  -1.543  0.00  0.00     0.009 C 
ATOM     21  C   UNL d   1      19.329 -19.624  -0.892  0.00  0.00     0.001 C 
ATOM     22  C   UNL d   1      19.288 -19.677   0.505  0.00  0.00     0.000 C 
ATOM     23  C   UNL d   1      20.411 -19.368   1.263  0.00  0.00     0.001 C 
ATOM     24  C   UNL d   1      21.553 -18.943   0.611  0.00  0.00     0.009 C 
ENDBRANCH  18  19
ENDBRANCH  17  18
ENDBRANCH  16  17
ENDBRANCH  10  11
ENDBRANCH   7   9
ENDBRANCH   4   7
BRANCH   1  25
ATOM     25  S   UNL d   1      29.167 -11.683  -3.854  0.00  0.00    -0.087 SA
BRANCH  25  26
ATOM     26  C   UNL d   1      30.218 -12.910  -4.699  0.00  0.00     0.092 C 
BRANCH  26  27
ATOM     27  C   UNL d   1      30.274 -12.570  -6.181  0.00  0.00     0.113 C 
BRANCH  27  28
ATOM     28  C   UNL d   1      29.184 -13.221  -7.007  0.00  0.00     0.222 C 
ATOM     29  O   UNL d   1      28.288 -12.552  -7.562  0.00  0.00    -0.273 OA
ATOM     30  N   UNL d   1      29.253 -14.560  -7.267  0.00  0.00    -0.326 N 
ATOM     31  H   UNL d   1      28.693 -14.852  -8.065  0.00  0.00     0.169 HD
BRANCH  30  32
ATOM     32  C   UNL d   1      30.088 -15.529  -6.670  0.00  0.00     0.045 A 
ATOM     33  C   UNL d   1      31.131 -16.004  -7.523  0.00  0.00     0.030 A 
ATOM     34  C   UNL d   1      32.014 -16.976  -7.082  0.00  0.00     0.003 A 
ATOM     35  C   UNL d   1      31.879 -17.435  -5.784  0.00  0.00     0.012 A 
ATOM     36  C   UNL d   1      30.855 -16.986  -4.934  0.00  0.00    -0.027 A 
ATOM     37  C   UNL d   1      30.752 -17.613  -3.703  0.00  0.00    -0.005 C 
ATOM     38  C   UNL d   1      29.897 -16.026  -5.301  0.00  0.00     0.000 A 
ATOM     39  C   UNL d   1      29.663 -17.397  -2.872  0.00  0.00     0.043 C 
ATOM     40  C   UNL d   1      29.010 -16.209  -2.911  0.00  0.00    -0.016 C 
ATOM     41  C   UNL d   1      28.890 -15.747  -4.226  0.00  0.00     0.011 C 
ENDBRANCH  30  32
ENDBRANCH  27  28
ENDBRANCH  26  27
ENDBRANCH  25  26
ENDBRANCH   1  25
TORSDOF 11
ENDMDL
MODEL 5
REMARK VINA RESULT:   -10.701      2.967      4.645
REMARK INTER + INTRA:         -17.196
REMARK INTER:                 -13.982
REMARK INTRA:                  -3.214
REMARK CONF_INDEPENDENT:        3.281
REMARK UNBOUND:                -3.214
REMARK  11 active torsions:
REMARK  status: ('A' for Active; 'I' for Inactive)
REMARK    1  A    between atoms: C_2  and  C_3 
REMARK       I    between atoms: C_2  and  N_28 
REMARK    2  A    between atoms: C_3  and  C_4 
REMARK    3  A    between atoms: C_4  and  S_5 
REMARK    4  A    between atoms: S_5  and  C_6 
REMARK    5  A    between atoms: C_9  and  N_10 
REMARK    6  A    between atoms: N_10  and  N_11 
REMARK    7  A    between atoms: C_12  and  C_13 
REMARK    8  A    between atoms: C_18  and  O_19 
REMARK    9  A    between atoms: O_19  and  C_20 
REMARK   10  A    between atoms: C_20  and  C_21 
REMARK   11  A    between atoms: N_28  and  C_29 
ROOT
ATOM      1  C   UNL d   1      30.911 -12.665   2.611  0.00  0.00     0.226 A 
ATOM      2  N   UNL d   1      31.087 -13.587   3.562  0.00  0.00    -0.132 NA
ATOM      3  N   UNL d   1      30.520 -14.665   2.997  0.00  0.00    -0.103 N 
ATOM      4  C   UNL d   1      30.017 -14.407   1.744  0.00  0.00     0.739 A 
ATOM      5  N   UNL d   1      30.260 -13.127   1.492  0.00  0.00    -0.034 NA
ATOM      6  H   UNL d   1      30.517 -15.530   3.518  0.00  0.00     0.208 HD
ENDROOT
BRANCH   4   7
ATOM      7  N   UNL d   1      29.445 -15.401   0.967  0.00  0.00    -0.106 N 
ATOM      8  H   UNL d   1      29.644 -16.378   1.188  0.00  0.00     0.208 HD
BRANCH   7   9
ATOM      9  N   UNL d   1      28.917 -15.104  -0.277  0.00  0.00    -0.171 NA
ATOM     10  C   UNL d   1      27.983 -14.212  -0.438  0.00  0.00     0.153 C 
BRANCH  10  11
ATOM     11  C   UNL d   1      27.095 -14.229  -1.670  0.00  0.00     0.016 A 
ATOM     12  C   UNL d   1      26.636 -12.990  -2.142  0.00  0.00     0.016 A 
ATOM     13  C   UNL d   1      25.693 -12.915  -3.184  0.00  0.00     0.001 A 
ATOM     14  C   UNL d   1      25.244 -14.069  -3.819  0.00  0.00     0.003 A 
ATOM     15  C   UNL d   1      25.686 -15.305  -3.365  0.00  0.00     0.037 A 
ATOM     16  C   UNL d   1      26.585 -15.404  -2.284  0.00  0.00     0.080 A 
BRANCH  16  17
ATOM     17  O   UNL d   1      26.782 -16.724  -1.947  0.00  0.00    -0.346 OA
BRANCH  17  18
ATOM     18  C   UNL d   1      26.314 -17.075  -0.658  0.00  0.00     0.214 C 
BRANCH  18  19
ATOM     19  C   UNL d   1      24.856 -17.339  -0.555  0.00  0.00    -0.034 C 
ATOM     20  C   UNL d   1      23.965 -16.356  -0.945  0.00  0.00     0.009 C 
ATOM     21  C   UNL d   1      22.614 -16.594  -0.800  0.00  0.00     0.001 C 
ATOM     22  C   UNL d   1      22.156 -17.866  -0.441  0.00  0.00     0.000 C 
ATOM     23  C   UNL d   1      23.049 -18.891  -0.156  0.00  0.00     0.001 C 
ATOM     24  C   UNL d   1      24.403 -18.611  -0.168  0.00  0.00     0.009 C 
ENDBRANCH  18  19
ENDBRANCH  17  18
ENDBRANCH  16  17
ENDBRANCH  10  11
ENDBRANCH   7   9
ENDBRANCH   4   7
BRANCH   1  25
ATOM     25  S   UNL d   1      31.650 -11.093   2.806  0.00  0.00    -0.087 SA
BRANCH  25  26
ATOM     26  C   UNL d   1      30.810 -10.397   4.268  0.00  0.00     0.092 C 
BRANCH  26  27
ATOM     27  C   UNL d   1      29.867  -9.294   3.812  0.00  0.00     0.113 C 
BRANCH  27  28
ATOM     28  C   UNL d   1      28.714  -9.035   4.760  0.00  0.00     0.222 C 
ATOM     29  O   UNL d   1      28.684  -8.037   5.508  0.00  0.00    -0.273 OA
ATOM     30  N   UNL d   1      27.611  -9.839   4.702  0.00  0.00    -0.326 N 
ATOM     31  H   UNL d   1      26.779  -9.424   5.118  0.00  0.00     0.169 HD
BRANCH  30  32
ATOM     32  C   UNL d   1      27.457 -11.073   4.034  0.00  0.00     0.045 A 
ATOM     33  C   UNL d   1      26.883 -10.961   2.731  0.00  0.00     0.030 A 
ATOM     34  C   UNL d   1      26.647 -12.092   1.966  0.00  0.00     0.003 A 
ATOM     35  C   UNL d   1      27.024 -13.317   2.485  0.00  0.00     0.012 A 
ATOM     36  C   UNL d   1      27.582 -13.447   3.768  0.00  0.00    -0.027 A 
ATOM     37  C   UNL d   1      27.800 -14.738   4.221  0.00  0.00    -0.005 C 
ATOM     38  C   UNL d   1      27.830 -12.364   4.627  0.00  0.00     0.000 A 
ATOM     39  C   UNL d   1      28.151 -14.990   5.539  0.00  0.00     0.043 C 
ATOM     40  C   UNL d   1      28.850 -14.064   6.240  0.00  0.00    -0.016 C 
ATOM     41  C   UNL d   1      28.395 -12.773   5.955  0.00  0.00     0.011 C 
ENDBRANCH  30  32
ENDBRANCH  27  28
ENDBRANCH  26  27
ENDBRANCH  25  26
ENDBRANCH   1  25
TORSDOF 11
ENDMDL
MODEL 6
REMARK VINA RESULT:    -9.632      4.197      8.387
REMARK INTER + INTRA:         -17.045
REMARK INTER:                 -12.913
REMARK INTRA:                  -4.132
REMARK CONF_INDEPENDENT:        3.281
REMARK UNBOUND:                -4.132
REMARK  11 active torsions:
REMARK  status: ('A' for Active; 'I' for Inactive)
REMARK    1  A    between atoms: C_2  and  C_3 
REMARK       I    between atoms: C_2  and  N_28 
REMARK    2  A    between atoms: C_3  and  C_4 
REMARK    3  A    between atoms: C_4  and  S_5 
REMARK    4  A    between atoms: S_5  and  C_6 
REMARK    5  A    between atoms: C_9  and  N_10 
REMARK    6  A    between atoms: N_10  and  N_11 
REMARK    7  A    between atoms: C_12  and  C_13 
REMARK    8  A    between atoms: C_18  and  O_19 
REMARK    9  A    between atoms: O_19  and  C_20 
REMARK   10  A    between atoms: C_20  and  C_21 
REMARK   11  A    between atoms: N_28  and  C_29 
ROOT
ATOM      1  C   UNL d   1      30.785 -17.678  -2.488  0.00  0.00     0.226 A 
ATOM      2  N   UNL d   1      30.983 -18.753  -1.720  0.00  0.00    -0.132 NA
ATOM      3  N   UNL d   1      30.434 -18.357  -0.560  0.00  0.00    -0.103 N 
ATOM      4  C   UNL d   1      29.918 -17.085  -0.623  0.00  0.00     0.739 A 
ATOM      5  N   UNL d   1      30.142 -16.642  -1.853  0.00  0.00    -0.034 NA
ATOM      6  H   UNL d   1      30.445 -19.001   0.217  0.00  0.00     0.208 HD
ENDROOT
BRANCH   4   7
ATOM      7  N   UNL d   1      29.253 -16.512   0.450  0.00  0.00    -0.106 N 
ATOM      8  H   UNL d   1      29.775 -16.310   1.304  0.00  0.00     0.208 HD
BRANCH   7   9
ATOM      9  N   UNL d   1      27.871 -16.537   0.515  0.00  0.00    -0.171 NA
ATOM     10  C   UNL d   1      27.185 -17.613   0.261  0.00  0.00     0.153 C 
BRANCH  10  11
ATOM     11  C   UNL d   1      25.720 -17.528  -0.132  0.00  0.00     0.016 A 
ATOM     12  C   UNL d   1      24.885 -18.573   0.291  0.00  0.00     0.016 A 
ATOM     13  C   UNL d   1      23.550 -18.657  -0.147  0.00  0.00     0.001 A 
ATOM     14  C   UNL d   1      23.006 -17.666  -0.957  0.00  0.00     0.003 A 
ATOM     15  C   UNL d   1      23.818 -16.624  -1.388  0.00  0.00     0.037 A 
ATOM     16  C   UNL d   1      25.173 -16.553  -1.008  0.00  0.00     0.080 A 
BRANCH  16  17
ATOM     17  O   UNL d   1      25.794 -15.505  -1.648  0.00  0.00    -0.346 OA
BRANCH  17  18
ATOM     18  C   UNL d   1      26.309 -14.511  -0.782  0.00  0.00     0.214 C 
BRANCH  18  19
ATOM     19  C   UNL d   1      27.393 -13.667  -1.346  0.00  0.00    -0.034 C 
ATOM     20  C   UNL d   1      28.277 -14.225  -2.251  0.00  0.00     0.009 C 
ATOM     21  C   UNL d   1      29.309 -13.447  -2.733  0.00  0.00     0.001 C 
ATOM     22  C   UNL d   1      29.349 -12.077  -2.454  0.00  0.00     0.000 C 
ATOM     23  C   UNL d   1      28.395 -11.488  -1.632  0.00  0.00     0.001 C 
ATOM     24  C   UNL d   1      27.443 -12.297  -1.041  0.00  0.00     0.009 C 
ENDBRANCH  18  19
ENDBRANCH  17  18
ENDBRANCH  16  17
ENDBRANCH  10  11
ENDBRANCH   7   9
ENDBRANCH   4   7
BRANCH   1  25
ATOM     25  S   UNL d   1      31.182 -17.766  -4.188  0.00  0.00    -0.087 SA
BRANCH  25  26
ATOM     26  C   UNL d   1      29.746 -16.998  -5.010  0.00  0.00     0.092 C 
BRANCH  26  27
ATOM     27  C   UNL d   1      30.060 -15.534  -5.278  0.00  0.00     0.113 C 
BRANCH  27  28
ATOM     28  C   UNL d   1      30.168 -15.183  -6.747  0.00  0.00     0.222 C 
ATOM     29  O   UNL d   1      30.904 -15.822  -7.526  0.00  0.00    -0.273 OA
ATOM     30  N   UNL d   1      29.339 -14.231  -7.268  0.00  0.00    -0.326 N 
ATOM     31  H   UNL d   1      29.243 -14.280  -8.281  0.00  0.00     0.169 HD
BRANCH  30  32
ATOM     32  C   UNL d   1      28.519 -13.310  -6.582  0.00  0.00     0.045 A 
ATOM     33  C   UNL d   1      28.920 -11.947  -6.736  0.00  0.00     0.030 A 
ATOM     34  C   UNL d   1      28.225 -10.932  -6.099  0.00  0.00     0.003 A 
ATOM     35  C   UNL d   1      27.113 -11.275  -5.352  0.00  0.00     0.012 A 
ATOM     36  C   UNL d   1      26.708 -12.611  -5.183  0.00  0.00    -0.027 A 
ATOM     37  C   UNL d   1      25.654 -12.833  -4.312  0.00  0.00    -0.005 C 
ATOM     38  C   UNL d   1      27.366 -13.708  -5.764  0.00  0.00     0.000 A 
ATOM     39  C   UNL d   1      25.307 -14.115  -3.913  0.00  0.00     0.043 C 
ATOM     40  C   UNL d   1      25.530 -15.164  -4.742  0.00  0.00    -0.016 C 
ATOM     41  C   UNL d   1      26.758 -15.029  -5.399  0.00  0.00     0.011 C 
ENDBRANCH  30  32
ENDBRANCH  27  28
ENDBRANCH  26  27
ENDBRANCH  25  26
ENDBRANCH   1  25
TORSDOF 11
ENDMDL
MODEL 7
REMARK VINA RESULT:    -9.461      2.762      5.363
REMARK INTER + INTRA:         -17.286
REMARK INTER:                 -12.742
REMARK INTRA:                  -4.543
REMARK CONF_INDEPENDENT:        3.281
REMARK UNBOUND:                -4.543
REMARK  11 active torsions:
REMARK  status: ('A' for Active; 'I' for Inactive)
REMARK    1  A    between atoms: C_2  and  C_3 
REMARK       I    between atoms: C_2  and  N_28 
REMARK    2  A    between atoms: C_3  and  C_4 
REMARK    3  A    between atoms: C_4  and  S_5 
REMARK    4  A    between atoms: S_5  and  C_6 
REMARK    5  A    between atoms: C_9  and  N_10 
REMARK    6  A    between atoms: N_10  and  N_11 
REMARK    7  A    between atoms: C_12  and  C_13 
REMARK    8  A    between atoms: C_18  and  O_19 
REMARK    9  A    between atoms: O_19  and  C_20 
REMARK   10  A    between atoms: C_20  and  C_21 
REMARK   11  A    between atoms: N_28  and  C_29 
ROOT
ATOM      1  C   UNL d   1      30.142 -14.122  -0.578  0.00  0.00     0.226 A 
ATOM      2  N   UNL d   1      30.854 -14.365   0.526  0.00  0.00    -0.132 NA
ATOM      3  N   UNL d   1      30.275 -15.491   0.975  0.00  0.00    -0.103 N 
ATOM      4  C   UNL d   1      29.247 -15.918   0.169  0.00  0.00     0.739 A 
ATOM      5  N   UNL d   1      29.152 -15.045  -0.825  0.00  0.00    -0.034 NA
ATOM      6  H   UNL d   1      30.633 -15.906   1.822  0.00  0.00     0.208 HD
ENDROOT
BRANCH   4   7
ATOM      7  N   UNL d   1      28.559 -17.094   0.423  0.00  0.00    -0.106 N 
ATOM      8  H   UNL d   1      29.010 -17.986   0.215  0.00  0.00     0.208 HD
BRANCH   7   9
ATOM      9  N   UNL d   1      27.187 -17.079   0.610  0.00  0.00    -0.171 NA
ATOM     10  C   UNL d   1      26.405 -17.972   0.078  0.00  0.00     0.153 C 
BRANCH  10  11
ATOM     11  C   UNL d   1      24.926 -17.694  -0.119  0.00  0.00     0.016 A 
ATOM     12  C   UNL d   1      24.039 -18.755   0.119  0.00  0.00     0.016 A 
ATOM     13  C   UNL d   1      22.669 -18.636  -0.178  0.00  0.00     0.001 A 
ATOM     14  C   UNL d   1      22.148 -17.437  -0.652  0.00  0.00     0.003 A 
ATOM     15  C   UNL d   1      23.010 -16.375  -0.895  0.00  0.00     0.037 A 
ATOM     16  C   UNL d   1      24.394 -16.493  -0.660  0.00  0.00     0.080 A 
BRANCH  16  17
ATOM     17  O   UNL d   1      25.048 -15.358  -1.083  0.00  0.00    -0.346 OA
BRANCH  17  18
ATOM     18  C   UNL d   1      24.817 -15.020  -2.438  0.00  0.00     0.214 C 
BRANCH  18  19
ATOM     19  C   UNL d   1      26.012 -15.058  -3.321  0.00  0.00    -0.034 C 
ATOM     20  C   UNL d   1      27.174 -15.646  -2.855  0.00  0.00     0.009 C 
ATOM     21  C   UNL d   1      28.291 -15.633  -3.664  0.00  0.00     0.001 C 
ATOM     22  C   UNL d   1      28.196 -15.201  -4.991  0.00  0.00     0.000 C 
ATOM     23  C   UNL d   1      26.998 -14.712  -5.498  0.00  0.00     0.001 C 
ATOM     24  C   UNL d   1      25.917 -14.598  -4.644  0.00  0.00     0.009 C 
ENDBRANCH  18  19
ENDBRANCH  17  18
ENDBRANCH  16  17
ENDBRANCH  10  11
ENDBRANCH   7   9
ENDBRANCH   4   7
BRANCH   1  25
ATOM     25  S   UNL d   1      30.636 -12.822  -1.637  0.00  0.00    -0.087 SA
BRANCH  25  26
ATOM     26  C   UNL d   1      29.104 -11.866  -1.893  0.00  0.00     0.092 C 
BRANCH  26  27
ATOM     27  C   UNL d   1      28.327 -11.825  -0.586  0.00  0.00     0.113 C 
BRANCH  27  28
ATOM     28  C   UNL d   1      27.047 -12.636  -0.602  0.00  0.00     0.222 C 
ATOM     29  O   UNL d   1      26.387 -12.807  -1.647  0.00  0.00    -0.273 OA
ATOM     30  N   UNL d   1      26.673 -13.313   0.523  0.00  0.00    -0.326 N 
ATOM     31  H   UNL d   1      26.011 -14.066   0.348  0.00  0.00     0.169 HD
BRANCH  30  32
ATOM     32  C   UNL d   1      27.182 -13.188   1.834  0.00  0.00     0.045 A 
ATOM     33  C   UNL d   1      27.650 -14.415   2.396  0.00  0.00     0.030 A 
ATOM     34  C   UNL d   1      28.153 -14.452   3.686  0.00  0.00     0.003 A 
ATOM     35  C   UNL d   1      28.228 -13.263   4.389  0.00  0.00     0.012 A 
ATOM     36  C   UNL d   1      27.765 -12.048   3.855  0.00  0.00    -0.027 A 
ATOM     37  C   UNL d   1      27.781 -10.953   4.704  0.00  0.00    -0.005 C 
ATOM     38  C   UNL d   1      27.213 -11.917   2.570  0.00  0.00     0.000 A 
ATOM     39  C   UNL d   1      27.163  -9.762   4.355  0.00  0.00     0.043 C 
ATOM     40  C   UNL d   1      27.061  -9.411   3.050  0.00  0.00    -0.016 C 
ATOM     41  C   UNL d   1      26.762 -10.522   2.255  0.00  0.00     0.011 C 
ENDBRANCH  30  32
ENDBRANCH  27  28
ENDBRANCH  26  27
ENDBRANCH  25  26
ENDBRANCH   1  25
TORSDOF 11
ENDMDL
MODEL 8
REMARK VINA RESULT:    -9.381      3.670      7.254
REMARK INTER + INTRA:         -17.041
REMARK INTER:                 -12.662
REMARK INTRA:                  -4.379
REMARK CONF_INDEPENDENT:        3.281
REMARK UNBOUND:                -4.379
REMARK  11 active torsions:
REMARK  status: ('A' for Active; 'I' for Inactive)
REMARK    1  A    between atoms: C_2  and  C_3 
REMARK       I    between atoms: C_2  and  N_28 
REMARK    2  A    between atoms: C_3  and  C_4 
REMARK    3  A    between atoms: C_4  and  S_5 
REMARK    4  A    between atoms: S_5  and  C_6 
REMARK    5  A    between atoms: C_9  and  N_10 
REMARK    6  A    between atoms: N_10  and  N_11 
REMARK    7  A    between atoms: C_12  and  C_13 
REMARK    8  A    between atoms: C_18  and  O_19 
REMARK    9  A    between atoms: O_19  and  C_20 
REMARK   10  A    between atoms: C_20  and  C_21 
REMARK   11  A    between atoms: N_28  and  C_29 
ROOT
ATOM      1  C   UNL d   1      29.027 -13.987   3.280  0.00  0.00     0.226 A 
ATOM      2  N   UNL d   1      29.953 -14.187   4.222  0.00  0.00    -0.132 NA
ATOM      3  N   UNL d   1      30.961 -14.706   3.501  0.00  0.00    -0.103 N 
ATOM      4  C   UNL d   1      30.657 -14.815   2.165  0.00  0.00     0.739 A 
ATOM      5  N   UNL d   1      29.419 -14.361   2.016  0.00  0.00    -0.034 NA
ATOM      6  H   UNL d   1      31.813 -14.953   3.981  0.00  0.00     0.208 HD
ENDROOT
BRANCH   4   7
ATOM      7  N   UNL d   1      31.583 -15.269   1.239  0.00  0.00    -0.106 N 
ATOM      8  H   UNL d   1      32.574 -15.087   1.401  0.00  0.00     0.208 HD
BRANCH   7   9
ATOM      9  N   UNL d   1      31.182 -15.638  -0.033  0.00  0.00    -0.171 NA
ATOM     10  C   UNL d   1      30.665 -16.805  -0.286  0.00  0.00     0.153 C 
BRANCH  10  11
ATOM     11  C   UNL d   1      30.676 -17.373  -1.695  0.00  0.00     0.016 A 
ATOM     12  C   UNL d   1      31.655 -18.335  -1.987  0.00  0.00     0.016 A 
ATOM     13  C   UNL d   1      31.836 -18.808  -3.299  0.00  0.00     0.001 A 
ATOM     14  C   UNL d   1      31.003 -18.383  -4.329  0.00  0.00     0.003 A 
ATOM     15  C   UNL d   1      30.029 -17.430  -4.059  0.00  0.00     0.037 A 
ATOM     16  C   UNL d   1      29.869 -16.900  -2.763  0.00  0.00     0.080 A 
BRANCH  16  17
ATOM     17  O   UNL d   1      28.927 -15.896  -2.772  0.00  0.00    -0.346 OA
BRANCH  17  18
ATOM     18  C   UNL d   1      28.421 -15.578  -4.055  0.00  0.00     0.214 C 
BRANCH  18  19
ATOM     19  C   UNL d   1      27.272 -14.637  -4.076  0.00  0.00    -0.034 C 
ATOM     20  C   UNL d   1      25.996 -15.129  -3.872  0.00  0.00     0.009 C 
ATOM     21  C   UNL d   1      24.931 -14.255  -3.941  0.00  0.00     0.001 C 
ATOM     22  C   UNL d   1      25.155 -12.877  -4.032  0.00  0.00     0.000 C 
ATOM     23  C   UNL d   1      26.445 -12.369  -4.126  0.00  0.00     0.001 C 
ATOM     24  C   UNL d   1      27.502 -13.257  -4.194  0.00  0.00     0.009 C 
ENDBRANCH  18  19
ENDBRANCH  17  18
ENDBRANCH  16  17
ENDBRANCH  10  11
ENDBRANCH   7   9
ENDBRANCH   4   7
BRANCH   1  25
ATOM     25  S   UNL d   1      27.555 -13.146   3.703  0.00  0.00    -0.087 SA
BRANCH  25  26
ATOM     26  C   UNL d   1      26.943 -12.513   2.106  0.00  0.00     0.092 C 
BRANCH  26  27
ATOM     27  C   UNL d   1      26.429 -13.682   1.279  0.00  0.00     0.113 C 
BRANCH  27  28
ATOM     28  C   UNL d   1      26.786 -13.604  -0.191  0.00  0.00     0.222 C 
ATOM     29  O   UNL d   1      27.079 -12.524  -0.743  0.00  0.00    -0.273 OA
ATOM     30  N   UNL d   1      26.923 -14.760  -0.906  0.00  0.00    -0.326 N 
ATOM     31  H   UNL d   1      27.462 -14.650  -1.762  0.00  0.00     0.169 HD
BRANCH  30  32
ATOM     32  C   UNL d   1      26.542 -16.069  -0.542  0.00  0.00     0.045 A 
ATOM     33  C   UNL d   1      27.625 -16.890  -0.102  0.00  0.00     0.030 A 
ATOM     34  C   UNL d   1      27.406 -18.208   0.263  0.00  0.00     0.003 A 
ATOM     35  C   UNL d   1      26.109 -18.685   0.231  0.00  0.00     0.012 A 
ATOM     36  C   UNL d   1      25.032 -17.894  -0.207  0.00  0.00    -0.027 A 
ATOM     37  C   UNL d   1      23.803 -18.526  -0.311  0.00  0.00    -0.005 C 
ATOM     38  C   UNL d   1      25.159 -16.559  -0.624  0.00  0.00     0.000 A 
ATOM     39  C   UNL d   1      22.724 -17.905  -0.922  0.00  0.00     0.043 C 
ATOM     40  C   UNL d   1      22.617 -16.554  -0.894  0.00  0.00    -0.016 C 
ATOM     41  C   UNL d   1      23.866 -15.950  -1.078  0.00  0.00     0.011 C 
ENDBRANCH  30  32
ENDBRANCH  27  28
ENDBRANCH  26  27
ENDBRANCH  25  26
ENDBRANCH   1  25
TORSDOF 11
ENDMDL
