MODEL 1
REMARK VINA RESULT:    -9.654      0.000      0.000
REMARK INTER + INTRA:         -13.129
REMARK INTER:                 -12.637
REMARK INTRA:                  -0.492
REMARK CONF_INDEPENDENT:        2.983
REMARK UNBOUND:                -0.492
REMARK  10 active torsions:
REMARK  status: ('A' for Active; 'I' for Inactive)
REMARK    1  A    between atoms: C_2  and  C_3 
REMARK    2  A    between atoms: C_3  and  N_4 
REMARK       I    between atoms: N_4  and  C_5 
REMARK    3  A    between atoms: C_5  and  C_7 
REMARK    4  A    between atoms: C_7  and  C_8 
REMARK    5  A    between atoms: C_8  and  S_9 
REMARK    6  A    between atoms: S_9  and  C_10 
REMARK    7  A    between atoms: C_13  and  N_14 
REMARK    8  A    between atoms: N_14  and  N_15 
REMARK    9  A    between atoms: C_16  and  C_18 
REMARK   10  A    between atoms: C_19  and  C_20 
ROOT
ATOM      1  C   UNL d   1      26.322 -16.683  -0.422  0.00  0.00     0.226 A 
ATOM      2  N   UNL d   1      27.323 -17.468  -0.007  0.00  0.00    -0.132 NA
ATOM      3  N   UNL d   1      27.996 -16.624   0.805  0.00  0.00    -0.103 N 
ATOM      4  C   UNL d   1      27.408 -15.385   0.870  0.00  0.00     0.739 A 
ATOM      5  N   UNL d   1      26.331 -15.417   0.114  0.00  0.00    -0.034 NA
ATOM      6  H   UNL d   1      28.835 -16.952   1.267  0.00  0.00     0.208 HD
ENDROOT
BRANCH   4   7
ATOM      7  N   UNL d   1      27.946 -14.377   1.619  0.00  0.00    -0.106 N 
ATOM      8  H   UNL d   1      28.463 -13.646   1.144  0.00  0.00     0.208 HD
BRANCH   7   9
ATOM      9  N   UNL d   1      27.761 -14.288   2.976  0.00  0.00    -0.165 NA
ATOM     10  C   UNL d   1      28.776 -14.241   3.801  0.00  0.00     0.051 C 
ATOM     11  C   UNL d   1      30.236 -14.288   3.405  0.00  0.00     0.072 C 
BRANCH  10  12
ATOM     12  C   UNL d   1      28.476 -14.142   5.277  0.00  0.00     0.029 C 
ATOM     13  C   UNL d   1      29.094 -13.310   6.136  0.00  0.00     0.013 C 
BRANCH  13  14
ATOM     14  C   UNL d   1      28.827 -13.303   7.587  0.00  0.00    -0.036 A 
ATOM     15  C   UNL d   1      28.409 -12.139   8.249  0.00  0.00     0.011 A 
ATOM     16  C   UNL d   1      28.261 -12.130   9.643  0.00  0.00     0.001 A 
ATOM     17  C   UNL d   1      28.477 -13.294  10.378  0.00  0.00     0.000 A 
ATOM     18  C   UNL d   1      28.894 -14.452   9.730  0.00  0.00     0.001 A 
ATOM     19  C   UNL d   1      29.085 -14.449   8.347  0.00  0.00     0.011 A 
ENDBRANCH  13  14
ENDBRANCH  10  12
ENDBRANCH   7   9
ENDBRANCH   4   7
BRANCH   1  20
ATOM     20  S   UNL d   1      25.012 -17.251  -1.444  0.00  0.00    -0.087 SA
BRANCH  20  21
ATOM     21  C   UNL d   1      23.668 -17.624  -0.264  0.00  0.00     0.091 C 
BRANCH  21  22
ATOM     22  C   UNL d   1      23.243 -19.110  -0.337  0.00  0.00     0.113 C 
BRANCH  22  23
ATOM     23  C   UNL d   1      21.734 -19.248  -0.537  0.00  0.00     0.218 C 
ATOM     24  N   UNL d   1      20.968 -19.374   0.613  0.00  0.00    -0.358 N 
ATOM     25  H   UNL d   1      21.407 -19.370   1.525  0.00  0.00     0.162 HD
ATOM     26  O   UNL d   1      21.219 -19.248  -1.658  0.00  0.00    -0.274 OA
BRANCH  24  27
ATOM     27  C   UNL d   1      19.525 -19.510   0.497  0.00  0.00     0.149 C 
BRANCH  27  28
ATOM     28  C   UNL d   1      18.975 -20.566   1.411  0.00  0.00    -0.018 C 
ATOM     29  C   UNL d   1      18.131 -21.519   0.980  0.00  0.00     0.008 C 
ENDBRANCH  27  28
ENDBRANCH  24  27
ENDBRANCH  22  23
ENDBRANCH  21  22
ENDBRANCH  20  21
ENDBRANCH   1  20
TORSDOF 10
ENDMDL
MODEL 2
REMARK VINA RESULT:    -9.639      5.796      9.304
REMARK INTER + INTRA:         -13.175
REMARK INTER:                 -12.622
REMARK INTRA:                  -0.553
REMARK CONF_INDEPENDENT:        2.983
REMARK UNBOUND:                -0.553
REMARK  10 active torsions:
REMARK  status: ('A' for Active; 'I' for Inactive)
REMARK    1  A    between atoms: C_2  and  C_3 
REMARK    2  A    between atoms: C_3  and  N_4 
REMARK       I    between atoms: N_4  and  C_5 
REMARK    3  A    between atoms: C_5  and  C_7 
REMARK    4  A    between atoms: C_7  and  C_8 
REMARK    5  A    between atoms: C_8  and  S_9 
REMARK    6  A    between atoms: S_9  and  C_10 
REMARK    7  A    between atoms: C_13  and  N_14 
REMARK    8  A    between atoms: N_14  and  N_15 
REMARK    9  A    between atoms: C_16  and  C_18 
REMARK   10  A    between atoms: C_19  and  C_20 
ROOT
ATOM      1  C   UNL d   1      25.852 -17.561  -0.229  0.00  0.00     0.226 A 
ATOM      2  N   UNL d   1      26.062 -18.575   0.618  0.00  0.00    -0.132 NA
ATOM      3  N   UNL d   1      27.407 -18.682   0.569  0.00  0.00    -0.103 N 
ATOM      4  C   UNL d   1      27.971 -17.756  -0.275  0.00  0.00     0.739 A 
ATOM      5  N   UNL d   1      26.996 -17.023  -0.768  0.00  0.00    -0.034 NA
ATOM      6  H   UNL d   1      27.865 -19.398   1.119  0.00  0.00     0.208 HD
ENDROOT
BRANCH   4   7
ATOM      7  N   UNL d   1      29.320 -17.710  -0.485  0.00  0.00    -0.106 N 
ATOM      8  H   UNL d   1      29.931 -17.624   0.319  0.00  0.00     0.208 HD
BRANCH   7   9
ATOM      9  N   UNL d   1      29.876 -17.839  -1.733  0.00  0.00    -0.165 NA
ATOM     10  C   UNL d   1      29.817 -16.868  -2.610  0.00  0.00     0.051 C 
ATOM     11  C   UNL d   1      29.148 -15.528  -2.395  0.00  0.00     0.072 C 
BRANCH  10  12
ATOM     12  C   UNL d   1      30.458 -17.098  -3.956  0.00  0.00     0.029 C 
ATOM     13  C   UNL d   1      30.041 -17.999  -4.866  0.00  0.00     0.013 C 
BRANCH  13  14
ATOM     14  C   UNL d   1      30.746 -18.249  -6.137  0.00  0.00    -0.036 A 
ATOM     15  C   UNL d   1      31.551 -17.266  -6.733  0.00  0.00     0.011 A 
ATOM     16  C   UNL d   1      32.128 -17.490  -7.992  0.00  0.00     0.001 A 
ATOM     17  C   UNL d   1      31.951 -18.712  -8.637  0.00  0.00     0.000 A 
ATOM     18  C   UNL d   1      31.153 -19.691  -8.054  0.00  0.00     0.001 A 
ATOM     19  C   UNL d   1      30.541 -19.452  -6.822  0.00  0.00     0.011 A 
ENDBRANCH  13  14
ENDBRANCH  10  12
ENDBRANCH   7   9
ENDBRANCH   4   7
BRANCH   1  20
ATOM     20  S   UNL d   1      24.268 -16.860  -0.519  0.00  0.00    -0.087 SA
BRANCH  20  21
ATOM     21  C   UNL d   1      23.390 -18.146  -1.474  0.00  0.00     0.091 C 
BRANCH  21  22
ATOM     22  C   UNL d   1      22.887 -19.290  -0.561  0.00  0.00     0.113 C 
BRANCH  22  23
ATOM     23  C   UNL d   1      21.361 -19.350  -0.532  0.00  0.00     0.218 C 
ATOM     24  N   UNL d   1      20.769 -19.433   0.719  0.00  0.00    -0.358 N 
ATOM     25  H   UNL d   1      21.338 -19.449   1.556  0.00  0.00     0.162 HD
ATOM     26  O   UNL d   1      20.686 -19.325  -1.564  0.00  0.00    -0.274 OA
BRANCH  24  27
ATOM     27  C   UNL d   1      19.320 -19.494   0.821  0.00  0.00     0.149 C 
BRANCH  27  28
ATOM     28  C   UNL d   1      18.761 -20.772   0.265  0.00  0.00    -0.018 C 
ATOM     29  C   UNL d   1      17.957 -21.575   0.983  0.00  0.00     0.008 C 
ENDBRANCH  27  28
ENDBRANCH  24  27
ENDBRANCH  22  23
ENDBRANCH  21  22
ENDBRANCH  20  21
ENDBRANCH   1  20
TORSDOF 10
ENDMDL
MODEL 3
REMARK VINA RESULT:    -9.459      3.305      4.419
REMARK INTER + INTRA:         -12.911
REMARK INTER:                 -12.442
REMARK INTRA:                  -0.469
REMARK CONF_INDEPENDENT:        2.983
REMARK UNBOUND:                -0.469
REMARK  10 active torsions:
REMARK  status: ('A' for Active; 'I' for Inactive)
REMARK    1  A    between atoms: C_2  and  C_3 
REMARK    2  A    between atoms: C_3  and  N_4 
REMARK       I    between atoms: N_4  and  C_5 
REMARK    3  A    between atoms: C_5  and  C_7 
REMARK    4  A    between atoms: C_7  and  C_8 
REMARK    5  A    between atoms: C_8  and  S_9 
REMARK    6  A    between atoms: S_9  and  C_10 
REMARK    7  A    between atoms: C_13  and  N_14 
REMARK    8  A    between atoms: N_14  and  N_15 
REMARK    9  A    between atoms: C_16  and  C_18 
REMARK   10  A    between atoms: C_19  and  C_20 
ROOT
ATOM      1  C   UNL d   1      26.165 -16.994  -0.783  0.00  0.00     0.226 A 
ATOM      2  N   UNL d   1      26.867 -18.082  -0.445  0.00  0.00    -0.132 NA
ATOM      3  N   UNL d   1      27.805 -17.547   0.365  0.00  0.00    -0.103 N 
ATOM      4  C   UNL d   1      27.657 -16.188   0.504  0.00  0.00     0.739 A 
ATOM      5  N   UNL d   1      26.605 -15.830  -0.200  0.00  0.00    -0.034 NA
ATOM      6  H   UNL d   1      28.506 -18.152   0.774  0.00  0.00     0.208 HD
ENDROOT
BRANCH   4   7
ATOM      7  N   UNL d   1      28.520 -15.451   1.264  0.00  0.00    -0.106 N 
ATOM      8  H   UNL d   1      29.284 -15.928   1.728  0.00  0.00     0.208 HD
BRANCH   7   9
ATOM      9  N   UNL d   1      28.425 -14.085   1.371  0.00  0.00    -0.165 NA
ATOM     10  C   UNL d   1      28.096 -13.511   2.501  0.00  0.00     0.051 C 
ATOM     11  C   UNL d   1      27.774 -14.230   3.793  0.00  0.00     0.072 C 
BRANCH  10  12
ATOM     12  C   UNL d   1      28.018 -12.004   2.525  0.00  0.00     0.029 C 
ATOM     13  C   UNL d   1      26.878 -11.289   2.486  0.00  0.00     0.013 C 
BRANCH  13  14
ATOM     14  C   UNL d   1      26.851  -9.815   2.429  0.00  0.00    -0.036 A 
ATOM     15  C   UNL d   1      27.527  -9.033   3.377  0.00  0.00     0.011 A 
ATOM     16  C   UNL d   1      27.402  -7.637   3.364  0.00  0.00     0.001 A 
ATOM     17  C   UNL d   1      26.648  -7.010   2.374  0.00  0.00     0.000 A 
ATOM     18  C   UNL d   1      25.972  -7.777   1.431  0.00  0.00     0.001 A 
ATOM     19  C   UNL d   1      26.059  -9.170   1.471  0.00  0.00     0.011 A 
ENDBRANCH  13  14
ENDBRANCH  10  12
ENDBRANCH   7   9
ENDBRANCH   4   7
BRANCH   1  20
ATOM     20  S   UNL d   1      24.708 -17.051  -1.762  0.00  0.00    -0.087 SA
BRANCH  20  21
ATOM     21  C   UNL d   1      23.392 -17.463  -0.563  0.00  0.00     0.091 C 
BRANCH  21  22
ATOM     22  C   UNL d   1      22.702 -18.802  -0.913  0.00  0.00     0.113 C 
BRANCH  22  23
ATOM     23  C   UNL d   1      21.210 -18.762  -0.585  0.00  0.00     0.218 C 
ATOM     24  N   UNL d   1      20.764 -19.659   0.374  0.00  0.00    -0.358 N 
ATOM     25  H   UNL d   1      21.411 -20.297   0.821  0.00  0.00     0.162 HD
ATOM     26  O   UNL d   1      20.439 -17.975  -1.139  0.00  0.00    -0.274 OA
BRANCH  24  27
ATOM     27  C   UNL d   1      19.356 -19.676   0.735  0.00  0.00     0.149 C 
BRANCH  27  28
ATOM     28  C   UNL d   1      18.717 -21.011   0.484  0.00  0.00    -0.018 C 
ATOM     29  C   UNL d   1      17.860 -21.572   1.355  0.00  0.00     0.008 C 
ENDBRANCH  27  28
ENDBRANCH  24  27
ENDBRANCH  22  23
ENDBRANCH  21  22
ENDBRANCH  20  21
ENDBRANCH   1  20
TORSDOF 10
ENDMDL
MODEL 4
REMARK VINA RESULT:    -9.091      5.733      7.989
REMARK INTER + INTRA:         -12.710
REMARK INTER:                 -12.074
REMARK INTRA:                  -0.636
REMARK CONF_INDEPENDENT:        2.983
REMARK UNBOUND:                -0.636
REMARK  10 active torsions:
REMARK  status: ('A' for Active; 'I' for Inactive)
REMARK    1  A    between atoms: C_2  and  C_3 
REMARK    2  A    between atoms: C_3  and  N_4 
REMARK       I    between atoms: N_4  and  C_5 
REMARK    3  A    between atoms: C_5  and  C_7 
REMARK    4  A    between atoms: C_7  and  C_8 
REMARK    5  A    between atoms: C_8  and  S_9 
REMARK    6  A    between atoms: S_9  and  C_10 
REMARK    7  A    between atoms: C_13  and  N_14 
REMARK    8  A    between atoms: N_14  and  N_15 
REMARK    9  A    between atoms: C_16  and  C_18 
REMARK   10  A    between atoms: C_19  and  C_20 
ROOT
ATOM      1  C   UNL d   1      25.743 -17.839   0.200  0.00  0.00     0.226 A 
ATOM      2  N   UNL d   1      26.793 -18.500   0.702  0.00  0.00    -0.132 NA
ATOM      3  N   UNL d   1      27.818 -17.790   0.184  0.00  0.00    -0.103 N 
ATOM      4  C   UNL d   1      27.386 -16.742  -0.592  0.00  0.00     0.739 A 
ATOM      5  N   UNL d   1      26.071 -16.748  -0.569  0.00  0.00    -0.034 NA
ATOM      6  H   UNL d   1      28.767 -18.076   0.391  0.00  0.00     0.208 HD
ENDROOT
BRANCH   4   7
ATOM      7  N   UNL d   1      28.268 -15.914  -1.227  0.00  0.00    -0.106 N 
ATOM      8  H   UNL d   1      29.196 -16.264  -1.432  0.00  0.00     0.208 HD
BRANCH   7   9
ATOM      9  N   UNL d   1      27.921 -14.655  -1.650  0.00  0.00    -0.165 NA
ATOM     10  C   UNL d   1      27.127 -14.474  -2.675  0.00  0.00     0.051 C 
ATOM     11  C   UNL d   1      26.511 -15.572  -3.515  0.00  0.00     0.072 C 
BRANCH  10  12
ATOM     12  C   UNL d   1      26.800 -13.054  -3.067  0.00  0.00     0.029 C 
ATOM     13  C   UNL d   1      26.084 -12.698  -4.151  0.00  0.00     0.013 C 
BRANCH  13  14
ATOM     14  C   UNL d   1      25.857 -11.294  -4.542  0.00  0.00    -0.036 A 
ATOM     15  C   UNL d   1      25.926 -10.887  -5.883  0.00  0.00     0.011 A 
ATOM     16  C   UNL d   1      25.809  -9.531  -6.220  0.00  0.00     0.001 A 
ATOM     17  C   UNL d   1      25.567  -8.581  -5.229  0.00  0.00     0.000 A 
ATOM     18  C   UNL d   1      25.498  -8.976  -3.897  0.00  0.00     0.001 A 
ATOM     19  C   UNL d   1      25.661 -10.320  -3.556  0.00  0.00     0.011 A 
ENDBRANCH  13  14
ENDBRANCH  10  12
ENDBRANCH   7   9
ENDBRANCH   4   7
BRANCH   1  20
ATOM     20  S   UNL d   1      24.078 -18.223   0.606  0.00  0.00    -0.087 SA
BRANCH  20  21
ATOM     21  C   UNL d   1      23.145 -17.767  -0.897  0.00  0.00     0.091 C 
BRANCH  21  22
ATOM     22  C   UNL d   1      22.218 -18.916  -1.362  0.00  0.00     0.113 C 
BRANCH  22  23
ATOM     23  C   UNL d   1      20.925 -18.952  -0.549  0.00  0.00     0.218 C 
ATOM     24  N   UNL d   1      20.941 -19.722   0.604  0.00  0.00    -0.358 N 
ATOM     25  H   UNL d   1      21.777 -20.223   0.875  0.00  0.00     0.162 HD
ATOM     26  O   UNL d   1      19.917 -18.330  -0.896  0.00  0.00    -0.274 OA
BRANCH  24  27
ATOM     27  C   UNL d   1      19.744 -19.801   1.425  0.00  0.00     0.149 C 
BRANCH  27  28
ATOM     28  C   UNL d   1      18.579 -20.391   0.683  0.00  0.00    -0.018 C 
ATOM     29  C   UNL d   1      18.077 -21.602   0.982  0.00  0.00     0.008 C 
ENDBRANCH  27  28
ENDBRANCH  24  27
ENDBRANCH  22  23
ENDBRANCH  21  22
ENDBRANCH  20  21
ENDBRANCH   1  20
TORSDOF 10
ENDMDL
MODEL 5
REMARK VINA RESULT:    -8.623      3.080      9.883
REMARK INTER + INTRA:         -13.026
REMARK INTER:                 -11.606
REMARK INTRA:                  -1.420
REMARK CONF_INDEPENDENT:        2.983
REMARK UNBOUND:                -1.420
REMARK  10 active torsions:
REMARK  status: ('A' for Active; 'I' for Inactive)
REMARK    1  A    between atoms: C_2  and  C_3 
REMARK    2  A    between atoms: C_3  and  N_4 
REMARK       I    between atoms: N_4  and  C_5 
REMARK    3  A    between atoms: C_5  and  C_7 
REMARK    4  A    between atoms: C_7  and  C_8 
REMARK    5  A    between atoms: C_8  and  S_9 
REMARK    6  A    between atoms: S_9  and  C_10 
REMARK    7  A    between atoms: C_13  and  N_14 
REMARK    8  A    between atoms: N_14  and  N_15 
REMARK    9  A    between atoms: C_16  and  C_18 
REMARK   10  A    between atoms: C_19  and  C_20 
ROOT
ATOM      1  C   UNL d   1      27.300 -14.424   1.068  0.00  0.00     0.226 A 
ATOM      2  N   UNL d   1      28.526 -14.857   1.387  0.00  0.00    -0.132 NA
ATOM      3  N   UNL d   1      28.464 -16.141   0.971  0.00  0.00    -0.103 N 
ATOM      4  C   UNL d   1      27.245 -16.451   0.420  0.00  0.00     0.739 A 
ATOM      5  N   UNL d   1      26.506 -15.362   0.454  0.00  0.00    -0.034 NA
ATOM      6  H   UNL d   1      29.272 -16.738   1.097  0.00  0.00     0.208 HD
ENDROOT
BRANCH   4   7
ATOM      7  N   UNL d   1      26.969 -17.706  -0.042  0.00  0.00    -0.106 N 
ATOM      8  H   UNL d   1      27.741 -18.292  -0.337  0.00  0.00     0.208 HD
BRANCH   7   9
ATOM      9  N   UNL d   1      25.697 -18.221  -0.061  0.00  0.00    -0.165 NA
ATOM     10  C   UNL d   1      24.805 -17.805  -0.924  0.00  0.00     0.051 C 
ATOM     11  C   UNL d   1      25.027 -16.737  -1.973  0.00  0.00     0.072 C 
BRANCH  10  12
ATOM     12  C   UNL d   1      23.432 -18.430  -0.872  0.00  0.00     0.029 C 
ATOM     13  C   UNL d   1      22.534 -18.239   0.113  0.00  0.00     0.013 C 
BRANCH  13  14
ATOM     14  C   UNL d   1      21.234 -18.934   0.166  0.00  0.00    -0.036 A 
ATOM     15  C   UNL d   1      20.462 -19.130  -0.988  0.00  0.00     0.011 A 
ATOM     16  C   UNL d   1      19.184 -19.701  -0.898  0.00  0.00     0.001 A 
ATOM     17  C   UNL d   1      18.693 -20.128   0.335  0.00  0.00     0.000 A 
ATOM     18  C   UNL d   1      19.451 -19.935   1.484  0.00  0.00     0.001 A 
ATOM     19  C   UNL d   1      20.704 -19.325   1.401  0.00  0.00     0.011 A 
ENDBRANCH  13  14
ENDBRANCH  10  12
ENDBRANCH   7   9
ENDBRANCH   4   7
BRANCH   1  20
ATOM     20  S   UNL d   1      26.785 -12.757   1.269  0.00  0.00    -0.087 SA
BRANCH  20  21
ATOM     21  C   UNL d   1      28.327 -11.797   1.071  0.00  0.00     0.091 C 
BRANCH  21  22
ATOM     22  C   UNL d   1      29.203 -11.859   2.346  0.00  0.00     0.113 C 
BRANCH  22  23
ATOM     23  C   UNL d   1      28.397 -12.338   3.552  0.00  0.00     0.218 C 
ATOM     24  N   UNL d   1      28.479 -13.690   3.852  0.00  0.00    -0.358 N 
ATOM     25  H   UNL d   1      29.050 -14.307   3.289  0.00  0.00     0.162 HD
ATOM     26  O   UNL d   1      27.709 -11.569   4.227  0.00  0.00    -0.274 OA
BRANCH  24  27
ATOM     27  C   UNL d   1      27.737 -14.215   4.987  0.00  0.00     0.149 C 
BRANCH  27  28
ATOM     28  C   UNL d   1      28.566 -14.266   6.238  0.00  0.00    -0.018 C 
ATOM     29  C   UNL d   1      28.526 -13.294   7.165  0.00  0.00     0.008 C 
ENDBRANCH  27  28
ENDBRANCH  24  27
ENDBRANCH  22  23
ENDBRANCH  21  22
ENDBRANCH  20  21
ENDBRANCH   1  20
TORSDOF 10
ENDMDL
MODEL 6
REMARK VINA RESULT:    -8.484      6.329      9.200
REMARK INTER + INTRA:         -13.192
REMARK INTER:                 -11.467
REMARK INTRA:                  -1.725
REMARK CONF_INDEPENDENT:        2.983
REMARK UNBOUND:                -1.725
REMARK  10 active torsions:
REMARK  status: ('A' for Active; 'I' for Inactive)
REMARK    1  A    between atoms: C_2  and  C_3 
REMARK    2  A    between atoms: C_3  and  N_4 
REMARK       I    between atoms: N_4  and  C_5 
REMARK    3  A    between atoms: C_5  and  C_7 
REMARK    4  A    between atoms: C_7  and  C_8 
REMARK    5  A    between atoms: C_8  and  S_9 
REMARK    6  A    between atoms: S_9  and  C_10 
REMARK    7  A    between atoms: C_13  and  N_14 
REMARK    8  A    between atoms: N_14  and  N_15 
REMARK    9  A    between atoms: C_16  and  C_18 
REMARK   10  A    between atoms: C_19  and  C_20 
ROOT
ATOM      1  C   UNL d   1      29.920 -17.243  -2.497  0.00  0.00     0.226 A 
ATOM      2  N   UNL d   1      30.797 -17.698  -1.595  0.00  0.00    -0.132 NA
ATOM      3  N   UNL d   1      30.014 -17.802  -0.499  0.00  0.00    -0.103 N 
ATOM      4  C   UNL d   1      28.717 -17.427  -0.750  0.00  0.00     0.739 A 
ATOM      5  N   UNL d   1      28.639 -17.094  -2.021  0.00  0.00    -0.034 NA
ATOM      6  H   UNL d   1      30.424 -18.122   0.369  0.00  0.00     0.208 HD
ENDROOT
BRANCH   4   7
ATOM      7  N   UNL d   1      27.769 -17.436   0.233  0.00  0.00    -0.106 N 
ATOM      8  H   UNL d   1      27.963 -16.942   1.095  0.00  0.00     0.208 HD
BRANCH   7   9
ATOM      9  N   UNL d   1      26.545 -18.036   0.070  0.00  0.00    -0.165 NA
ATOM     10  C   UNL d   1      25.498 -17.356  -0.323  0.00  0.00     0.051 C 
ATOM     11  C   UNL d   1      25.476 -15.874  -0.630  0.00  0.00     0.072 C 
BRANCH  10  12
ATOM     12  C   UNL d   1      24.194 -18.100  -0.476  0.00  0.00     0.029 C 
ATOM     13  C   UNL d   1      23.053 -17.799   0.172  0.00  0.00     0.013 C 
BRANCH  13  14
ATOM     14  C   UNL d   1      21.822 -18.603   0.054  0.00  0.00    -0.036 A 
ATOM     15  C   UNL d   1      21.291 -18.951  -1.197  0.00  0.00     0.011 A 
ATOM     16  C   UNL d   1      20.065 -19.628  -1.284  0.00  0.00     0.001 A 
ATOM     17  C   UNL d   1      19.391 -20.008  -0.126  0.00  0.00     0.000 A 
ATOM     18  C   UNL d   1      19.909 -19.665   1.119  0.00  0.00     0.001 A 
ATOM     19  C   UNL d   1      21.105 -18.952   1.206  0.00  0.00     0.011 A 
ENDBRANCH  13  14
ENDBRANCH  10  12
ENDBRANCH   7   9
ENDBRANCH   4   7
BRANCH   1  20
ATOM     20  S   UNL d   1      30.316 -17.002  -4.191  0.00  0.00    -0.087 SA
BRANCH  20  21
ATOM     21  C   UNL d   1      30.315 -15.185  -4.385  0.00  0.00     0.091 C 
BRANCH  21  22
ATOM     22  C   UNL d   1      29.579 -14.751  -5.675  0.00  0.00     0.113 C 
BRANCH  22  23
ATOM     23  C   UNL d   1      28.065 -14.711  -5.466  0.00  0.00     0.218 C 
ATOM     24  N   UNL d   1      27.558 -15.532  -4.469  0.00  0.00    -0.358 N 
ATOM     25  H   UNL d   1      28.176 -16.116  -3.921  0.00  0.00     0.162 HD
ATOM     26  O   UNL d   1      27.330 -13.989  -6.143  0.00  0.00    -0.274 OA
BRANCH  24  27
ATOM     27  C   UNL d   1      26.127 -15.544  -4.216  0.00  0.00     0.149 C 
BRANCH  27  28
ATOM     28  C   UNL d   1      25.626 -14.226  -3.698  0.00  0.00    -0.018 C 
ATOM     29  C   UNL d   1      24.385 -14.074  -3.204  0.00  0.00     0.008 C 
ENDBRANCH  27  28
ENDBRANCH  24  27
ENDBRANCH  22  23
ENDBRANCH  21  22
ENDBRANCH  20  21
ENDBRANCH   1  20
TORSDOF 10
ENDMDL
MODEL 7
REMARK VINA RESULT:    -8.349      5.150      9.365
REMARK INTER + INTRA:         -13.102
REMARK INTER:                 -11.332
REMARK INTRA:                  -1.770
REMARK CONF_INDEPENDENT:        2.983
REMARK UNBOUND:                -1.770
REMARK  10 active torsions:
REMARK  status: ('A' for Active; 'I' for Inactive)
REMARK    1  A    between atoms: C_2  and  C_3 
REMARK    2  A    between atoms: C_3  and  N_4 
REMARK       I    between atoms: N_4  and  C_5 
REMARK    3  A    between atoms: C_5  and  C_7 
REMARK    4  A    between atoms: C_7  and  C_8 
REMARK    5  A    between atoms: C_8  and  S_9 
REMARK    6  A    between atoms: S_9  and  C_10 
REMARK    7  A    between atoms: C_13  and  N_14 
REMARK    8  A    between atoms: N_14  and  N_15 
REMARK    9  A    between atoms: C_16  and  C_18 
REMARK   10  A    between atoms: C_19  and  C_20 
ROOT
ATOM      1  C   UNL d   1      27.342 -14.223   0.639  0.00  0.00     0.226 A 
ATOM      2  N   UNL d   1      28.487 -14.761   1.075  0.00  0.00    -0.132 NA
ATOM      3  N   UNL d   1      28.293 -16.064   0.777  0.00  0.00    -0.103 N 
ATOM      4  C   UNL d   1      27.077 -16.285   0.179  0.00  0.00     0.739 A 
ATOM      5  N   UNL d   1      26.474 -15.121   0.064  0.00  0.00    -0.034 NA
ATOM      6  H   UNL d   1      29.015 -16.734   1.011  0.00  0.00     0.208 HD
ENDROOT
BRANCH   4   7
ATOM      7  N   UNL d   1      26.676 -17.540  -0.180  0.00  0.00    -0.106 N 
ATOM      8  H   UNL d   1      27.294 -18.096  -0.760  0.00  0.00     0.208 HD
BRANCH   7   9
ATOM      9  N   UNL d   1      25.501 -18.094   0.264  0.00  0.00    -0.165 NA
ATOM     10  C   UNL d   1      24.362 -17.843  -0.329  0.00  0.00     0.051 C 
ATOM     11  C   UNL d   1      24.173 -16.938  -1.527  0.00  0.00     0.072 C 
BRANCH  10  12
ATOM     12  C   UNL d   1      23.121 -18.498   0.228  0.00  0.00     0.029 C 
ATOM     13  C   UNL d   1      22.001 -18.753  -0.474  0.00  0.00     0.013 C 
BRANCH  13  14
ATOM     14  C   UNL d   1      20.781 -19.321   0.130  0.00  0.00    -0.036 A 
ATOM     15  C   UNL d   1      20.635 -19.428   1.521  0.00  0.00     0.011 A 
ATOM     16  C   UNL d   1      19.512 -20.064   2.069  0.00  0.00     0.001 A 
ATOM     17  C   UNL d   1      18.505 -20.549   1.236  0.00  0.00     0.000 A 
ATOM     18  C   UNL d   1      18.643 -20.449  -0.144  0.00  0.00     0.001 A 
ATOM     19  C   UNL d   1      19.782 -19.856  -0.692  0.00  0.00     0.011 A 
ENDBRANCH  13  14
ENDBRANCH  10  12
ENDBRANCH   7   9
ENDBRANCH   4   7
BRANCH   1  20
ATOM     20  S   UNL d   1      27.022 -12.496   0.649  0.00  0.00    -0.087 SA
BRANCH  20  21
ATOM     21  C   UNL d   1      28.290 -11.811  -0.474  0.00  0.00     0.091 C 
BRANCH  21  22
ATOM     22  C   UNL d   1      28.442 -12.671  -1.752  0.00  0.00     0.113 C 
BRANCH  22  23
ATOM     23  C   UNL d   1      27.173 -12.634  -2.602  0.00  0.00     0.218 C 
ATOM     24  N   UNL d   1      26.244 -13.637  -2.369  0.00  0.00    -0.358 N 
ATOM     25  H   UNL d   1      26.418 -14.344  -1.666  0.00  0.00     0.162 HD
ATOM     26  O   UNL d   1      26.980 -11.761  -3.452  0.00  0.00    -0.274 OA
BRANCH  24  27
ATOM     27  C   UNL d   1      25.013 -13.663  -3.143  0.00  0.00     0.149 C 
BRANCH  27  28
ATOM     28  C   UNL d   1      25.211 -14.247  -4.511  0.00  0.00    -0.018 C 
ATOM     29  C   UNL d   1      25.973 -15.334  -4.725  0.00  0.00     0.008 C 
ENDBRANCH  27  28
ENDBRANCH  24  27
ENDBRANCH  22  23
ENDBRANCH  21  22
ENDBRANCH  20  21
ENDBRANCH   1  20
TORSDOF 10
ENDMDL
MODEL 8
REMARK VINA RESULT:    -8.276      4.690      9.282
REMARK INTER + INTRA:         -13.090
REMARK INTER:                 -11.259
REMARK INTRA:                  -1.830
REMARK CONF_INDEPENDENT:        2.983
REMARK UNBOUND:                -1.830
REMARK  10 active torsions:
REMARK  status: ('A' for Active; 'I' for Inactive)
REMARK    1  A    between atoms: C_2  and  C_3 
REMARK    2  A    between atoms: C_3  and  N_4 
REMARK       I    between atoms: N_4  and  C_5 
REMARK    3  A    between atoms: C_5  and  C_7 
REMARK    4  A    between atoms: C_7  and  C_8 
REMARK    5  A    between atoms: C_8  and  S_9 
REMARK    6  A    between atoms: S_9  and  C_10 
REMARK    7  A    between atoms: C_13  and  N_14 
REMARK    8  A    between atoms: N_14  and  N_15 
REMARK    9  A    between atoms: C_16  and  C_18 
REMARK   10  A    between atoms: C_19  and  C_20 
ROOT
ATOM      1  C   UNL d   1      28.498 -16.330  -2.218  0.00  0.00     0.226 A 
ATOM      2  N   UNL d   1      29.623 -16.539  -1.524  0.00  0.00    -0.132 NA
ATOM      3  N   UNL d   1      29.145 -17.191  -0.443  0.00  0.00    -0.103 N 
ATOM      4  C   UNL d   1      27.784 -17.367  -0.502  0.00  0.00     0.739 A 
ATOM      5  N   UNL d   1      27.366 -16.846  -1.636  0.00  0.00    -0.034 NA
ATOM      6  H   UNL d   1      29.789 -17.475   0.285  0.00  0.00     0.208 HD
ENDROOT
BRANCH   4   7
ATOM      7  N   UNL d   1      27.100 -17.984   0.506  0.00  0.00    -0.106 N 
ATOM      8  H   UNL d   1      27.493 -17.963   1.440  0.00  0.00     0.208 HD
BRANCH   7   9
ATOM      9  N   UNL d   1      25.876 -18.575   0.312  0.00  0.00    -0.165 NA
ATOM     10  C   UNL d   1      24.835 -17.878  -0.067  0.00  0.00     0.051 C 
ATOM     11  C   UNL d   1      24.820 -16.387  -0.325  0.00  0.00     0.072 C 
BRANCH  10  12
ATOM     12  C   UNL d   1      23.530 -18.613  -0.258  0.00  0.00     0.029 C 
ATOM     13  C   UNL d   1      22.339 -18.209   0.224  0.00  0.00     0.013 C 
BRANCH  13  14
ATOM     14  C   UNL d   1      21.102 -19.000   0.084  0.00  0.00    -0.036 A 
ATOM     15  C   UNL d   1      20.377 -19.020  -1.117  0.00  0.00     0.011 A 
ATOM     16  C   UNL d   1      19.150 -19.695  -1.194  0.00  0.00     0.001 A 
ATOM     17  C   UNL d   1      18.667 -20.398  -0.092  0.00  0.00     0.000 A 
ATOM     18  C   UNL d   1      19.378 -20.382   1.103  0.00  0.00     0.001 A 
ATOM     19  C   UNL d   1      20.577 -19.672   1.194  0.00  0.00     0.011 A 
ENDBRANCH  13  14
ENDBRANCH  10  12
ENDBRANCH   7   9
ENDBRANCH   4   7
BRANCH   1  20
ATOM     20  S   UNL d   1      28.473 -15.600  -3.815  0.00  0.00    -0.087 SA
BRANCH  20  21
ATOM     21  C   UNL d   1      26.696 -15.327  -4.142  0.00  0.00     0.091 C 
BRANCH  21  22
ATOM     22  C   UNL d   1      26.366 -13.821  -4.272  0.00  0.00     0.113 C 
BRANCH  22  23
ATOM     23  C   UNL d   1      26.689 -13.067  -2.983  0.00  0.00     0.218 C 
ATOM     24  N   UNL d   1      26.769 -13.828  -1.826  0.00  0.00    -0.358 N 
ATOM     25  H   UNL d   1      26.621 -14.829  -1.858  0.00  0.00     0.162 HD
ATOM     26  O   UNL d   1      26.869 -11.847  -2.966  0.00  0.00    -0.274 OA
BRANCH  24  27
ATOM     27  C   UNL d   1      27.073 -13.176  -0.563  0.00  0.00     0.149 C 
BRANCH  27  28
ATOM     28  C   UNL d   1      27.114 -14.143   0.585  0.00  0.00    -0.018 C 
ATOM     29  C   UNL d   1      27.177 -13.735   1.865  0.00  0.00     0.008 C 
ENDBRANCH  27  28
ENDBRANCH  24  27
ENDBRANCH  22  23
ENDBRANCH  21  22
ENDBRANCH  20  21
ENDBRANCH   1  20
TORSDOF 10
ENDMDL
MODEL 9
REMARK VINA RESULT:    -8.083      5.514      9.387
REMARK INTER + INTRA:         -12.928
REMARK INTER:                 -11.066
REMARK INTRA:                  -1.862
REMARK CONF_INDEPENDENT:        2.983
REMARK UNBOUND:                -1.862
REMARK  10 active torsions:
REMARK  status: ('A' for Active; 'I' for Inactive)
REMARK    1  A    between atoms: C_2  and  C_3 
REMARK    2  A    between atoms: C_3  and  N_4 
REMARK       I    between atoms: N_4  and  C_5 
REMARK    3  A    between atoms: C_5  and  C_7 
REMARK    4  A    between atoms: C_7  and  C_8 
REMARK    5  A    between atoms: C_8  and  S_9 
REMARK    6  A    between atoms: S_9  and  C_10 
REMARK    7  A    between atoms: C_13  and  N_14 
REMARK    8  A    between atoms: N_14  and  N_15 
REMARK    9  A    between atoms: C_16  and  C_18 
REMARK   10  A    between atoms: C_19  and  C_20 
ROOT
ATOM      1  C   UNL d   1      27.000 -14.426  -0.213  0.00  0.00     0.226 A 
ATOM      2  N   UNL d   1      27.883 -14.643   0.769  0.00  0.00    -0.132 NA
ATOM      3  N   UNL d   1      27.831 -15.988   0.875  0.00  0.00    -0.103 N 
ATOM      4  C   UNL d   1      26.951 -16.546  -0.021  0.00  0.00     0.739 A 
ATOM      5  N   UNL d   1      26.436 -15.567  -0.733  0.00  0.00    -0.034 NA
ATOM      6  H   UNL d   1      28.406 -16.449   1.569  0.00  0.00     0.208 HD
ENDROOT
BRANCH   4   7
ATOM      7  N   UNL d   1      26.734 -17.894  -0.062  0.00  0.00    -0.106 N 
ATOM      8  H   UNL d   1      27.533 -18.509  -0.162  0.00  0.00     0.208 HD
BRANCH   7   9
ATOM      9  N   UNL d   1      25.485 -18.443   0.090  0.00  0.00    -0.165 NA
ATOM     10  C   UNL d   1      24.533 -18.224  -0.782  0.00  0.00     0.051 C 
ATOM     11  C   UNL d   1      24.655 -17.363  -2.020  0.00  0.00     0.072 C 
BRANCH  10  12
ATOM     12  C   UNL d   1      23.192 -18.871  -0.534  0.00  0.00     0.029 C 
ATOM     13  C   UNL d   1      22.260 -18.412   0.321  0.00  0.00     0.013 C 
BRANCH  13  14
ATOM     14  C   UNL d   1      20.995 -19.121   0.594  0.00  0.00    -0.036 A 
ATOM     15  C   UNL d   1      20.538 -19.325   1.904  0.00  0.00     0.011 A 
ATOM     16  C   UNL d   1      19.387 -20.091   2.143  0.00  0.00     0.001 A 
ATOM     17  C   UNL d   1      18.657 -20.610   1.075  0.00  0.00     0.000 A 
ATOM     18  C   UNL d   1      19.104 -20.414  -0.227  0.00  0.00     0.001 A 
ATOM     19  C   UNL d   1      20.275 -19.691  -0.463  0.00  0.00     0.011 A 
ENDBRANCH  13  14
ENDBRANCH  10  12
ENDBRANCH   7   9
ENDBRANCH   4   7
BRANCH   1  20
ATOM     20  S   UNL d   1      26.691 -12.840  -0.899  0.00  0.00    -0.087 SA
BRANCH  20  21
ATOM     21  C   UNL d   1      27.283 -12.986  -2.621  0.00  0.00     0.091 C 
BRANCH  21  22
ATOM     22  C   UNL d   1      26.541 -14.109  -3.385  0.00  0.00     0.113 C 
BRANCH  22  23
ATOM     23  C   UNL d   1      27.506 -15.199  -3.849  0.00  0.00     0.218 C 
ATOM     24  N   UNL d   1      28.331 -15.746  -2.879  0.00  0.00    -0.358 N 
ATOM     25  H   UNL d   1      28.279 -15.428  -1.920  0.00  0.00     0.162 HD
ATOM     26  O   UNL d   1      27.552 -15.575  -5.023  0.00  0.00    -0.274 OA
BRANCH  24  27
ATOM     27  C   UNL d   1      29.275 -16.788  -3.251  0.00  0.00     0.149 C 
BRANCH  27  28
ATOM     28  C   UNL d   1      30.314 -17.023  -2.193  0.00  0.00    -0.018 C 
ATOM     29  C   UNL d   1      30.349 -16.314  -1.051  0.00  0.00     0.008 C 
ENDBRANCH  27  28
ENDBRANCH  24  27
ENDBRANCH  22  23
ENDBRANCH  21  22
ENDBRANCH  20  21
ENDBRANCH   1  20
TORSDOF 10
ENDMDL
