MODEL 1
REMARK VINA RESULT:   -26.892      0.000      0.000
REMARK INTER + INTRA:         -33.337
REMARK INTER:                 -30.471
REMARK INTRA:                  -2.865
REMARK CONF_INDEPENDENT:        3.580
REMARK UNBOUND:                -2.865
REMARK  12 active torsions:
REMARK  status: ('A' for Active; 'I' for Inactive)
REMARK    1  A    between atoms: O_2  and  C_3 
REMARK    2  A    between atoms: C_6  and  N_7 
REMARK    3  A    between atoms: N_7  and  C_8 
REMARK    4  A    between atoms: C_8  and  N_10 
REMARK    5  A    between atoms: N_10  and  C_11 
REMARK    6  A    between atoms: N_10  and  C_15 
REMARK    7  A    between atoms: C_11  and  C_12 
REMARK    8  A    between atoms: C_12  and  C_13 
REMARK    9  A    between atoms: C_13  and  O_14 
REMARK   10  A    between atoms: C_15  and  C_16 
REMARK   11  A    between atoms: C_20  and  O_21 
REMARK   12  A    between atoms: C_29  and  O_30 
ROOT
ATOM      1  N   UNL d   1      24.338 -17.478  -0.940  0.00  0.00    -0.354 N 
ENDROOT
BRANCH   1   2
ATOM      2  C   UNL d   1      24.139 -16.100  -1.253  0.00  0.00     0.174 C 
ATOM      3  S   UNL d   1      22.527 -15.584  -1.267  0.00  0.00    -0.041 SA
BRANCH   2   4
ATOM      4  N   UNL d   1      25.295 -15.311  -1.456  0.00  0.00    -0.331 N 
ATOM      5  H   UNL d   1      25.936 -15.214  -0.713  0.00  0.00     0.168 HD
BRANCH   4   6
ATOM      6  C   UNL d   1      25.715 -14.365  -2.443  0.00  0.00     0.068 C 
ATOM      7  C   UNL d   1      24.895 -14.105  -3.578  0.00  0.00     0.035 C 
ATOM      8  C   UNL d   1      25.356 -13.277  -4.623  0.00  0.00     0.039 C 
ATOM      9  C   UNL d   1      26.617 -12.695  -4.528  0.00  0.00     0.070 C 
ATOM     10  C   UNL d   1      27.370 -12.902  -3.386  0.00  0.00     0.075 C 
ATOM     11  C   UNL d   1      26.893 -13.655  -2.333  0.00  0.00     0.097 C 
BRANCH   9  12
ATOM     12  O   UNL d   1      27.014 -11.815  -5.497  0.00  0.00    -0.356 OA
ATOM     13  C   UNL d   1      26.047 -10.801  -5.787  0.00  0.00     0.210 C 
ENDBRANCH   9  12
BRANCH  11  14
ATOM     14  O   UNL d   1      27.420 -13.497  -1.093  0.00  0.00    -0.354 OA
ATOM     15  C   UNL d   1      27.601 -12.175  -0.613  0.00  0.00     0.210 C 
ENDBRANCH  11  14
ENDBRANCH   4   6
ENDBRANCH   2   4
ENDBRANCH   1   2
BRANCH   1  16
ATOM     16  C   UNL d   1      25.321 -18.029  -0.034  0.00  0.00     0.127 C 
BRANCH  16  17
ATOM     17  C   UNL d   1      26.752 -18.214  -0.410  0.00  0.00     0.046 C 
BRANCH  17  18
ATOM     18  C   UNL d   1      27.703 -17.257   0.238  0.00  0.00     0.165 C 
BRANCH  18  19
ATOM     19  O   UNL d   1      26.931 -16.103   0.559  0.00  0.00    -0.401 OA
ATOM     20  H   UNL d   1      27.096 -15.443  -0.138  0.00  0.00     0.209 HD
ENDBRANCH  18  19
ENDBRANCH  17  18
ENDBRANCH  16  17
ENDBRANCH   1  16
BRANCH   1  21
ATOM     21  C   UNL d   1      23.301 -18.471  -1.423  0.00  0.00     0.169 C 
BRANCH  21  22
ATOM     22  C   UNL d   1      22.000 -18.754  -0.728  0.00  0.00     0.023 C 
ATOM     23  C   UNL d   1      21.934 -19.734   0.207  0.00  0.00     0.027 C 
ATOM     24  C   UNL d   1      20.635 -20.053   0.806  0.00  0.00    -0.011 A 
ATOM     25  C   UNL d   1      20.484 -20.479   2.119  0.00  0.00     0.050 A 
ATOM     26  C   UNL d   1      19.507 -19.885  -0.011  0.00  0.00     0.025 A 
ATOM     27  C   UNL d   1      19.203 -20.770   2.596  0.00  0.00     0.069 A 
ATOM     28  C   UNL d   1      18.082 -20.527   1.789  0.00  0.00     0.038 A 
ATOM     29  C   UNL d   1      18.227 -20.103   0.470  0.00  0.00     0.027 A 
ATOM     30  N   UNL d   1      19.730 -19.291  -1.270  0.00  0.00    -0.224 NA
ATOM     31  C   UNL d   1      20.654 -18.282  -1.159  0.00  0.00     0.233 C 
ATOM     32  H   UNL d   1      18.912 -19.057  -1.815  0.00  0.00     0.137 HD
ATOM     33  O   UNL d   1      20.291 -17.106  -1.275  0.00  0.00    -0.274 OA
BRANCH  27  34
ATOM     34  O   UNL d   1      19.155 -21.309   3.854  0.00  0.00    -0.356 OA
ATOM     35  C   UNL d   1      19.583 -20.450   4.907  0.00  0.00     0.210 C 
ENDBRANCH  27  34
ENDBRANCH  21  22
ENDBRANCH   1  21
TORSDOF 12
ENDMDL
MODEL 2
REMARK VINA RESULT:   -26.849      1.671      2.307
REMARK INTER + INTRA:         -31.713
REMARK INTER:                 -30.429
REMARK INTRA:                  -1.284
REMARK CONF_INDEPENDENT:        3.580
REMARK UNBOUND:                -1.284
REMARK  12 active torsions:
REMARK  status: ('A' for Active; 'I' for Inactive)
REMARK    1  A    between atoms: O_2  and  C_3 
REMARK    2  A    between atoms: C_6  and  N_7 
REMARK    3  A    between atoms: N_7  and  C_8 
REMARK    4  A    between atoms: C_8  and  N_10 
REMARK    5  A    between atoms: N_10  and  C_11 
REMARK    6  A    between atoms: N_10  and  C_15 
REMARK    7  A    between atoms: C_11  and  C_12 
REMARK    8  A    between atoms: C_12  and  C_13 
REMARK    9  A    between atoms: C_13  and  O_14 
REMARK   10  A    between atoms: C_15  and  C_16 
REMARK   11  A    between atoms: C_20  and  O_21 
REMARK   12  A    between atoms: C_29  and  O_30 
ROOT
ATOM      1  N   UNL d   1      24.331 -17.653  -1.145  0.00  0.00    -0.354 N 
ENDROOT
BRANCH   1   2
ATOM      2  C   UNL d   1      23.951 -16.278  -1.113  0.00  0.00     0.174 C 
ATOM      3  S   UNL d   1      22.611 -15.916  -0.144  0.00  0.00    -0.041 SA
BRANCH   2   4
ATOM      4  N   UNL d   1      24.761 -15.368  -1.833  0.00  0.00    -0.331 N 
ATOM      5  H   UNL d   1      24.372 -14.504  -2.105  0.00  0.00     0.168 HD
BRANCH   4   6
ATOM      6  C   UNL d   1      26.013 -15.450  -2.518  0.00  0.00     0.068 C 
ATOM      7  C   UNL d   1      27.100 -16.166  -1.937  0.00  0.00     0.035 C 
ATOM      8  C   UNL d   1      28.377 -16.144  -2.536  0.00  0.00     0.039 C 
ATOM      9  C   UNL d   1      28.565 -15.432  -3.717  0.00  0.00     0.070 C 
ATOM     10  C   UNL d   1      27.482 -14.801  -4.304  0.00  0.00     0.075 C 
ATOM     11  C   UNL d   1      26.218 -14.879  -3.757  0.00  0.00     0.097 C 
BRANCH   9  12
ATOM     12  O   UNL d   1      29.779 -15.498  -4.343  0.00  0.00    -0.356 OA
ATOM     13  C   UNL d   1      29.753 -16.222  -5.577  0.00  0.00     0.210 C 
ENDBRANCH   9  12
BRANCH  11  14
ATOM     14  O   UNL d   1      25.129 -14.647  -4.532  0.00  0.00    -0.354 OA
ATOM     15  C   UNL d   1      24.527 -13.364  -4.464  0.00  0.00     0.210 C 
ENDBRANCH  11  14
ENDBRANCH   4   6
ENDBRANCH   2   4
ENDBRANCH   1   2
BRANCH   1  16
ATOM     16  C   UNL d   1      25.566 -18.224  -0.658  0.00  0.00     0.127 C 
BRANCH  16  17
ATOM     17  C   UNL d   1      26.063 -18.012   0.731  0.00  0.00     0.046 C 
BRANCH  17  18
ATOM     18  C   UNL d   1      27.440 -17.433   0.827  0.00  0.00     0.165 C 
BRANCH  18  19
ATOM     19  O   UNL d   1      27.258 -16.056   1.146  0.00  0.00    -0.401 OA
ATOM     20  H   UNL d   1      28.110 -15.609   0.993  0.00  0.00     0.209 HD
ENDBRANCH  18  19
ENDBRANCH  17  18
ENDBRANCH  16  17
ENDBRANCH   1  16
BRANCH   1  21
ATOM     21  C   UNL d   1      23.275 -18.669  -1.529  0.00  0.00     0.169 C 
BRANCH  21  22
ATOM     22  C   UNL d   1      21.983 -18.878  -0.794  0.00  0.00     0.023 C 
ATOM     23  C   UNL d   1      21.899 -19.834   0.165  0.00  0.00     0.027 C 
ATOM     24  C   UNL d   1      20.605 -20.081   0.806  0.00  0.00    -0.011 A 
ATOM     25  C   UNL d   1      20.471 -20.470   2.132  0.00  0.00     0.050 A 
ATOM     26  C   UNL d   1      19.463 -19.880   0.015  0.00  0.00     0.025 A 
ATOM     27  C   UNL d   1      19.192 -20.693   2.650  0.00  0.00     0.069 A 
ATOM     28  C   UNL d   1      18.061 -20.417   1.867  0.00  0.00     0.038 A 
ATOM     29  C   UNL d   1      18.188 -20.029   0.535  0.00  0.00     0.027 A 
ATOM     30  N   UNL d   1      19.677 -19.324  -1.262  0.00  0.00    -0.224 NA
ATOM     31  C   UNL d   1      20.647 -18.356  -1.199  0.00  0.00     0.233 C 
ATOM     32  H   UNL d   1      18.856 -19.066  -1.791  0.00  0.00     0.137 HD
ATOM     33  O   UNL d   1      20.334 -17.167  -1.333  0.00  0.00    -0.274 OA
BRANCH  27  34
ATOM     34  O   UNL d   1      19.154 -21.201   3.920  0.00  0.00    -0.356 OA
ATOM     35  C   UNL d   1      19.860 -20.450   4.903  0.00  0.00     0.210 C 
ENDBRANCH  27  34
ENDBRANCH  21  22
ENDBRANCH   1  21
TORSDOF 12
ENDMDL
MODEL 3
REMARK VINA RESULT:   -26.735      1.635      1.762
REMARK INTER + INTRA:         -33.449
REMARK INTER:                 -30.314
REMARK INTRA:                  -3.134
REMARK CONF_INDEPENDENT:        3.580
REMARK UNBOUND:                -3.134
REMARK  12 active torsions:
REMARK  status: ('A' for Active; 'I' for Inactive)
REMARK    1  A    between atoms: O_2  and  C_3 
REMARK    2  A    between atoms: C_6  and  N_7 
REMARK    3  A    between atoms: N_7  and  C_8 
REMARK    4  A    between atoms: C_8  and  N_10 
REMARK    5  A    between atoms: N_10  and  C_11 
REMARK    6  A    between atoms: N_10  and  C_15 
REMARK    7  A    between atoms: C_11  and  C_12 
REMARK    8  A    between atoms: C_12  and  C_13 
REMARK    9  A    between atoms: C_13  and  O_14 
REMARK   10  A    between atoms: C_15  and  C_16 
REMARK   11  A    between atoms: C_20  and  O_21 
REMARK   12  A    between atoms: C_29  and  O_30 
ROOT
ATOM      1  N   UNL d   1      24.373 -17.452  -0.919  0.00  0.00    -0.354 N 
ENDROOT
BRANCH   1   2
ATOM      2  C   UNL d   1      24.695 -16.327  -1.736  0.00  0.00     0.174 C 
ATOM      3  S   UNL d   1      23.424 -15.247  -2.020  0.00  0.00    -0.041 SA
BRANCH   2   4
ATOM      4  N   UNL d   1      26.039 -16.204  -2.164  0.00  0.00    -0.331 N 
ATOM      5  H   UNL d   1      26.758 -16.442  -1.533  0.00  0.00     0.168 HD
BRANCH   4   6
ATOM      6  C   UNL d   1      26.696 -15.575  -3.267  0.00  0.00     0.068 C 
ATOM      7  C   UNL d   1      25.939 -14.846  -4.229  0.00  0.00     0.035 C 
ATOM      8  C   UNL d   1      26.555 -14.335  -5.391  0.00  0.00     0.039 C 
ATOM      9  C   UNL d   1      27.920 -14.529  -5.582  0.00  0.00     0.070 C 
ATOM     10  C   UNL d   1      28.652 -15.178  -4.603  0.00  0.00     0.075 C 
ATOM     11  C   UNL d   1      28.064 -15.618  -3.435  0.00  0.00     0.097 C 
BRANCH   9  12
ATOM     12  O   UNL d   1      28.527 -13.944  -6.659  0.00  0.00    -0.356 OA
ATOM     13  C   UNL d   1      29.565 -13.025  -6.307  0.00  0.00     0.210 C 
ENDBRANCH   9  12
BRANCH  11  14
ATOM     14  O   UNL d   1      28.827 -15.844  -2.336  0.00  0.00    -0.354 OA
ATOM     15  C   UNL d   1      30.236 -15.772  -2.480  0.00  0.00     0.210 C 
ENDBRANCH  11  14
ENDBRANCH   4   6
ENDBRANCH   2   4
ENDBRANCH   1   2
BRANCH   1  16
ATOM     16  C   UNL d   1      24.793 -17.683   0.445  0.00  0.00     0.127 C 
BRANCH  16  17
ATOM     17  C   UNL d   1      26.109 -18.290   0.793  0.00  0.00     0.046 C 
BRANCH  17  18
ATOM     18  C   UNL d   1      27.294 -17.409   0.551  0.00  0.00     0.165 C 
BRANCH  18  19
ATOM     19  O   UNL d   1      27.782 -17.765  -0.739  0.00  0.00    -0.401 OA
ATOM     20  H   UNL d   1      28.088 -16.946  -1.169  0.00  0.00     0.209 HD
ENDBRANCH  18  19
ENDBRANCH  17  18
ENDBRANCH  16  17
ENDBRANCH   1  16
BRANCH   1  21
ATOM     21  C   UNL d   1      23.320 -18.415  -1.426  0.00  0.00     0.169 C 
BRANCH  21  22
ATOM     22  C   UNL d   1      22.021 -18.704  -0.730  0.00  0.00     0.023 C 
ATOM     23  C   UNL d   1      21.962 -19.676   0.214  0.00  0.00     0.027 C 
ATOM     24  C   UNL d   1      20.666 -20.001   0.815  0.00  0.00    -0.011 A 
ATOM     25  C   UNL d   1      20.517 -20.416   2.132  0.00  0.00     0.050 A 
ATOM     26  C   UNL d   1      19.537 -19.851  -0.006  0.00  0.00     0.025 A 
ATOM     27  C   UNL d   1      19.237 -20.714   2.609  0.00  0.00     0.069 A 
ATOM     28  C   UNL d   1      18.115 -20.489   1.798  0.00  0.00     0.038 A 
ATOM     29  C   UNL d   1      18.259 -20.076   0.475  0.00  0.00     0.027 A 
ATOM     30  N   UNL d   1      19.756 -19.267  -1.270  0.00  0.00    -0.224 NA
ATOM     31  C   UNL d   1      20.671 -18.249  -1.167  0.00  0.00     0.233 C 
ATOM     32  H   UNL d   1      18.938 -19.046  -1.818  0.00  0.00     0.137 HD
ATOM     33  O   UNL d   1      20.297 -17.077  -1.295  0.00  0.00    -0.274 OA
BRANCH  27  34
ATOM     34  O   UNL d   1      19.192 -21.242   3.872  0.00  0.00    -0.356 OA
ATOM     35  C   UNL d   1      19.799 -20.451   4.890  0.00  0.00     0.210 C 
ENDBRANCH  27  34
ENDBRANCH  21  22
ENDBRANCH   1  21
TORSDOF 12
ENDMDL
MODEL 4
REMARK VINA RESULT:   -26.299      1.786      3.280
REMARK INTER + INTRA:         -31.397
REMARK INTER:                 -29.879
REMARK INTRA:                  -1.519
REMARK CONF_INDEPENDENT:        3.580
REMARK UNBOUND:                -1.519
REMARK  12 active torsions:
REMARK  status: ('A' for Active; 'I' for Inactive)
REMARK    1  A    between atoms: O_2  and  C_3 
REMARK    2  A    between atoms: C_6  and  N_7 
REMARK    3  A    between atoms: N_7  and  C_8 
REMARK    4  A    between atoms: C_8  and  N_10 
REMARK    5  A    between atoms: N_10  and  C_11 
REMARK    6  A    between atoms: N_10  and  C_15 
REMARK    7  A    between atoms: C_11  and  C_12 
REMARK    8  A    between atoms: C_12  and  C_13 
REMARK    9  A    between atoms: C_13  and  O_14 
REMARK   10  A    between atoms: C_15  and  C_16 
REMARK   11  A    between atoms: C_20  and  O_21 
REMARK   12  A    between atoms: C_29  and  O_30 
ROOT
ATOM      1  N   UNL d   1      24.481 -17.326  -0.534  0.00  0.00    -0.354 N 
ENDROOT
BRANCH   1   2
ATOM      2  C   UNL d   1      24.890 -16.001  -0.871  0.00  0.00     0.174 C 
ATOM      3  S   UNL d   1      24.399 -15.454  -2.396  0.00  0.00    -0.041 SA
BRANCH   2   4
ATOM      4  N   UNL d   1      25.599 -15.275   0.115  0.00  0.00    -0.331 N 
ATOM      5  H   UNL d   1      25.087 -14.738   0.764  0.00  0.00     0.168 HD
BRANCH   4   6
ATOM      6  C   UNL d   1      26.965 -14.901   0.310  0.00  0.00     0.068 C 
ATOM      7  C   UNL d   1      27.571 -15.045   1.592  0.00  0.00     0.035 C 
ATOM      8  C   UNL d   1      28.873 -14.559   1.830  0.00  0.00     0.039 C 
ATOM      9  C   UNL d   1      29.576 -13.952   0.793  0.00  0.00     0.070 C 
ATOM     10  C   UNL d   1      29.000 -13.884  -0.463  0.00  0.00     0.075 C 
ATOM     11  C   UNL d   1      27.754 -14.421  -0.715  0.00  0.00     0.097 C 
BRANCH   9  12
ATOM     12  O   UNL d   1      30.873 -13.574   1.006  0.00  0.00    -0.356 OA
ATOM     13  C   UNL d   1      31.262 -13.594   2.383  0.00  0.00     0.210 C 
ENDBRANCH   9  12
BRANCH  11  14
ATOM     14  O   UNL d   1      27.397 -14.736  -1.986  0.00  0.00    -0.354 OA
ATOM     15  C   UNL d   1      27.415 -13.701  -2.956  0.00  0.00     0.210 C 
ENDBRANCH  11  14
ENDBRANCH   4   6
ENDBRANCH   2   4
ENDBRANCH   1   2
BRANCH   1  16
ATOM     16  C   UNL d   1      24.936 -18.117   0.588  0.00  0.00     0.127 C 
BRANCH  16  17
ATOM     17  C   UNL d   1      26.373 -18.438   0.820  0.00  0.00     0.046 C 
BRANCH  17  18
ATOM     18  C   UNL d   1      27.279 -18.147  -0.336  0.00  0.00     0.165 C 
BRANCH  18  19
ATOM     19  O   UNL d   1      28.437 -17.536   0.227  0.00  0.00    -0.401 OA
ATOM     20  H   UNL d   1      28.984 -18.249   0.605  0.00  0.00     0.209 HD
ENDBRANCH  18  19
ENDBRANCH  17  18
ENDBRANCH  16  17
ENDBRANCH   1  16
BRANCH   1  21
ATOM     21  C   UNL d   1      23.302 -17.914  -1.281  0.00  0.00     0.169 C 
BRANCH  21  22
ATOM     22  C   UNL d   1      22.020 -18.361  -0.639  0.00  0.00     0.023 C 
ATOM     23  C   UNL d   1      22.043 -19.340   0.301  0.00  0.00     0.027 C 
ATOM     24  C   UNL d   1      20.773 -19.823   0.849  0.00  0.00    -0.011 A 
ATOM     25  C   UNL d   1      20.623 -20.260   2.158  0.00  0.00     0.050 A 
ATOM     26  C   UNL d   1      19.668 -19.806  -0.016  0.00  0.00     0.025 A 
ATOM     27  C   UNL d   1      19.371 -20.714   2.584  0.00  0.00     0.069 A 
ATOM     28  C   UNL d   1      18.263 -20.622   1.728  0.00  0.00     0.038 A 
ATOM     29  C   UNL d   1      18.408 -20.186   0.413  0.00  0.00     0.027 A 
ATOM     30  N   UNL d   1      19.864 -19.191  -1.270  0.00  0.00    -0.224 NA
ATOM     31  C   UNL d   1      20.644 -18.070  -1.129  0.00  0.00     0.233 C 
ATOM     32  H   UNL d   1      19.047 -19.067  -1.850  0.00  0.00     0.137 HD
ATOM     33  O   UNL d   1      20.136 -16.952  -1.270  0.00  0.00    -0.274 OA
BRANCH  27  34
ATOM     34  O   UNL d   1      19.340 -21.251   3.842  0.00  0.00    -0.356 OA
ATOM     35  C   UNL d   1      19.900 -20.439   4.870  0.00  0.00     0.210 C 
ENDBRANCH  27  34
ENDBRANCH  21  22
ENDBRANCH   1  21
TORSDOF 12
ENDMDL
MODEL 5
REMARK VINA RESULT:   -24.850      2.532      2.999
REMARK INTER + INTRA:         -30.147
REMARK INTER:                 -28.430
REMARK INTRA:                  -1.718
REMARK CONF_INDEPENDENT:        3.580
REMARK UNBOUND:                -1.718
REMARK  12 active torsions:
REMARK  status: ('A' for Active; 'I' for Inactive)
REMARK    1  A    between atoms: O_2  and  C_3 
REMARK    2  A    between atoms: C_6  and  N_7 
REMARK    3  A    between atoms: N_7  and  C_8 
REMARK    4  A    between atoms: C_8  and  N_10 
REMARK    5  A    between atoms: N_10  and  C_11 
REMARK    6  A    between atoms: N_10  and  C_15 
REMARK    7  A    between atoms: C_11  and  C_12 
REMARK    8  A    between atoms: C_12  and  C_13 
REMARK    9  A    between atoms: C_13  and  O_14 
REMARK   10  A    between atoms: C_15  and  C_16 
REMARK   11  A    between atoms: C_20  and  O_21 
REMARK   12  A    between atoms: C_29  and  O_30 
ROOT
ATOM      1  N   UNL d   1      24.609 -17.538  -0.723  0.00  0.00    -0.354 N 
ENDROOT
BRANCH   1   2
ATOM      2  C   UNL d   1      25.243 -16.453  -1.399  0.00  0.00     0.174 C 
ATOM      3  S   UNL d   1      25.155 -16.498  -3.089  0.00  0.00    -0.041 SA
BRANCH   2   4
ATOM      4  N   UNL d   1      25.815 -15.438  -0.596  0.00  0.00    -0.331 N 
ATOM      5  H   UNL d   1      25.222 -14.754  -0.207  0.00  0.00     0.168 HD
BRANCH   4   6
ATOM      6  C   UNL d   1      27.144 -14.969  -0.352  0.00  0.00     0.068 C 
ATOM      7  C   UNL d   1      28.116 -15.002  -1.393  0.00  0.00     0.035 C 
ATOM      8  C   UNL d   1      29.461 -14.668  -1.130  0.00  0.00     0.039 C 
ATOM      9  C   UNL d   1      29.831 -14.283   0.155  0.00  0.00     0.070 C 
ATOM     10  C   UNL d   1      28.860 -14.188   1.136  0.00  0.00     0.075 C 
ATOM     11  C   UNL d   1      27.532 -14.448   0.865  0.00  0.00     0.097 C 
BRANCH   9  12
ATOM     12  O   UNL d   1      31.114 -13.865   0.377  0.00  0.00    -0.356 OA
ATOM     13  C   UNL d   1      31.546 -12.831  -0.513  0.00  0.00     0.210 C 
ENDBRANCH   9  12
BRANCH  11  14
ATOM     14  O   UNL d   1      26.565 -13.947   1.674  0.00  0.00    -0.354 OA
ATOM     15  C   UNL d   1      26.852 -12.761   2.397  0.00  0.00     0.210 C 
ENDBRANCH  11  14
ENDBRANCH   4   6
ENDBRANCH   2   4
ENDBRANCH   1   2
BRANCH   1  16
ATOM     16  C   UNL d   1      24.866 -17.990   0.626  0.00  0.00     0.127 C 
BRANCH  16  17
ATOM     17  C   UNL d   1      26.231 -18.340   1.114  0.00  0.00     0.046 C 
BRANCH  17  18
ATOM     18  C   UNL d   1      27.270 -18.469   0.045  0.00  0.00     0.165 C 
BRANCH  18  19
ATOM     19  O   UNL d   1      28.232 -17.454   0.318  0.00  0.00    -0.401 OA
ATOM     20  H   UNL d   1      29.113 -17.863   0.238  0.00  0.00     0.209 HD
ENDBRANCH  18  19
ENDBRANCH  17  18
ENDBRANCH  16  17
ENDBRANCH   1  16
BRANCH   1  21
ATOM     21  C   UNL d   1      23.397 -18.167  -1.378  0.00  0.00     0.169 C 
BRANCH  21  22
ATOM     22  C   UNL d   1      22.097 -18.447  -0.679  0.00  0.00     0.023 C 
ATOM     23  C   UNL d   1      22.077 -19.260   0.407  0.00  0.00     0.027 C 
ATOM     24  C   UNL d   1      20.787 -19.591   1.019  0.00  0.00    -0.011 A 
ATOM     25  C   UNL d   1      20.620 -19.803   2.381  0.00  0.00     0.050 A 
ATOM     26  C   UNL d   1      19.683 -19.665   0.156  0.00  0.00     0.025 A 
ATOM     27  C   UNL d   1      19.349 -20.126   2.867  0.00  0.00     0.069 A 
ATOM     28  C   UNL d   1      18.245 -20.124   2.001  0.00  0.00     0.038 A 
ATOM     29  C   UNL d   1      18.408 -19.915   0.633  0.00  0.00     0.027 A 
ATOM     30  N   UNL d   1      19.905 -19.272  -1.180  0.00  0.00    -0.224 NA
ATOM     31  C   UNL d   1      20.734 -18.178  -1.218  0.00  0.00     0.233 C 
ATOM     32  H   UNL d   1      19.094 -19.207  -1.777  0.00  0.00     0.137 HD
ATOM     33  O   UNL d   1      20.277 -17.076  -1.541  0.00  0.00    -0.274 OA
BRANCH  27  34
ATOM     34  O   UNL d   1      19.296 -20.450   4.196  0.00  0.00    -0.356 OA
ATOM     35  C   UNL d   1      19.530 -21.821   4.503  0.00  0.00     0.210 C 
ENDBRANCH  27  34
ENDBRANCH  21  22
ENDBRANCH   1  21
TORSDOF 12
ENDMDL
