MODEL 1
REMARK VINA RESULT:    -7.725      0.000      0.000
REMARK INTER + INTRA:         -10.813
REMARK INTER:                  -8.918
REMARK INTRA:                  -1.895
REMARK CONF_INDEPENDENT:        1.193
REMARK UNBOUND:                -1.895
REMARK  4 active torsions:
REMARK  status: ('A' for Active; 'I' for Inactive)
REMARK    1  A    between atoms: C_4  and  C_5 
REMARK    2  A    between atoms: C_13  and  C_14 
REMARK    3  A    between atoms: N_24  and  C_25 
REMARK    4  A    between atoms: C_30  and  C_31 
ROOT
ATOM      1  C   UNL d   1      27.778 -17.463   0.302  0.00  0.00     0.063 C 
ATOM      2  C   UNL d   1      28.281 -15.947   0.179  0.00  0.00     0.004 C 
ATOM      3  C   UNL d   1      27.452 -14.909  -0.147  0.00  0.00    -0.008 C 
ATOM      4  C   UNL d   1      25.996 -14.806  -0.640  0.00  0.00     0.126 C 
ATOM      5  C   UNL d   1      26.082 -13.868  -1.811  0.00  0.00     0.026 C 
ATOM      6  C   UNL d   1      27.111 -12.990  -1.920  0.00  0.00     0.018 C 
ATOM      7  C   UNL d   1      27.329 -12.209  -3.162  0.00  0.00     0.067 C 
ATOM      8  C   UNL d   1      26.412 -12.530  -4.349  0.00  0.00     0.038 C 
ATOM      9  C   UNL d   1      25.187 -13.399  -4.149  0.00  0.00     0.094 C 
ATOM     10  C   UNL d   1      25.057 -14.056  -2.846  0.00  0.00     0.159 C 
ATOM     11  O   UNL d   1      24.102 -14.815  -2.683  0.00  0.00    -0.293 OA
ATOM     12  N   UNL d   1      28.065 -12.800  -0.895  0.00  0.00    -0.371 N 
ATOM     13  C   UNL d   1      27.925 -13.484   0.404  0.00  0.00     0.210 C 
ATOM     14  N   UNL d   1      29.175 -13.791   1.313  0.00  0.00    -0.185 NA
ATOM     15  N   UNL d   1      29.425 -15.377   0.893  0.00  0.00    -0.222 NA
ATOM     16  H   UNL d   1      28.987 -12.432  -1.111  0.00  0.00     0.161 HD
ATOM     17  H   UNL d   1      29.639 -15.951   1.730  0.00  0.00     0.147 HD
ENDROOT
BRANCH  14  18
ATOM     18  C   UNL d   1      28.836 -13.648   2.824  0.00  0.00     0.045 C 
ATOM     19  C   UNL d   1      28.756 -14.532   3.928  0.00  0.00     0.026 C 
ATOM     20  C   UNL d   1      28.080 -14.060   5.153  0.00  0.00     0.002 C 
ATOM     21  C   UNL d   1      27.595 -12.750   5.337  0.00  0.00     0.001 C 
ATOM     22  C   UNL d   1      27.781 -11.885   4.328  0.00  0.00     0.020 C 
ATOM     23  C   UNL d   1      28.430 -12.359   3.193  0.00  0.00     0.063 C 
BRANCH  23  24
ATOM     24  C   UNL d   1      29.117 -11.251   2.624  0.00  0.00     0.211 C 
ATOM     25  O   UNL d   1      28.627 -10.714   1.618  0.00  0.00    -0.644 OA
ATOM     26  O   UNL d   1      30.114 -10.837   3.336  0.00  0.00    -0.644 OA
ENDBRANCH  23  24
ENDBRANCH  14  18
BRANCH   4  27
ATOM     27  C   UNL d   1      25.381 -16.180  -0.951  0.00  0.00     0.094 C 
ATOM     28  N   UNL d   1      25.314 -16.829  -2.139  0.00  0.00    -0.354 N 
ATOM     29  C   UNL d   1      24.347 -17.825  -2.095  0.00  0.00     0.106 C 
ATOM     30  H   UNL d   1      25.634 -16.347  -2.989  0.00  0.00     0.166 HD
ATOM     31  C   UNL d   1      23.936 -17.911  -0.797  0.00  0.00     0.106 C 
ATOM     32  N   UNL d   1      24.553 -16.885  -0.145  0.00  0.00    -0.354 N 
ATOM     33  H   UNL d   1      24.438 -16.648   0.831  0.00  0.00     0.166 HD
ENDBRANCH   4  27
BRANCH   8  34
ATOM     34  C   UNL d   1      27.257 -13.215  -5.377  0.00  0.00    -0.013 A 
ATOM     35  C   UNL d   1      27.870 -12.607  -6.456  0.00  0.00     0.015 A 
ATOM     36  C   UNL d   1      28.530 -13.545  -7.278  0.00  0.00     0.008 A 
ATOM     37  C   UNL d   1      28.420 -14.823  -6.779  0.00  0.00     0.050 A 
ATOM     38  S   UNL d   1      27.536 -14.890  -5.318  0.00  0.00    -0.106 SA
ENDBRANCH   8  34
TORSDOF 4
ENDMDL
MODEL 2
REMARK VINA RESULT:    -6.759      5.521      9.601
REMARK INTER + INTRA:         -10.368
REMARK INTER:                  -7.952
REMARK INTRA:                  -2.416
REMARK CONF_INDEPENDENT:        1.193
REMARK UNBOUND:                -2.416
REMARK  4 active torsions:
REMARK  status: ('A' for Active; 'I' for Inactive)
REMARK    1  A    between atoms: C_4  and  C_5 
REMARK    2  A    between atoms: C_13  and  C_14 
REMARK    3  A    between atoms: N_24  and  C_25 
REMARK    4  A    between atoms: C_30  and  C_31 
ROOT
ATOM      1  C   UNL d   1      31.193 -21.314  -3.960  0.00  0.00     0.063 C 
ATOM      2  C   UNL d   1      30.572 -20.007  -4.645  0.00  0.00     0.004 C 
ATOM      3  C   UNL d   1      30.716 -18.750  -4.124  0.00  0.00    -0.008 C 
ATOM      4  C   UNL d   1      31.264 -18.189  -2.797  0.00  0.00     0.126 C 
ATOM      5  C   UNL d   1      30.197 -17.231  -2.349  0.00  0.00     0.026 C 
ATOM      6  C   UNL d   1      29.335 -16.686  -3.243  0.00  0.00     0.018 C 
ATOM      7  C   UNL d   1      28.152 -15.910  -2.800  0.00  0.00     0.067 C 
ATOM      8  C   UNL d   1      27.888 -15.858  -1.289  0.00  0.00     0.038 C 
ATOM      9  C   UNL d   1      28.943 -16.345  -0.317  0.00  0.00     0.094 C 
ATOM     10  C   UNL d   1      30.099 -17.032  -0.897  0.00  0.00     0.159 C 
ATOM     11  O   UNL d   1      30.938 -17.490  -0.121  0.00  0.00    -0.293 OA
ATOM     12  N   UNL d   1      29.471 -16.861  -4.639  0.00  0.00    -0.371 N 
ATOM     13  C   UNL d   1      30.635 -17.571  -5.202  0.00  0.00     0.210 C 
ATOM     14  N   UNL d   1      30.560 -18.298  -6.599  0.00  0.00    -0.185 NA
ATOM     15  N   UNL d   1      30.299 -19.851  -6.075  0.00  0.00    -0.222 NA
ATOM     16  H   UNL d   1      28.667 -16.763  -5.251  0.00  0.00     0.161 HD
ATOM     17  H   UNL d   1      30.871 -20.524  -6.618  0.00  0.00     0.147 HD
ENDROOT
BRANCH  14  18
ATOM     18  C   UNL d   1      31.899 -18.177  -7.381  0.00  0.00     0.045 C 
ATOM     19  C   UNL d   1      33.190 -17.668  -7.098  0.00  0.00     0.026 C 
ATOM     20  C   UNL d   1      34.114 -17.442  -8.227  0.00  0.00     0.002 C 
ATOM     21  C   UNL d   1      33.836 -17.793  -9.563  0.00  0.00     0.001 C 
ATOM     22  C   UNL d   1      32.655 -18.384  -9.803  0.00  0.00     0.020 C 
ATOM     23  C   UNL d   1      31.813 -18.591  -8.717  0.00  0.00     0.063 C 
BRANCH  23  24
ATOM     24  C   UNL d   1      31.048 -19.754  -9.010  0.00  0.00     0.211 C 
ATOM     25  O   UNL d   1      30.242 -19.700  -9.954  0.00  0.00    -0.644 OA
ATOM     26  O   UNL d   1      31.407 -20.795  -8.334  0.00  0.00    -0.644 OA
ENDBRANCH  23  24
ENDBRANCH  14  18
BRANCH   4  27
ATOM     27  C   UNL d   1      31.611 -19.297  -1.789  0.00  0.00     0.094 C 
ATOM     28  N   UNL d   1      30.846 -19.803  -0.792  0.00  0.00    -0.354 N 
ATOM     29  C   UNL d   1      31.637 -20.475   0.133  0.00  0.00     0.106 C 
ATOM     30  H   UNL d   1      29.935 -19.370  -0.593  0.00  0.00     0.166 HD
ATOM     31  C   UNL d   1      32.890 -20.538  -0.400  0.00  0.00     0.106 C 
ATOM     32  N   UNL d   1      32.846 -19.790  -1.539  0.00  0.00    -0.354 N 
ATOM     33  H   UNL d   1      33.623 -19.606  -2.159  0.00  0.00     0.166 HD
ENDBRANCH   4  27
BRANCH   8  34
ATOM     34  C   UNL d   1      26.663 -16.680  -1.034  0.00  0.00    -0.013 A 
ATOM     35  C   UNL d   1      25.455 -16.556  -1.695  0.00  0.00     0.015 A 
ATOM     36  C   UNL d   1      24.480 -17.428  -1.165  0.00  0.00     0.008 A 
ATOM     37  C   UNL d   1      24.989 -18.200  -0.145  0.00  0.00     0.050 A 
ATOM     38  S   UNL d   1      26.639 -17.884   0.163  0.00  0.00    -0.106 SA
ENDBRANCH   8  34
TORSDOF 4
ENDMDL
MODEL 3
REMARK VINA RESULT:    -6.325      2.780      5.200
REMARK INTER + INTRA:         -10.088
REMARK INTER:                  -7.518
REMARK INTRA:                  -2.570
REMARK CONF_INDEPENDENT:        1.193
REMARK UNBOUND:                -2.570
REMARK  4 active torsions:
REMARK  status: ('A' for Active; 'I' for Inactive)
REMARK    1  A    between atoms: C_4  and  C_5 
REMARK    2  A    between atoms: C_13  and  C_14 
REMARK    3  A    between atoms: N_24  and  C_25 
REMARK    4  A    between atoms: C_30  and  C_31 
ROOT
ATOM      1  C   UNL d   1      26.655 -10.678   1.359  0.00  0.00     0.063 C 
ATOM      2  C   UNL d   1      27.130 -12.028   2.076  0.00  0.00     0.004 C 
ATOM      3  C   UNL d   1      27.853 -12.999   1.438  0.00  0.00    -0.008 C 
ATOM      4  C   UNL d   1      28.265 -13.249  -0.026  0.00  0.00     0.126 C 
ATOM      5  C   UNL d   1      27.904 -14.689  -0.257  0.00  0.00     0.026 C 
ATOM      6  C   UNL d   1      27.797 -15.551   0.785  0.00  0.00     0.018 C 
ATOM      7  C   UNL d   1      27.240 -16.914   0.605  0.00  0.00     0.067 C 
ATOM      8  C   UNL d   1      26.684 -17.253  -0.784  0.00  0.00     0.038 C 
ATOM      9  C   UNL d   1      26.954 -16.331  -1.956  0.00  0.00     0.094 C 
ATOM     10  C   UNL d   1      27.577 -15.042  -1.644  0.00  0.00     0.159 C 
ATOM     11  O   UNL d   1      27.748 -14.253  -2.572  0.00  0.00    -0.293 OA
ATOM     12  N   UNL d   1      28.154 -15.200   2.108  0.00  0.00    -0.371 N 
ATOM     13  C   UNL d   1      28.764 -13.891   2.403  0.00  0.00     0.210 C 
ATOM     14  N   UNL d   1      28.633 -13.222   3.824  0.00  0.00    -0.185 NA
ATOM     15  N   UNL d   1      27.379 -12.180   3.510  0.00  0.00    -0.222 NA
ATOM     16  H   UNL d   1      27.753 -15.696   2.898  0.00  0.00     0.161 HD
ATOM     17  H   UNL d   1      27.555 -11.252   3.938  0.00  0.00     0.147 HD
ENDROOT
BRANCH  14  18
ATOM     18  C   UNL d   1      29.926 -12.454   4.219  0.00  0.00     0.045 C 
ATOM     19  C   UNL d   1      31.240 -12.356   3.698  0.00  0.00     0.026 C 
ATOM     20  C   UNL d   1      32.288 -11.764   4.553  0.00  0.00     0.002 C 
ATOM     21  C   UNL d   1      32.051 -11.196   5.821  0.00  0.00     0.001 C 
ATOM     22  C   UNL d   1      30.781 -11.188   6.256  0.00  0.00     0.020 C 
ATOM     23  C   UNL d   1      29.818 -11.744   5.422  0.00  0.00     0.063 C 
BRANCH  23  24
ATOM     24  C   UNL d   1      28.604 -11.050   5.683  0.00  0.00     0.211 C 
ATOM     25  O   UNL d   1      28.517  -9.866   5.317  0.00  0.00    -0.644 OA
ATOM     26  O   UNL d   1      27.663 -11.806   6.145  0.00  0.00    -0.644 OA
ENDBRANCH  23  24
ENDBRANCH  14  18
BRANCH   4  27
ATOM     27  C   UNL d   1      27.616 -12.251  -0.999  0.00  0.00     0.094 C 
ATOM     28  N   UNL d   1      26.471 -12.385  -1.710  0.00  0.00    -0.354 N 
ATOM     29  C   UNL d   1      26.439 -11.472  -2.757  0.00  0.00     0.106 C 
ATOM     30  H   UNL d   1      25.974 -13.285  -1.690  0.00  0.00     0.166 HD
ATOM     31  C   UNL d   1      27.503 -10.638  -2.578  0.00  0.00     0.106 C 
ATOM     32  N   UNL d   1      28.208 -11.156  -1.532  0.00  0.00    -0.354 N 
ATOM     33  H   UNL d   1      29.074 -10.792  -1.161  0.00  0.00     0.166 HD
ENDBRANCH   4  27
BRANCH   8  34
ATOM     34  C   UNL d   1      25.197 -17.342  -0.646  0.00  0.00    -0.013 A 
ATOM     35  C   UNL d   1      24.502 -18.372  -0.040  0.00  0.00     0.015 A 
ATOM     36  C   UNL d   1      23.106 -18.191  -0.145  0.00  0.00     0.008 A 
ATOM     37  C   UNL d   1      22.793 -17.020  -0.797  0.00  0.00     0.050 A 
ATOM     38  S   UNL d   1      24.177 -16.136  -1.270  0.00  0.00    -0.106 SA
ENDBRANCH   8  34
TORSDOF 4
ENDMDL
MODEL 4
REMARK VINA RESULT:    -6.245      3.308      7.483
REMARK INTER + INTRA:          -9.560
REMARK INTER:                  -7.438
REMARK INTRA:                  -2.122
REMARK CONF_INDEPENDENT:        1.193
REMARK UNBOUND:                -2.122
REMARK  4 active torsions:
REMARK  status: ('A' for Active; 'I' for Inactive)
REMARK    1  A    between atoms: C_4  and  C_5 
REMARK    2  A    between atoms: C_13  and  C_14 
REMARK    3  A    between atoms: N_24  and  C_25 
REMARK    4  A    between atoms: C_30  and  C_31 
ROOT
ATOM      1  C   UNL d   1      25.754 -15.335  -4.182  0.00  0.00     0.063 C 
ATOM      2  C   UNL d   1      27.272 -14.977  -3.817  0.00  0.00     0.004 C 
ATOM      3  C   UNL d   1      27.942 -15.546  -2.770  0.00  0.00    -0.008 C 
ATOM      4  C   UNL d   1      27.533 -16.453  -1.593  0.00  0.00     0.126 C 
ATOM      5  C   UNL d   1      28.147 -15.783  -0.396  0.00  0.00     0.026 C 
ATOM      6  C   UNL d   1      29.212 -14.954  -0.538  0.00  0.00     0.018 C 
ATOM      7  C   UNL d   1      29.697 -14.123   0.591  0.00  0.00     0.067 C 
ATOM      8  C   UNL d   1      28.867 -14.158   1.880  0.00  0.00     0.038 C 
ATOM      9  C   UNL d   1      27.780 -15.199   2.056  0.00  0.00     0.094 C 
ATOM     10  C   UNL d   1      27.449 -16.004   0.877  0.00  0.00     0.159 C 
ATOM     11  O   UNL d   1      26.527 -16.813   0.980  0.00  0.00    -0.293 OA
ATOM     12  N   UNL d   1      29.891 -14.785  -1.766  0.00  0.00    -0.371 N 
ATOM     13  C   UNL d   1      29.531 -15.594  -2.946  0.00  0.00     0.210 C 
ATOM     14  N   UNL d   1      29.797 -15.077  -4.411  0.00  0.00    -0.185 NA
ATOM     15  N   UNL d   1      28.280 -14.504  -4.768  0.00  0.00    -0.222 NA
ATOM     16  H   UNL d   1      30.426 -13.941  -1.947  0.00  0.00     0.161 HD
ATOM     17  H   UNL d   1      28.005 -14.767  -5.732  0.00  0.00     0.147 HD
ENDROOT
BRANCH  14  18
ATOM     18  C   UNL d   1      30.207 -16.236  -5.363  0.00  0.00     0.045 C 
ATOM     19  C   UNL d   1      30.347 -17.640  -5.241  0.00  0.00     0.026 C 
ATOM     20  C   UNL d   1      31.077 -18.364  -6.300  0.00  0.00     0.002 C 
ATOM     21  C   UNL d   1      31.563 -17.766  -7.481  0.00  0.00     0.001 C 
ATOM     22  C   UNL d   1      31.322 -16.456  -7.641  0.00  0.00     0.020 C 
ATOM     23  C   UNL d   1      30.622 -15.806  -6.631  0.00  0.00     0.063 C 
BRANCH  23  24
ATOM     24  C   UNL d   1      29.901 -14.748  -7.249  0.00  0.00     0.211 C 
ATOM     25  O   UNL d   1      28.661 -14.822  -7.272  0.00  0.00    -0.644 OA
ATOM     26  O   UNL d   1      30.641 -13.742  -7.583  0.00  0.00    -0.644 OA
ENDBRANCH  23  24
ENDBRANCH  14  18
BRANCH   4  27
ATOM     27  C   UNL d   1      26.012 -16.663  -1.513  0.00  0.00     0.094 C 
ATOM     28  N   UNL d   1      25.032 -15.731  -1.433  0.00  0.00    -0.354 N 
ATOM     29  C   UNL d   1      23.853 -16.305  -0.972  0.00  0.00     0.106 C 
ATOM     30  H   UNL d   1      25.292 -14.742  -1.331  0.00  0.00     0.166 HD
ATOM     31  C   UNL d   1      24.063 -17.653  -0.941  0.00  0.00     0.106 C 
ATOM     32  N   UNL d   1      25.381 -17.829  -1.239  0.00  0.00    -0.354 N 
ATOM     33  H   UNL d   1      25.870 -18.713  -1.269  0.00  0.00     0.166 HD
ENDBRANCH   4  27
BRANCH   8  34
ATOM     34  C   UNL d   1      28.201 -12.823   2.003  0.00  0.00    -0.013 A 
ATOM     35  C   UNL d   1      28.700 -11.732   2.689  0.00  0.00     0.015 A 
ATOM     36  C   UNL d   1      27.793 -10.650   2.677  0.00  0.00     0.008 A 
ATOM     37  C   UNL d   1      26.656 -10.948   1.961  0.00  0.00     0.050 A 
ATOM     38  S   UNL d   1      26.688 -12.521   1.294  0.00  0.00    -0.106 SA
ENDBRANCH   8  34
TORSDOF 4
ENDMDL
MODEL 5
REMARK VINA RESULT:    -6.190      5.019      8.500
REMARK INTER + INTRA:          -9.934
REMARK INTER:                  -7.384
REMARK INTRA:                  -2.551
REMARK CONF_INDEPENDENT:        1.193
REMARK UNBOUND:                -2.551
REMARK  4 active torsions:
REMARK  status: ('A' for Active; 'I' for Inactive)
REMARK    1  A    between atoms: C_4  and  C_5 
REMARK    2  A    between atoms: C_13  and  C_14 
REMARK    3  A    between atoms: N_24  and  C_25 
REMARK    4  A    between atoms: C_30  and  C_31 
ROOT
ATOM      1  C   UNL d   1      28.950 -13.642  -7.738  0.00  0.00     0.063 C 
ATOM      2  C   UNL d   1      28.795 -14.890  -6.746  0.00  0.00     0.004 C 
ATOM      3  C   UNL d   1      29.850 -15.453  -6.083  0.00  0.00    -0.008 C 
ATOM      4  C   UNL d   1      31.380 -15.284  -6.151  0.00  0.00     0.126 C 
ATOM      5  C   UNL d   1      31.891 -16.695  -6.226  0.00  0.00     0.026 C 
ATOM      6  C   UNL d   1      31.141 -17.728  -5.766  0.00  0.00     0.018 C 
ATOM      7  C   UNL d   1      31.530 -19.136  -6.020  0.00  0.00     0.067 C 
ATOM      8  C   UNL d   1      32.749 -19.364  -6.924  0.00  0.00     0.038 C 
ATOM      9  C   UNL d   1      33.647 -18.200  -7.294  0.00  0.00     0.094 C 
ATOM     10  C   UNL d   1      33.175 -16.865  -6.918  0.00  0.00     0.159 C 
ATOM     11  O   UNL d   1      33.859 -15.901  -7.263  0.00  0.00    -0.293 OA
ATOM     12  N   UNL d   1      29.925 -17.539  -5.070  0.00  0.00    -0.371 N 
ATOM     13  C   UNL d   1      29.461 -16.185  -4.716  0.00  0.00     0.210 C 
ATOM     14  N   UNL d   1      27.931 -15.868  -4.503  0.00  0.00    -0.185 NA
ATOM     15  N   UNL d   1      27.585 -15.224  -5.993  0.00  0.00    -0.222 NA
ATOM     16  H   UNL d   1      29.224 -18.273  -5.048  0.00  0.00     0.161 HD
ATOM     17  H   UNL d   1      26.984 -14.385  -5.901  0.00  0.00     0.147 HD
ENDROOT
BRANCH  14  18
ATOM     18  C   UNL d   1      27.713 -14.828  -3.367  0.00  0.00     0.045 C 
ATOM     19  C   UNL d   1      28.523 -14.251  -2.359  0.00  0.00     0.026 C 
ATOM     20  C   UNL d   1      27.857 -13.530  -1.256  0.00  0.00     0.002 C 
ATOM     21  C   UNL d   1      26.469 -13.289  -1.189  0.00  0.00     0.001 C 
ATOM     22  C   UNL d   1      25.724 -13.739  -2.210  0.00  0.00     0.020 C 
ATOM     23  C   UNL d   1      26.384 -14.404  -3.237  0.00  0.00     0.063 C 
BRANCH  23  24
ATOM     24  C   UNL d   1      25.637 -14.164  -4.424  0.00  0.00     0.211 C 
ATOM     25  O   UNL d   1      25.629 -13.011  -4.885  0.00  0.00    -0.644 OA
ATOM     26  O   UNL d   1      25.172 -15.239  -4.970  0.00  0.00    -0.644 OA
ENDBRANCH  23  24
ENDBRANCH  14  18
BRANCH   4  27
ATOM     27  C   UNL d   1      31.821 -14.370  -7.307  0.00  0.00     0.094 C 
ATOM     28  N   UNL d   1      32.179 -14.713  -8.568  0.00  0.00    -0.354 N 
ATOM     29  C   UNL d   1      32.888 -13.681  -9.169  0.00  0.00     0.106 C 
ATOM     30  H   UNL d   1      32.257 -15.709  -8.810  0.00  0.00     0.166 HD
ATOM     31  C   UNL d   1      32.808 -12.611  -8.326  0.00  0.00     0.106 C 
ATOM     32  N   UNL d   1      32.190 -13.072  -7.202  0.00  0.00    -0.354 N 
ATOM     33  H   UNL d   1      32.002 -12.536  -6.366  0.00  0.00     0.166 HD
ENDBRANCH   4  27
BRANCH   8  34
ATOM     34  C   UNL d   1      32.235 -19.930  -8.210  0.00  0.00    -0.013 A 
ATOM     35  C   UNL d   1      32.833 -20.935  -8.947  0.00  0.00     0.015 A 
ATOM     36  C   UNL d   1      32.137 -21.186 -10.149  0.00  0.00     0.008 A 
ATOM     37  C   UNL d   1      31.023 -20.386 -10.267  0.00  0.00     0.050 A 
ATOM     38  S   UNL d   1      30.810 -19.346  -8.928  0.00  0.00    -0.106 SA
ENDBRANCH   8  34
TORSDOF 4
ENDMDL
MODEL 6
REMARK VINA RESULT:    -6.151      2.551      4.551
REMARK INTER + INTRA:          -9.856
REMARK INTER:                  -7.344
REMARK INTRA:                  -2.512
REMARK CONF_INDEPENDENT:        1.193
REMARK UNBOUND:                -2.512
REMARK  4 active torsions:
REMARK  status: ('A' for Active; 'I' for Inactive)
REMARK    1  A    between atoms: C_4  and  C_5 
REMARK    2  A    between atoms: C_13  and  C_14 
REMARK    3  A    between atoms: N_24  and  C_25 
REMARK    4  A    between atoms: C_30  and  C_31 
ROOT
ATOM      1  C   UNL d   1      30.708 -11.671   1.069  0.00  0.00     0.063 C 
ATOM      2  C   UNL d   1      29.285 -12.277   1.482  0.00  0.00     0.004 C 
ATOM      3  C   UNL d   1      28.977 -13.605   1.371  0.00  0.00    -0.008 C 
ATOM      4  C   UNL d   1      29.672 -14.822   0.730  0.00  0.00     0.126 C 
ATOM      5  C   UNL d   1      28.582 -15.469  -0.078  0.00  0.00     0.026 C 
ATOM      6  C   UNL d   1      27.277 -15.264   0.230  0.00  0.00     0.018 C 
ATOM      7  C   UNL d   1      26.192 -15.716  -0.674  0.00  0.00     0.067 C 
ATOM      8  C   UNL d   1      26.619 -16.315  -2.020  0.00  0.00     0.038 C 
ATOM      9  C   UNL d   1      28.072 -16.667  -2.267  0.00  0.00     0.094 C 
ATOM     10  C   UNL d   1      29.034 -16.222  -1.255  0.00  0.00     0.159 C 
ATOM     11  O   UNL d   1      30.226 -16.443  -1.467  0.00  0.00    -0.293 OA
ATOM     12  N   UNL d   1      26.866 -14.568   1.389  0.00  0.00    -0.371 N 
ATOM     13  C   UNL d   1      27.852 -14.113   2.387  0.00  0.00     0.210 C 
ATOM     14  N   UNL d   1      27.564 -12.883   3.329  0.00  0.00    -0.185 NA
ATOM     15  N   UNL d   1      28.386 -11.710   2.489  0.00  0.00    -0.222 NA
ATOM     16  H   UNL d   1      25.953 -14.124   1.427  0.00  0.00     0.161 HD
ATOM     17  H   UNL d   1      28.921 -11.101   3.135  0.00  0.00     0.147 HD
ENDROOT
BRANCH  14  18
ATOM     18  C   UNL d   1      28.163 -13.093   4.749  0.00  0.00     0.045 C 
ATOM     19  C   UNL d   1      28.750 -14.178   5.445  0.00  0.00     0.026 C 
ATOM     20  C   UNL d   1      28.905 -14.066   6.909  0.00  0.00     0.002 C 
ATOM     21  C   UNL d   1      28.600 -12.908   7.653  0.00  0.00     0.001 C 
ATOM     22  C   UNL d   1      28.155 -11.844   6.967  0.00  0.00     0.020 C 
ATOM     23  C   UNL d   1      28.031 -11.980   5.589  0.00  0.00     0.063 C 
BRANCH  23  24
ATOM     24  C   UNL d   1      28.246 -10.689   5.031  0.00  0.00     0.211 C 
ATOM     25  O   UNL d   1      29.393 -10.216   5.082  0.00  0.00    -0.644 OA
ATOM     26  O   UNL d   1      27.225 -10.225   4.389  0.00  0.00    -0.644 OA
ENDBRANCH  23  24
ENDBRANCH  14  18
BRANCH   4  27
ATOM     27  C   UNL d   1      30.928 -14.433  -0.065  0.00  0.00     0.094 C 
ATOM     28  N   UNL d   1      31.040 -14.147  -1.385  0.00  0.00    -0.354 N 
ATOM     29  C   UNL d   1      32.365 -14.246  -1.791  0.00  0.00     0.106 C 
ATOM     30  H   UNL d   1      30.220 -14.269  -1.992  0.00  0.00     0.166 HD
ATOM     31  C   UNL d   1      33.108 -14.418  -0.661  0.00  0.00     0.106 C 
ATOM     32  N   UNL d   1      32.209 -14.560   0.354  0.00  0.00    -0.354 N 
ATOM     33  H   UNL d   1      32.432 -14.735   1.324  0.00  0.00     0.166 HD
ENDBRANCH   4  27
BRANCH   8  34
ATOM     34  C   UNL d   1      26.235 -15.327  -3.076  0.00  0.00    -0.013 A 
ATOM     35  C   UNL d   1      26.981 -15.008  -4.194  0.00  0.00     0.015 A 
ATOM     36  C   UNL d   1      26.374 -13.983  -4.951  0.00  0.00     0.008 A 
ATOM     37  C   UNL d   1      25.179 -13.583  -4.399  0.00  0.00     0.050 A 
ATOM     38  S   UNL d   1      24.783 -14.450  -2.980  0.00  0.00    -0.106 SA
ENDBRANCH   8  34
TORSDOF 4
ENDMDL
MODEL 7
REMARK VINA RESULT:    -6.113      2.069      3.053
REMARK INTER + INTRA:          -9.656
REMARK INTER:                  -7.307
REMARK INTRA:                  -2.349
REMARK CONF_INDEPENDENT:        1.193
REMARK UNBOUND:                -2.349
REMARK  4 active torsions:
REMARK  status: ('A' for Active; 'I' for Inactive)
REMARK    1  A    between atoms: C_4  and  C_5 
REMARK    2  A    between atoms: C_13  and  C_14 
REMARK    3  A    between atoms: N_24  and  C_25 
REMARK    4  A    between atoms: C_30  and  C_31 
ROOT
ATOM      1  C   UNL d   1      31.369 -14.118   0.426  0.00  0.00     0.063 C 
ATOM      2  C   UNL d   1      29.966 -13.362   0.584  0.00  0.00     0.004 C 
ATOM      3  C   UNL d   1      28.760 -13.974   0.377  0.00  0.00    -0.008 C 
ATOM      4  C   UNL d   1      28.328 -15.341  -0.189  0.00  0.00     0.126 C 
ATOM      5  C   UNL d   1      27.258 -14.992  -1.184  0.00  0.00     0.026 C 
ATOM      6  C   UNL d   1      26.570 -13.827  -1.081  0.00  0.00     0.018 C 
ATOM      7  C   UNL d   1      25.665 -13.367  -2.162  0.00  0.00     0.067 C 
ATOM      8  C   UNL d   1      25.638 -14.210  -3.444  0.00  0.00     0.038 C 
ATOM      9  C   UNL d   1      26.296 -15.575  -3.469  0.00  0.00     0.094 C 
ATOM     10  C   UNL d   1      27.105 -15.932  -2.301  0.00  0.00     0.159 C 
ATOM     11  O   UNL d   1      27.698 -17.011  -2.328  0.00  0.00    -0.293 OA
ATOM     12  N   UNL d   1      26.706 -12.954   0.023  0.00  0.00    -0.371 N 
ATOM     13  C   UNL d   1      27.540 -13.326   1.181  0.00  0.00     0.210 C 
ATOM     14  N   UNL d   1      28.195 -12.233   2.109  0.00  0.00    -0.185 NA
ATOM     15  N   UNL d   1      29.720 -12.211   1.455  0.00  0.00    -0.222 NA
ATOM     16  H   UNL d   1      26.481 -11.968  -0.069  0.00  0.00     0.161 HD
ATOM     17  H   UNL d   1      30.440 -12.173   2.200  0.00  0.00     0.147 HD
ENDROOT
BRANCH  14  18
ATOM     18  C   UNL d   1      28.219 -12.684   3.598  0.00  0.00     0.045 C 
ATOM     19  C   UNL d   1      28.154 -13.925   4.277  0.00  0.00     0.026 C 
ATOM     20  C   UNL d   1      27.881 -13.913   5.728  0.00  0.00     0.002 C 
ATOM     21  C   UNL d   1      27.780 -12.743   6.507  0.00  0.00     0.001 C 
ATOM     22  C   UNL d   1      27.961 -11.574   5.874  0.00  0.00     0.020 C 
ATOM     23  C   UNL d   1      28.226 -11.621   4.510  0.00  0.00     0.063 C 
BRANCH  23  24
ATOM     24  C   UNL d   1      29.032 -10.487   4.212  0.00  0.00     0.211 C 
ATOM     25  O   UNL d   1      30.169 -10.683   3.755  0.00  0.00    -0.644 OA
ATOM     26  O   UNL d   1      28.403  -9.362   4.317  0.00  0.00    -0.644 OA
ENDBRANCH  23  24
ENDBRANCH  14  18
BRANCH   4  27
ATOM     27  C   UNL d   1      29.510 -16.142  -0.759  0.00  0.00     0.094 C 
ATOM     28  N   UNL d   1      29.969 -16.184  -2.033  0.00  0.00    -0.354 N 
ATOM     29  C   UNL d   1      30.765 -17.306  -2.226  0.00  0.00     0.106 C 
ATOM     30  H   UNL d   1      29.445 -15.692  -2.768  0.00  0.00     0.166 HD
ATOM     31  C   UNL d   1      30.947 -17.870  -0.997  0.00  0.00     0.106 C 
ATOM     32  N   UNL d   1      30.151 -17.165  -0.145  0.00  0.00    -0.354 N 
ATOM     33  H   UNL d   1      30.029 -17.347   0.842  0.00  0.00     0.166 HD
ENDBRANCH   4  27
BRANCH   8  34
ATOM     34  C   UNL d   1      26.303 -13.398  -4.511  0.00  0.00    -0.013 A 
ATOM     35  C   UNL d   1      26.064 -12.063  -4.777  0.00  0.00     0.015 A 
ATOM     36  C   UNL d   1      26.797 -11.615  -5.897  0.00  0.00     0.008 A 
ATOM     37  C   UNL d   1      27.586 -12.614  -6.420  0.00  0.00     0.050 A 
ATOM     38  S   UNL d   1      27.453 -14.083  -5.557  0.00  0.00    -0.106 SA
ENDBRANCH   8  34
TORSDOF 4
ENDMDL
MODEL 8
REMARK VINA RESULT:    -5.898      3.198      5.990
REMARK INTER + INTRA:          -9.479
REMARK INTER:                  -7.091
REMARK INTRA:                  -2.388
REMARK CONF_INDEPENDENT:        1.193
REMARK UNBOUND:                -2.388
REMARK  4 active torsions:
REMARK  status: ('A' for Active; 'I' for Inactive)
REMARK    1  A    between atoms: C_4  and  C_5 
REMARK    2  A    between atoms: C_13  and  C_14 
REMARK    3  A    between atoms: N_24  and  C_25 
REMARK    4  A    between atoms: C_30  and  C_31 
ROOT
ATOM      1  C   UNL d   1      26.893 -11.516  -4.471  0.00  0.00     0.063 C 
ATOM      2  C   UNL d   1      26.789 -11.575  -2.874  0.00  0.00     0.004 C 
ATOM      3  C   UNL d   1      27.611 -12.347  -2.100  0.00  0.00    -0.008 C 
ATOM      4  C   UNL d   1      28.658 -13.440  -2.396  0.00  0.00     0.126 C 
ATOM      5  C   UNL d   1      28.289 -14.551  -1.453  0.00  0.00     0.026 C 
ATOM      6  C   UNL d   1      27.582 -14.294  -0.324  0.00  0.00     0.018 C 
ATOM      7  C   UNL d   1      27.028 -15.393   0.505  0.00  0.00     0.067 C 
ATOM      8  C   UNL d   1      27.192 -16.818  -0.040  0.00  0.00     0.038 C 
ATOM      9  C   UNL d   1      28.111 -17.080  -1.216  0.00  0.00     0.094 C 
ATOM     10  C   UNL d   1      28.647 -15.902  -1.902  0.00  0.00     0.159 C 
ATOM     11  O   UNL d   1      29.346 -16.092  -2.898  0.00  0.00    -0.293 OA
ATOM     12  N   UNL d   1      27.280 -12.982   0.107  0.00  0.00    -0.371 N 
ATOM     13  C   UNL d   1      27.817 -11.810  -0.608  0.00  0.00     0.210 C 
ATOM     14  N   UNL d   1      27.084 -10.415  -0.570  0.00  0.00    -0.185 NA
ATOM     15  N   UNL d   1      26.280 -10.501  -2.020  0.00  0.00    -0.222 NA
ATOM     16  H   UNL d   1      26.487 -12.811   0.718  0.00  0.00     0.161 HD
ATOM     17  H   UNL d   1      26.332  -9.596  -2.524  0.00  0.00     0.147 HD
ENDROOT
BRANCH  14  18
ATOM     18  C   UNL d   1      28.096  -9.234  -0.548  0.00  0.00     0.045 C 
ATOM     19  C   UNL d   1      29.444  -9.055  -0.943  0.00  0.00     0.026 C 
ATOM     20  C   UNL d   1      30.160  -7.858  -0.457  0.00  0.00     0.002 C 
ATOM     21  C   UNL d   1      29.563  -6.826   0.294  0.00  0.00     0.001 C 
ATOM     22  C   UNL d   1      28.254  -6.950   0.563  0.00  0.00     0.020 C 
ATOM     23  C   UNL d   1      27.608  -8.082   0.082  0.00  0.00     0.063 C 
BRANCH  23  24
ATOM     24  C   UNL d   1      26.256  -7.711  -0.156  0.00  0.00     0.211 C 
ATOM     25  O   UNL d   1      25.815  -7.819  -1.312  0.00  0.00    -0.644 OA
ATOM     26  O   UNL d   1      25.594  -7.442   0.922  0.00  0.00    -0.644 OA
ENDBRANCH  23  24
ENDBRANCH  14  18
BRANCH   4  27
ATOM     27  C   UNL d   1      28.695 -13.832  -3.882  0.00  0.00     0.094 C 
ATOM     28  N   UNL d   1      28.028 -14.829  -4.511  0.00  0.00    -0.354 N 
ATOM     29  C   UNL d   1      28.625 -15.117  -5.732  0.00  0.00     0.106 C 
ATOM     30  H   UNL d   1      27.471 -15.487  -3.951  0.00  0.00     0.166 HD
ATOM     31  C   UNL d   1      29.569 -14.155  -5.941  0.00  0.00     0.106 C 
ATOM     32  N   UNL d   1      29.608 -13.421  -4.793  0.00  0.00    -0.354 N 
ATOM     33  H   UNL d   1      30.227 -12.644  -4.606  0.00  0.00     0.166 HD
ENDBRANCH   4  27
BRANCH   8  34
ATOM     34  C   UNL d   1      25.831 -17.284  -0.450  0.00  0.00    -0.013 A 
ATOM     35  C   UNL d   1      25.052 -18.201   0.229  0.00  0.00     0.015 A 
ATOM     36  C   UNL d   1      23.854 -18.482  -0.462  0.00  0.00     0.008 A 
ATOM     37  C   UNL d   1      23.753 -17.748  -1.623  0.00  0.00     0.050 A 
ATOM     38  S   UNL d   1      25.092 -16.716  -1.870  0.00  0.00    -0.106 SA
ENDBRANCH   8  34
TORSDOF 4
ENDMDL
MODEL 9
REMARK VINA RESULT:    -5.719      1.590      2.259
REMARK INTER + INTRA:          -9.503
REMARK INTER:                  -6.912
REMARK INTRA:                  -2.590
REMARK CONF_INDEPENDENT:        1.193
REMARK UNBOUND:                -2.590
REMARK  4 active torsions:
REMARK  status: ('A' for Active; 'I' for Inactive)
REMARK    1  A    between atoms: C_4  and  C_5 
REMARK    2  A    between atoms: C_13  and  C_14 
REMARK    3  A    between atoms: N_24  and  C_25 
REMARK    4  A    between atoms: C_30  and  C_31 
ROOT
ATOM      1  C   UNL d   1      27.768 -15.556   1.270  0.00  0.00     0.063 C 
ATOM      2  C   UNL d   1      28.132 -14.192   0.515  0.00  0.00     0.004 C 
ATOM      3  C   UNL d   1      27.336 -13.636  -0.449  0.00  0.00    -0.008 C 
ATOM      4  C   UNL d   1      26.085 -14.106  -1.217  0.00  0.00     0.126 C 
ATOM      5  C   UNL d   1      26.417 -13.810  -2.653  0.00  0.00     0.026 C 
ATOM      6  C   UNL d   1      27.340 -12.869  -2.970  0.00  0.00     0.018 C 
ATOM      7  C   UNL d   1      27.834 -12.710  -4.359  0.00  0.00     0.067 C 
ATOM      8  C   UNL d   1      27.340 -13.736  -5.388  0.00  0.00     0.038 C 
ATOM      9  C   UNL d   1      26.202 -14.674  -5.039  0.00  0.00     0.094 C 
ATOM     10  C   UNL d   1      25.763 -14.677  -3.641  0.00  0.00     0.159 C 
ATOM     11  O   UNL d   1      24.882 -15.476  -3.323  0.00  0.00    -0.293 OA
ATOM     12  N   UNL d   1      27.929 -12.020  -2.005  0.00  0.00    -0.371 N 
ATOM     13  C   UNL d   1      27.484 -12.051  -0.599  0.00  0.00     0.210 C 
ATOM     14  N   UNL d   1      28.438 -11.615   0.577  0.00  0.00    -0.185 NA
ATOM     15  N   UNL d   1      28.955 -13.115   1.067  0.00  0.00    -0.222 NA
ATOM     16  H   UNL d   1      28.833 -11.591  -2.179  0.00  0.00     0.161 HD
ATOM     17  H   UNL d   1      28.971 -13.179   2.102  0.00  0.00     0.147 HD
ENDROOT
BRANCH  14  18
ATOM     18  C   UNL d   1      27.660 -10.883   1.707  0.00  0.00     0.045 C 
ATOM     19  C   UNL d   1      26.352 -10.359   1.854  0.00  0.00     0.026 C 
ATOM     20  C   UNL d   1      26.091  -9.440   2.980  0.00  0.00     0.002 C 
ATOM     21  C   UNL d   1      27.032  -9.124   3.982  0.00  0.00     0.001 C 
ATOM     22  C   UNL d   1      28.231  -9.720   3.898  0.00  0.00     0.020 C 
ATOM     23  C   UNL d   1      28.441 -10.587   2.832  0.00  0.00     0.063 C 
BRANCH  23  24
ATOM     24  C   UNL d   1      29.369 -11.567   3.280  0.00  0.00     0.211 C 
ATOM     25  O   UNL d   1      28.989 -12.383   4.136  0.00  0.00    -0.644 OA
ATOM     26  O   UNL d   1      30.474 -11.579   2.610  0.00  0.00    -0.644 OA
ENDBRANCH  23  24
ENDBRANCH  14  18
BRANCH   4  27
ATOM     27  C   UNL d   1      25.727 -15.571  -0.920  0.00  0.00     0.094 C 
ATOM     28  N   UNL d   1      26.118 -16.689  -1.579  0.00  0.00    -0.354 N 
ATOM     29  C   UNL d   1      25.278 -17.752  -1.272  0.00  0.00     0.106 C 
ATOM     30  H   UNL d   1      26.663 -16.591  -2.444  0.00  0.00     0.166 HD
ATOM     31  C   UNL d   1      24.463 -17.326  -0.264  0.00  0.00     0.106 C 
ATOM     32  N   UNL d   1      24.738 -16.001  -0.102  0.00  0.00    -0.354 N 
ATOM     33  H   UNL d   1      24.282 -15.376   0.549  0.00  0.00     0.166 HD
ENDBRANCH   4  27
BRANCH   8  34
ATOM     34  C   UNL d   1      28.512 -14.599  -5.736  0.00  0.00    -0.013 A 
ATOM     35  C   UNL d   1      29.350 -14.425  -6.821  0.00  0.00     0.015 A 
ATOM     36  C   UNL d   1      30.311 -15.455  -6.908  0.00  0.00     0.008 A 
ATOM     37  C   UNL d   1      30.188 -16.354  -5.873  0.00  0.00     0.050 A 
ATOM     38  S   UNL d   1      28.926 -15.951  -4.794  0.00  0.00    -0.106 SA
ENDBRANCH   8  34
TORSDOF 4
ENDMDL
