MODEL 1
REMARK VINA RESULT:   -11.620      0.000      0.000
REMARK INTER + INTRA:         -16.843
REMARK INTER:                 -14.603
REMARK INTRA:                  -2.240
REMARK CONF_INDEPENDENT:        2.983
REMARK UNBOUND:                -2.240
REMARK  10 active torsions:
REMARK  status: ('A' for Active; 'I' for Inactive)
REMARK    1  A    between atoms: N_1  and  C_2 
REMARK    2  A    between atoms: C_6  and  N_7 
REMARK    3  A    between atoms: C_10  and  C_11 
REMARK    4  A    between atoms: C_11  and  N_12 
REMARK    5  A    between atoms: C_17  and  C_18 
REMARK       I    between atoms: C_18  and  N_20 
REMARK    6  A    between atoms: N_20  and  N_21 
REMARK    7  A    between atoms: C_22  and  C_23 
REMARK    8  A    between atoms: C_26  and  O_27 
REMARK    9  A    between atoms: O_27  and  C_28 
REMARK   10  A    between atoms: C_28  and  C_29 
ROOT
ATOM      1  C   UNL d   1      28.253 -11.930   2.596  0.00  0.00     0.292 C 
ATOM      2  O   UNL d   1      27.738 -12.261   3.645  0.00  0.00    -0.264 OA
ATOM      3  N   UNL d   1      28.162 -12.671   1.284  0.00  0.00    -0.242 N 
ATOM      4  H   UNL d   1      28.469 -12.278   0.418  0.00  0.00     0.192 HD
ENDROOT
BRANCH   1   5
ATOM      5  C   UNL d   1      28.765 -10.879   3.314  0.00  0.00     0.153 C 
ATOM      6  C   UNL d   1      30.035 -10.857   4.007  0.00  0.00     0.112 C 
ATOM      7  N   UNL d   1      30.246  -9.525   4.182  0.00  0.00    -0.160 NA
ATOM      8  N   UNL d   1      29.190  -8.846   3.618  0.00  0.00     0.012 NA
ATOM      9  N   UNL d   1      28.205  -9.705   3.220  0.00  0.00    -0.207 N 
BRANCH   6  10
ATOM     10  C   UNL d   1      31.117 -12.133   4.325  0.00  0.00     0.297 C 
BRANCH  10  11
ATOM     11  N   UNL d   1      30.683 -13.416   5.459  0.00  0.00    -0.066 N 
ATOM     12  C   UNL d   1      30.059 -14.820   4.605  0.00  0.00     0.235 C 
ATOM     13  C   UNL d   1      28.544 -14.801   4.649  0.00  0.00     0.029 C 
ATOM     14  C   UNL d   1      28.202 -13.684   6.184  0.00  0.00     0.029 C 
ATOM     15  C   UNL d   1      29.498 -12.829   6.520  0.00  0.00     0.235 C 
ATOM     16  H   UNL d   1      31.529 -13.692   5.971  0.00  0.00     0.280 HD
ENDBRANCH  10  11
ENDBRANCH   6  10
BRANCH   9  17
ATOM     17  C   UNL d   1      26.915  -9.674   2.552  0.00  0.00     0.225 C 
ATOM     18  N   UNL d   1      25.823  -9.587   3.332  0.00  0.00    -0.081 NA
ATOM     19  O   UNL d   1      24.787  -9.202   2.475  0.00  0.00    -0.103 OA
ATOM     20  N   UNL d   1      25.271  -8.776   1.247  0.00  0.00    -0.083 NA
ATOM     21  C   UNL d   1      26.586  -9.018   1.268  0.00  0.00     0.201 C 
BRANCH  21  22
ATOM     22  N   UNL d   1      27.384  -8.384   0.362  0.00  0.00    -0.379 N 
ATOM     23  H   UNL d   1      27.559  -8.810  -0.557  0.00  0.00     0.158 HD
ATOM     24  H   UNL d   1      27.725  -7.432   0.409  0.00  0.00     0.158 HD
ENDBRANCH  21  22
ENDBRANCH   9  17
ENDBRANCH   1   5
BRANCH   3  25
ATOM     25  N   UNL d   1      27.224 -13.839   0.972  0.00  0.00    -0.183 NA
ATOM     26  C   UNL d   1      27.609 -14.971   0.468  0.00  0.00     0.150 C 
BRANCH  26  27
ATOM     27  C   UNL d   1      26.679 -16.084   0.010  0.00  0.00    -0.017 A 
ATOM     28  C   UNL d   1      25.663 -15.741  -0.882  0.00  0.00     0.015 A 
ATOM     29  C   UNL d   1      24.568 -16.601  -1.091  0.00  0.00     0.037 A 
ATOM     30  C   UNL d   1      24.534 -17.880  -0.523  0.00  0.00     0.069 A 
ATOM     31  C   UNL d   1      25.571 -18.254   0.326  0.00  0.00     0.037 A 
ATOM     32  C   UNL d   1      26.640 -17.367   0.586  0.00  0.00     0.015 A 
BRANCH  30  33
ATOM     33  O   UNL d   1      23.479 -18.675  -0.874  0.00  0.00    -0.347 OA
BRANCH  33  34
ATOM     34  C   UNL d   1      22.246 -18.029  -1.248  0.00  0.00     0.214 C 
BRANCH  34  35
ATOM     35  C   UNL d   1      21.121 -18.732  -0.525  0.00  0.00    -0.034 C 
ATOM     36  C   UNL d   1      21.183 -19.001   0.849  0.00  0.00     0.011 C 
ATOM     37  C   UNL d   1      20.285 -19.906   1.420  0.00  0.00     0.024 C 
ATOM     38  C   UNL d   1      19.230 -20.411   0.664  0.00  0.00     0.034 C 
ATOM     39 CL   UNL d   1      18.042 -21.405   1.411  0.00  0.00    -0.084 Cl
ATOM     40  C   UNL d   1      19.106 -20.075  -0.680  0.00  0.00     0.024 C 
ATOM     41  C   UNL d   1      20.045 -19.230  -1.269  0.00  0.00     0.011 C 
ENDBRANCH  34  35
ENDBRANCH  33  34
ENDBRANCH  30  33
ENDBRANCH  26  27
ENDBRANCH   3  25
TORSDOF 10
ENDMDL
MODEL 2
REMARK VINA RESULT:   -10.035      3.724      5.325
REMARK INTER + INTRA:         -16.351
REMARK INTER:                 -13.018
REMARK INTRA:                  -3.333
REMARK CONF_INDEPENDENT:        2.983
REMARK UNBOUND:                -3.333
REMARK  10 active torsions:
REMARK  status: ('A' for Active; 'I' for Inactive)
REMARK    1  A    between atoms: N_1  and  C_2 
REMARK    2  A    between atoms: C_6  and  N_7 
REMARK    3  A    between atoms: C_10  and  C_11 
REMARK    4  A    between atoms: C_11  and  N_12 
REMARK    5  A    between atoms: C_17  and  C_18 
REMARK       I    between atoms: C_18  and  N_20 
REMARK    6  A    between atoms: N_20  and  N_21 
REMARK    7  A    between atoms: C_22  and  C_23 
REMARK    8  A    between atoms: C_26  and  O_27 
REMARK    9  A    between atoms: O_27  and  C_28 
REMARK   10  A    between atoms: C_28  and  C_29 
ROOT
ATOM      1  C   UNL d   1      31.252 -15.477   1.237  0.00  0.00     0.292 C 
ATOM      2  O   UNL d   1      31.423 -16.679   1.239  0.00  0.00    -0.264 OA
ATOM      3  N   UNL d   1      29.947 -14.761   0.981  0.00  0.00    -0.242 N 
ATOM      4  H   UNL d   1      29.825 -13.783   1.147  0.00  0.00     0.192 HD
ENDROOT
BRANCH   1   5
ATOM      5  C   UNL d   1      32.600 -15.402   1.482  0.00  0.00     0.153 C 
ATOM      6  C   UNL d   1      33.590 -16.394   1.121  0.00  0.00     0.112 C 
ATOM      7  N   UNL d   1      34.748 -15.687   1.195  0.00  0.00    -0.160 NA
ATOM      8  N   UNL d   1      34.441 -14.395   1.552  0.00  0.00     0.012 NA
ATOM      9  N   UNL d   1      33.120 -14.272   1.876  0.00  0.00    -0.207 N 
BRANCH   6  10
ATOM     10  C   UNL d   1      33.370 -17.974   0.526  0.00  0.00     0.297 C 
BRANCH  10  11
ATOM     11  N   UNL d   1      32.254 -19.087   1.325  0.00  0.00    -0.066 N 
ATOM     12  C   UNL d   1      32.730 -19.358   2.995  0.00  0.00     0.235 C 
ATOM     13  C   UNL d   1      33.491 -20.664   3.093  0.00  0.00     0.029 C 
ATOM     14  C   UNL d   1      32.887 -21.599   1.518  0.00  0.00     0.029 C 
ATOM     15  C   UNL d   1      32.262 -20.562   0.489  0.00  0.00     0.235 C 
ATOM     16  H   UNL d   1      31.317 -18.665   1.314  0.00  0.00     0.280 HD
ENDBRANCH  10  11
ENDBRANCH   6  10
BRANCH   9  17
ATOM     17  C   UNL d   1      32.169 -13.246   2.272  0.00  0.00     0.225 C 
ATOM     18  N   UNL d   1      31.721 -12.421   1.308  0.00  0.00    -0.081 NA
ATOM     19  O   UNL d   1      30.585 -11.809   1.846  0.00  0.00    -0.103 OA
ATOM     20  N   UNL d   1      30.161 -12.444   3.003  0.00  0.00    -0.083 NA
ATOM     21  C   UNL d   1      31.093 -13.362   3.280  0.00  0.00     0.201 C 
BRANCH  21  22
ATOM     22  N   UNL d   1      30.782 -14.375   4.137  0.00  0.00    -0.379 N 
ATOM     23  H   UNL d   1      30.288 -15.208   3.792  0.00  0.00     0.158 HD
ATOM     24  H   UNL d   1      31.117 -14.500   5.084  0.00  0.00     0.158 HD
ENDBRANCH  21  22
ENDBRANCH   9  17
ENDBRANCH   1   5
BRANCH   3  25
ATOM     25  N   UNL d   1      28.563 -15.410   0.908  0.00  0.00    -0.183 NA
ATOM     26  C   UNL d   1      28.171 -16.187  -0.053  0.00  0.00     0.150 C 
BRANCH  26  27
ATOM     27  C   UNL d   1      26.756 -16.718  -0.224  0.00  0.00    -0.017 A 
ATOM     28  C   UNL d   1      26.386 -17.812   0.559  0.00  0.00     0.015 A 
ATOM     29  C   UNL d   1      25.247 -18.575   0.237  0.00  0.00     0.037 A 
ATOM     30  C   UNL d   1      24.378 -18.180  -0.786  0.00  0.00     0.069 A 
ATOM     31  C   UNL d   1      24.709 -17.057  -1.539  0.00  0.00     0.037 A 
ATOM     32  C   UNL d   1      25.885 -16.326  -1.257  0.00  0.00     0.015 A 
BRANCH  30  33
ATOM     33  O   UNL d   1      23.246 -18.929  -0.948  0.00  0.00    -0.347 OA
BRANCH  33  34
ATOM     34  C   UNL d   1      22.023 -18.238  -1.270  0.00  0.00     0.214 C 
BRANCH  34  35
ATOM     35  C   UNL d   1      20.898 -18.929  -0.537  0.00  0.00    -0.034 C 
ATOM     36  C   UNL d   1      21.030 -19.341   0.796  0.00  0.00     0.011 C 
ATOM     37  C   UNL d   1      20.103 -20.234   1.342  0.00  0.00     0.024 C 
ATOM     38  C   UNL d   1      18.964 -20.581   0.622  0.00  0.00     0.034 C 
ATOM     39 CL   UNL d   1      17.754 -21.559   1.355  0.00  0.00    -0.084 Cl
ATOM     40  C   UNL d   1      18.777 -20.101  -0.671  0.00  0.00     0.024 C 
ATOM     41  C   UNL d   1      19.738 -19.269  -1.243  0.00  0.00     0.011 C 
ENDBRANCH  34  35
ENDBRANCH  33  34
ENDBRANCH  30  33
ENDBRANCH  26  27
ENDBRANCH   3  25
TORSDOF 10
ENDMDL
MODEL 3
REMARK VINA RESULT:    -9.874      3.474      5.666
REMARK INTER + INTRA:         -16.010
REMARK INTER:                 -12.857
REMARK INTRA:                  -3.153
REMARK CONF_INDEPENDENT:        2.983
REMARK UNBOUND:                -3.153
REMARK  10 active torsions:
REMARK  status: ('A' for Active; 'I' for Inactive)
REMARK    1  A    between atoms: N_1  and  C_2 
REMARK    2  A    between atoms: C_6  and  N_7 
REMARK    3  A    between atoms: C_10  and  C_11 
REMARK    4  A    between atoms: C_11  and  N_12 
REMARK    5  A    between atoms: C_17  and  C_18 
REMARK       I    between atoms: C_18  and  N_20 
REMARK    6  A    between atoms: N_20  and  N_21 
REMARK    7  A    between atoms: C_22  and  C_23 
REMARK    8  A    between atoms: C_26  and  O_27 
REMARK    9  A    between atoms: O_27  and  C_28 
REMARK   10  A    between atoms: C_28  and  C_29 
ROOT
ATOM      1  C   UNL d   1      29.983 -13.163   6.602  0.00  0.00     0.292 C 
ATOM      2  O   UNL d   1      30.186 -12.166   5.938  0.00  0.00    -0.264 OA
ATOM      3  N   UNL d   1      29.121 -14.338   6.206  0.00  0.00    -0.242 N 
ATOM      4  H   UNL d   1      29.114 -15.198   6.714  0.00  0.00     0.192 HD
ENDROOT
BRANCH   1   5
ATOM      5  C   UNL d   1      30.769 -12.553   7.546  0.00  0.00     0.153 C 
ATOM      6  C   UNL d   1      31.916 -11.709   7.286  0.00  0.00     0.112 C 
ATOM      7  N   UNL d   1      32.065 -11.052   8.467  0.00  0.00    -0.160 NA
ATOM      8  N   UNL d   1      31.073 -11.474   9.322  0.00  0.00     0.012 NA
ATOM      9  N   UNL d   1      30.372 -12.518   8.788  0.00  0.00    -0.207 N 
BRANCH   6  10
ATOM     10  C   UNL d   1      32.737 -11.420   5.823  0.00  0.00     0.297 C 
BRANCH  10  11
ATOM     11  N   UNL d   1      32.209 -12.201   4.328  0.00  0.00    -0.066 N 
ATOM     12  C   UNL d   1      33.589 -12.679   3.352  0.00  0.00     0.235 C 
ATOM     13  C   UNL d   1      33.823 -11.642   2.271  0.00  0.00     0.029 C 
ATOM     14  C   UNL d   1      32.090 -10.805   2.140  0.00  0.00     0.029 C 
ATOM     15  C   UNL d   1      31.249 -11.111   3.453  0.00  0.00     0.235 C 
ATOM     16  H   UNL d   1      31.674 -13.042   4.577  0.00  0.00     0.280 HD
ENDBRANCH  10  11
ENDBRANCH   6  10
BRANCH   9  17
ATOM     17  C   UNL d   1      29.235 -13.366   9.109  0.00  0.00     0.225 C 
ATOM     18  N   UNL d   1      29.382 -14.688   8.908  0.00  0.00    -0.081 NA
ATOM     19  O   UNL d   1      28.339 -15.287   9.622  0.00  0.00    -0.103 OA
ATOM     20  N   UNL d   1      27.728 -14.389  10.484  0.00  0.00    -0.083 NA
ATOM     21  C   UNL d   1      28.278 -13.198  10.223  0.00  0.00     0.201 C 
BRANCH  21  22
ATOM     22  N   UNL d   1      28.149 -12.200  11.143  0.00  0.00    -0.379 N 
ATOM     23  H   UNL d   1      28.906 -11.517  11.272  0.00  0.00     0.158 HD
ATOM     24  H   UNL d   1      27.308 -11.930  11.638  0.00  0.00     0.158 HD
ENDBRANCH  21  22
ENDBRANCH   9  17
ENDBRANCH   1   5
BRANCH   3  25
ATOM     25  N   UNL d   1      28.536 -14.598   4.817  0.00  0.00    -0.183 NA
ATOM     26  C   UNL d   1      28.991 -14.072   3.722  0.00  0.00     0.150 C 
BRANCH  26  27
ATOM     27  C   UNL d   1      28.335 -14.195   2.356  0.00  0.00    -0.017 A 
ATOM     28  C   UNL d   1      27.185 -13.438   2.129  0.00  0.00     0.015 A 
ATOM     29  C   UNL d   1      26.329 -13.734   1.051  0.00  0.00     0.037 A 
ATOM     30  C   UNL d   1      26.674 -14.699   0.098  0.00  0.00     0.069 A 
ATOM     31  C   UNL d   1      27.848 -15.423   0.284  0.00  0.00     0.037 A 
ATOM     32  C   UNL d   1      28.677 -15.170   1.400  0.00  0.00     0.015 A 
BRANCH  30  33
ATOM     33  O   UNL d   1      25.826 -14.835  -0.967  0.00  0.00    -0.347 OA
BRANCH  33  34
ATOM     34  C   UNL d   1      25.760 -16.122  -1.612  0.00  0.00     0.214 C 
BRANCH  34  35
ATOM     35  C   UNL d   1      24.615 -16.889  -0.993  0.00  0.00    -0.034 C 
ATOM     36  C   UNL d   1      24.774 -18.200  -0.525  0.00  0.00     0.011 C 
ATOM     37  C   UNL d   1      23.647 -18.978  -0.245  0.00  0.00     0.024 C 
ATOM     38  C   UNL d   1      22.380 -18.403  -0.271  0.00  0.00     0.034 C 
ATOM     39 CL   UNL d   1      21.013 -19.324   0.220  0.00  0.00    -0.084 Cl
ATOM     40  C   UNL d   1      22.220 -17.073  -0.645  0.00  0.00     0.024 C 
ATOM     41  C   UNL d   1      23.337 -16.316  -0.996  0.00  0.00     0.011 C 
ENDBRANCH  34  35
ENDBRANCH  33  34
ENDBRANCH  30  33
ENDBRANCH  26  27
ENDBRANCH   3  25
TORSDOF 10
ENDMDL
MODEL 4
REMARK VINA RESULT:    -9.845      6.344      9.266
REMARK INTER + INTRA:         -15.948
REMARK INTER:                 -12.828
REMARK INTRA:                  -3.119
REMARK CONF_INDEPENDENT:        2.983
REMARK UNBOUND:                -3.119
REMARK  10 active torsions:
REMARK  status: ('A' for Active; 'I' for Inactive)
REMARK    1  A    between atoms: N_1  and  C_2 
REMARK    2  A    between atoms: C_6  and  N_7 
REMARK    3  A    between atoms: C_10  and  C_11 
REMARK    4  A    between atoms: C_11  and  N_12 
REMARK    5  A    between atoms: C_17  and  C_18 
REMARK       I    between atoms: C_18  and  N_20 
REMARK    6  A    between atoms: N_20  and  N_21 
REMARK    7  A    between atoms: C_22  and  C_23 
REMARK    8  A    between atoms: C_26  and  O_27 
REMARK    9  A    between atoms: O_27  and  C_28 
REMARK   10  A    between atoms: C_28  and  C_29 
ROOT
ATOM      1  C   UNL d   1      30.277 -16.131  -5.397  0.00  0.00     0.292 C 
ATOM      2  O   UNL d   1      29.501 -15.972  -6.318  0.00  0.00    -0.264 OA
ATOM      3  N   UNL d   1      29.919 -16.207  -3.932  0.00  0.00    -0.242 N 
ATOM      4  H   UNL d   1      30.570 -16.497  -3.231  0.00  0.00     0.192 HD
ENDROOT
BRANCH   1   5
ATOM      5  C   UNL d   1      31.248 -16.120  -6.367  0.00  0.00     0.153 C 
ATOM      6  C   UNL d   1      31.515 -15.043  -7.296  0.00  0.00     0.112 C 
ATOM      7  N   UNL d   1      32.770 -15.336  -7.726  0.00  0.00    -0.160 NA
ATOM      8  N   UNL d   1      33.190 -16.477  -7.080  0.00  0.00     0.012 NA
ATOM      9  N   UNL d   1      32.176 -17.037  -6.356  0.00  0.00    -0.207 N 
BRANCH   6  10
ATOM     10  C   UNL d   1      30.608 -13.636  -7.610  0.00  0.00     0.297 C 
BRANCH  10  11
ATOM     11  N   UNL d   1      28.848 -13.712  -7.735  0.00  0.00    -0.066 N 
ATOM     12  C   UNL d   1      28.256 -12.575  -8.936  0.00  0.00     0.235 C 
ATOM     13  C   UNL d   1      27.766 -11.321  -8.241  0.00  0.00     0.029 C 
ATOM     14  C   UNL d   1      27.408 -11.966  -6.459  0.00  0.00     0.029 C 
ATOM     15  C   UNL d   1      28.177 -13.336  -6.223  0.00  0.00     0.235 C 
ATOM     16  H   UNL d   1      28.587 -14.663  -8.024  0.00  0.00     0.280 HD
ENDBRANCH  10  11
ENDBRANCH   6  10
BRANCH   9  17
ATOM     17  C   UNL d   1      31.946 -18.154  -5.456  0.00  0.00     0.225 C 
ATOM     18  N   UNL d   1      32.017 -17.902  -4.136  0.00  0.00    -0.081 NA
ATOM     19  O   UNL d   1      31.408 -18.998  -3.518  0.00  0.00    -0.103 OA
ATOM     20  N   UNL d   1      30.712 -19.778  -4.430  0.00  0.00    -0.083 NA
ATOM     21  C   UNL d   1      30.991 -19.268  -5.635  0.00  0.00     0.201 C 
BRANCH  21  22
ATOM     22  N   UNL d   1      30.181 -19.587  -6.684  0.00  0.00    -0.379 N 
ATOM     23  H   UNL d   1      29.580 -20.419  -6.636  0.00  0.00     0.158 HD
ATOM     24  H   UNL d   1      29.963 -19.008  -7.486  0.00  0.00     0.158 HD
ENDBRANCH  21  22
ENDBRANCH   9  17
ENDBRANCH   1   5
BRANCH   3  25
ATOM     25  N   UNL d   1      28.508 -16.332  -3.355  0.00  0.00    -0.183 NA
ATOM     26  C   UNL d   1      28.242 -16.419  -2.089  0.00  0.00     0.150 C 
BRANCH  26  27
ATOM     27  C   UNL d   1      26.866 -16.695  -1.503  0.00  0.00    -0.017 A 
ATOM     28  C   UNL d   1      26.782 -17.655  -0.494  0.00  0.00     0.015 A 
ATOM     29  C   UNL d   1      25.541 -18.217  -0.136  0.00  0.00     0.037 A 
ATOM     30  C   UNL d   1      24.346 -17.734  -0.679  0.00  0.00     0.069 A 
ATOM     31  C   UNL d   1      24.414 -16.738  -1.648  0.00  0.00     0.037 A 
ATOM     32  C   UNL d   1      25.663 -16.215  -2.053  0.00  0.00     0.015 A 
BRANCH  30  33
ATOM     33  O   UNL d   1      23.190 -18.276  -0.187  0.00  0.00    -0.347 OA
BRANCH  33  34
ATOM     34  C   UNL d   1      21.965 -17.997  -0.893  0.00  0.00     0.214 C 
BRANCH  34  35
ATOM     35  C   UNL d   1      20.867 -18.805  -0.244  0.00  0.00    -0.034 C 
ATOM     36  C   UNL d   1      20.998 -19.320   1.053  0.00  0.00     0.011 C 
ATOM     37  C   UNL d   1      20.113 -20.303   1.503  0.00  0.00     0.024 C 
ATOM     38  C   UNL d   1      19.007 -20.650   0.731  0.00  0.00     0.034 C 
ATOM     39 CL   UNL d   1      17.841 -21.750   1.355  0.00  0.00    -0.084 Cl
ATOM     40  C   UNL d   1      18.817 -20.076  -0.521  0.00  0.00     0.024 C 
ATOM     41  C   UNL d   1      19.740 -19.149  -1.002  0.00  0.00     0.011 C 
ENDBRANCH  34  35
ENDBRANCH  33  34
ENDBRANCH  30  33
ENDBRANCH  26  27
ENDBRANCH   3  25
TORSDOF 10
ENDMDL
MODEL 5
REMARK VINA RESULT:    -9.811      4.880     10.467
REMARK INTER + INTRA:         -15.638
REMARK INTER:                 -12.794
REMARK INTRA:                  -2.844
REMARK CONF_INDEPENDENT:        2.983
REMARK UNBOUND:                -2.844
REMARK  10 active torsions:
REMARK  status: ('A' for Active; 'I' for Inactive)
REMARK    1  A    between atoms: N_1  and  C_2 
REMARK    2  A    between atoms: C_6  and  N_7 
REMARK    3  A    between atoms: C_10  and  C_11 
REMARK    4  A    between atoms: C_11  and  N_12 
REMARK    5  A    between atoms: C_17  and  C_18 
REMARK       I    between atoms: C_18  and  N_20 
REMARK    6  A    between atoms: N_20  and  N_21 
REMARK    7  A    between atoms: C_22  and  C_23 
REMARK    8  A    between atoms: C_26  and  O_27 
REMARK    9  A    between atoms: O_27  and  C_28 
REMARK   10  A    between atoms: C_28  and  C_29 
ROOT
ATOM      1  C   UNL d   1      26.290 -14.539  -1.228  0.00  0.00     0.292 C 
ATOM      2  O   UNL d   1      25.923 -13.396  -1.409  0.00  0.00    -0.264 OA
ATOM      3  N   UNL d   1      27.005 -15.065  -0.006  0.00  0.00    -0.242 N 
ATOM      4  H   UNL d   1      27.143 -16.040   0.162  0.00  0.00     0.192 HD
ENDROOT
BRANCH   1   5
ATOM      5  C   UNL d   1      25.789 -14.775  -2.484  0.00  0.00     0.153 C 
ATOM      6  C   UNL d   1      25.777 -13.838  -3.587  0.00  0.00     0.112 C 
ATOM      7  N   UNL d   1      25.582 -14.654  -4.656  0.00  0.00    -0.160 NA
ATOM      8  N   UNL d   1      25.507 -15.950  -4.200  0.00  0.00     0.012 NA
ATOM      9  N   UNL d   1      25.484 -15.993  -2.835  0.00  0.00    -0.207 N 
BRANCH   6  10
ATOM     10  C   UNL d   1      26.143 -12.176  -3.598  0.00  0.00     0.297 C 
BRANCH  10  11
ATOM     11  N   UNL d   1      25.670 -11.162  -4.966  0.00  0.00    -0.066 N 
ATOM     12  C   UNL d   1      26.877 -11.229  -6.241  0.00  0.00     0.235 C 
ATOM     13  C   UNL d   1      27.774 -10.011  -6.148  0.00  0.00     0.029 C 
ATOM     14  C   UNL d   1      26.663  -8.770  -5.176  0.00  0.00     0.029 C 
ATOM     15  C   UNL d   1      25.507  -9.562  -4.428  0.00  0.00     0.235 C 
ATOM     16  H   UNL d   1      24.780 -11.516  -5.336  0.00  0.00     0.280 HD
ENDBRANCH  10  11
ENDBRANCH   6  10
BRANCH   9  17
ATOM     17  C   UNL d   1      25.460 -16.971  -1.760  0.00  0.00     0.225 C 
ATOM     18  N   UNL d   1      26.647 -17.367  -1.266  0.00  0.00    -0.081 NA
ATOM     19  O   UNL d   1      26.351 -17.984  -0.046  0.00  0.00    -0.103 OA
ATOM     20  N   UNL d   1      25.049 -17.726   0.354  0.00  0.00    -0.083 NA
ATOM     21  C   UNL d   1      24.475 -17.071  -0.661  0.00  0.00     0.201 C 
BRANCH  21  22
ATOM     22  N   UNL d   1      23.328 -16.374  -0.427  0.00  0.00    -0.379 N 
ATOM     23  H   UNL d   1      22.738 -16.608   0.381  0.00  0.00     0.158 HD
ATOM     24  H   UNL d   1      23.034 -15.513  -0.873  0.00  0.00     0.158 HD
ENDBRANCH  21  22
ENDBRANCH   9  17
ENDBRANCH   1   5
BRANCH   3  25
ATOM     25  N   UNL d   1      27.196 -14.319   1.316  0.00  0.00    -0.183 NA
ATOM     26  C   UNL d   1      27.876 -14.778   2.321  0.00  0.00     0.150 C 
BRANCH  26  27
ATOM     27  C   UNL d   1      27.951 -14.126   3.693  0.00  0.00    -0.017 A 
ATOM     28  C   UNL d   1      27.929 -12.732   3.740  0.00  0.00     0.015 A 
ATOM     29  C   UNL d   1      28.332 -12.044   4.902  0.00  0.00     0.037 A 
ATOM     30  C   UNL d   1      28.629 -12.733   6.082  0.00  0.00     0.069 A 
ATOM     31  C   UNL d   1      28.601 -14.124   6.062  0.00  0.00     0.037 A 
ATOM     32  C   UNL d   1      28.258 -14.817   4.880  0.00  0.00     0.015 A 
BRANCH  30  33
ATOM     33  O   UNL d   1      28.906 -11.967   7.181  0.00  0.00    -0.347 OA
BRANCH  33  34
ATOM     34  C   UNL d   1      28.155 -12.224   8.384  0.00  0.00     0.214 C 
BRANCH  34  35
ATOM     35  C   UNL d   1      28.980 -13.142   9.255  0.00  0.00    -0.034 C 
ATOM     36  C   UNL d   1      30.316 -13.438   8.954  0.00  0.00     0.011 C 
ATOM     37  C   UNL d   1      30.950 -14.509   9.589  0.00  0.00     0.024 C 
ATOM     38  C   UNL d   1      30.314 -15.174  10.634  0.00  0.00     0.034 C 
ATOM     39 CL   UNL d   1      31.155 -16.392  11.511  0.00  0.00    -0.084 Cl
ATOM     40  C   UNL d   1      29.019 -14.825  11.003  0.00  0.00     0.024 C 
ATOM     41  C   UNL d   1      28.359 -13.805  10.320  0.00  0.00     0.011 C 
ENDBRANCH  34  35
ENDBRANCH  33  34
ENDBRANCH  30  33
ENDBRANCH  26  27
ENDBRANCH   3  25
TORSDOF 10
ENDMDL
MODEL 6
REMARK VINA RESULT:    -9.734      2.663      4.405
REMARK INTER + INTRA:         -15.480
REMARK INTER:                 -12.717
REMARK INTRA:                  -2.764
REMARK CONF_INDEPENDENT:        2.983
REMARK UNBOUND:                -2.764
REMARK  10 active torsions:
REMARK  status: ('A' for Active; 'I' for Inactive)
REMARK    1  A    between atoms: N_1  and  C_2 
REMARK    2  A    between atoms: C_6  and  N_7 
REMARK    3  A    between atoms: C_10  and  C_11 
REMARK    4  A    between atoms: C_11  and  N_12 
REMARK    5  A    between atoms: C_17  and  C_18 
REMARK       I    between atoms: C_18  and  N_20 
REMARK    6  A    between atoms: N_20  and  N_21 
REMARK    7  A    between atoms: C_22  and  C_23 
REMARK    8  A    between atoms: C_26  and  O_27 
REMARK    9  A    between atoms: O_27  and  C_28 
REMARK   10  A    between atoms: C_28  and  C_29 
ROOT
ATOM      1  C   UNL d   1      29.210 -12.552   6.268  0.00  0.00     0.292 C 
ATOM      2  O   UNL d   1      28.020 -12.332   6.160  0.00  0.00    -0.264 OA
ATOM      3  N   UNL d   1      30.013 -13.536   5.452  0.00  0.00    -0.242 N 
ATOM      4  H   UNL d   1      31.012 -13.565   5.470  0.00  0.00     0.192 HD
ENDROOT
BRANCH   1   5
ATOM      5  C   UNL d   1      29.167 -11.636   7.289  0.00  0.00     0.153 C 
ATOM      6  C   UNL d   1      29.071 -11.938   8.702  0.00  0.00     0.112 C 
ATOM      7  N   UNL d   1      29.476 -10.773   9.273  0.00  0.00    -0.160 NA
ATOM      8  N   UNL d   1      29.794  -9.888   8.269  0.00  0.00     0.012 NA
ATOM      9  N   UNL d   1      29.450 -10.387   7.044  0.00  0.00    -0.207 N 
BRANCH   6  10
ATOM     10  C   UNL d   1      28.761 -13.424   9.472  0.00  0.00     0.297 C 
BRANCH  10  11
ATOM     11  N   UNL d   1      29.789 -14.827   9.162  0.00  0.00    -0.066 N 
ATOM     12  C   UNL d   1      30.103 -15.713  10.647  0.00  0.00     0.235 C 
ATOM     13  C   UNL d   1      31.463 -15.321  11.187  0.00  0.00     0.029 C 
ATOM     14  C   UNL d   1      32.343 -14.653   9.606  0.00  0.00     0.029 C 
ATOM     15  C   UNL d   1      31.257 -14.293   8.503  0.00  0.00     0.235 C 
ATOM     16  H   UNL d   1      29.298 -15.447   8.507  0.00  0.00     0.280 HD
ENDBRANCH  10  11
ENDBRANCH   6  10
BRANCH   9  17
ATOM     17  C   UNL d   1      29.537 -10.025   5.639  0.00  0.00     0.225 C 
ATOM     18  N   UNL d   1      30.597 -10.488   4.952  0.00  0.00    -0.081 NA
ATOM     19  O   UNL d   1      30.260 -10.331   3.604  0.00  0.00    -0.103 OA
ATOM     20  N   UNL d   1      28.912 -10.050   3.444  0.00  0.00    -0.083 NA
ATOM     21  C   UNL d   1      28.422  -9.889   4.678  0.00  0.00     0.201 C 
BRANCH  21  22
ATOM     22  N   UNL d   1      27.073  -9.963   4.862  0.00  0.00    -0.379 N 
ATOM     23  H   UNL d   1      26.669 -10.739   5.402  0.00  0.00     0.158 HD
ATOM     24  H   UNL d   1      26.388  -9.245   4.662  0.00  0.00     0.158 HD
ENDBRANCH  21  22
ENDBRANCH   9  17
ENDBRANCH   1   5
BRANCH   3  25
ATOM     25  N   UNL d   1      29.536 -14.265   4.194  0.00  0.00    -0.183 NA
ATOM     26  C   UNL d   1      29.652 -13.796   2.991  0.00  0.00     0.150 C 
BRANCH  26  27
ATOM     27  C   UNL d   1      29.051 -14.430   1.746  0.00  0.00    -0.017 A 
ATOM     28  C   UNL d   1      27.661 -14.419   1.630  0.00  0.00     0.015 A 
ATOM     29  C   UNL d   1      27.008 -15.263   0.711  0.00  0.00     0.037 A 
ATOM     30  C   UNL d   1      27.733 -16.030  -0.207  0.00  0.00     0.069 A 
ATOM     31  C   UNL d   1      29.123 -16.007  -0.137  0.00  0.00     0.037 A 
ATOM     32  C   UNL d   1      29.779 -15.208   0.827  0.00  0.00     0.015 A 
BRANCH  30  33
ATOM     33  O   UNL d   1      27.003 -16.733  -1.126  0.00  0.00    -0.347 OA
BRANCH  33  34
ATOM     34  C   UNL d   1      25.789 -16.134  -1.619  0.00  0.00     0.214 C 
BRANCH  34  35
ATOM     35  C   UNL d   1      24.627 -16.895  -1.027  0.00  0.00    -0.034 C 
ATOM     36  C   UNL d   1      24.774 -18.200  -0.537  0.00  0.00     0.011 C 
ATOM     37  C   UNL d   1      23.641 -18.978  -0.282  0.00  0.00     0.024 C 
ATOM     38  C   UNL d   1      22.374 -18.407  -0.355  0.00  0.00     0.034 C 
ATOM     39 CL   UNL d   1      20.994 -19.325   0.103  0.00  0.00    -0.084 Cl
ATOM     40  C   UNL d   1      22.223 -17.082  -0.752  0.00  0.00     0.024 C 
ATOM     41  C   UNL d   1      23.348 -16.327  -1.077  0.00  0.00     0.011 C 
ENDBRANCH  34  35
ENDBRANCH  33  34
ENDBRANCH  30  33
ENDBRANCH  26  27
ENDBRANCH   3  25
TORSDOF 10
ENDMDL
MODEL 7
REMARK VINA RESULT:    -9.645      3.912      6.913
REMARK INTER + INTRA:         -16.449
REMARK INTER:                 -12.628
REMARK INTRA:                  -3.821
REMARK CONF_INDEPENDENT:        2.983
REMARK UNBOUND:                -3.821
REMARK  10 active torsions:
REMARK  status: ('A' for Active; 'I' for Inactive)
REMARK    1  A    between atoms: N_1  and  C_2 
REMARK    2  A    between atoms: C_6  and  N_7 
REMARK    3  A    between atoms: C_10  and  C_11 
REMARK    4  A    between atoms: C_11  and  N_12 
REMARK    5  A    between atoms: C_17  and  C_18 
REMARK       I    between atoms: C_18  and  N_20 
REMARK    6  A    between atoms: N_20  and  N_21 
REMARK    7  A    between atoms: C_22  and  C_23 
REMARK    8  A    between atoms: C_26  and  O_27 
REMARK    9  A    between atoms: O_27  and  C_28 
REMARK   10  A    between atoms: C_28  and  C_29 
ROOT
ATOM      1  C   UNL d   1      30.279 -12.684   8.430  0.00  0.00     0.292 C 
ATOM      2  O   UNL d   1      31.065 -13.225   7.679  0.00  0.00    -0.264 OA
ATOM      3  N   UNL d   1      28.916 -12.148   8.062  0.00  0.00    -0.242 N 
ATOM      4  H   UNL d   1      28.247 -11.858   8.744  0.00  0.00     0.192 HD
ENDROOT
BRANCH   1   5
ATOM      5  C   UNL d   1      31.252 -12.856   9.383  0.00  0.00     0.153 C 
ATOM      6  C   UNL d   1      32.670 -12.632   9.204  0.00  0.00     0.112 C 
ATOM      7  N   UNL d   1      33.111 -12.534  10.486  0.00  0.00    -0.160 NA
ATOM      8  N   UNL d   1      32.029 -12.673  11.324  0.00  0.00     0.012 NA
ATOM      9  N   UNL d   1      30.907 -13.026  10.629  0.00  0.00    -0.207 N 
BRANCH   6  10
ATOM     10  C   UNL d   1      33.546 -12.331   7.776  0.00  0.00     0.297 C 
BRANCH  10  11
ATOM     11  N   UNL d   1      32.714 -11.825   6.302  0.00  0.00    -0.066 N 
ATOM     12  C   UNL d   1      33.866 -11.454   5.028  0.00  0.00     0.235 C 
ATOM     13  C   UNL d   1      34.075  -9.955   4.962  0.00  0.00     0.029 C 
ATOM     14  C   UNL d   1      32.464  -9.291   5.790  0.00  0.00     0.029 C 
ATOM     15  C   UNL d   1      31.788 -10.447   6.644  0.00  0.00     0.235 C 
ATOM     16  H   UNL d   1      32.116 -12.600   5.989  0.00  0.00     0.280 HD
ENDBRANCH  10  11
ENDBRANCH   6  10
BRANCH   9  17
ATOM     17  C   UNL d   1      29.495 -13.277  10.863  0.00  0.00     0.225 C 
ATOM     18  N   UNL d   1      28.674 -12.211  10.857  0.00  0.00    -0.081 NA
ATOM     19  O   UNL d   1      27.385 -12.739  10.726  0.00  0.00    -0.103 OA
ATOM     20  N   UNL d   1      27.416 -14.078  10.366  0.00  0.00    -0.083 NA
ATOM     21  C   UNL d   1      28.703 -14.439  10.404  0.00  0.00     0.201 C 
BRANCH  21  22
ATOM     22  N   UNL d   1      29.084 -15.577   9.759  0.00  0.00    -0.379 N 
ATOM     23  H   UNL d   1      28.394 -16.124   9.229  0.00  0.00     0.158 HD
ATOM     24  H   UNL d   1      30.030 -15.898   9.591  0.00  0.00     0.158 HD
ENDBRANCH  21  22
ENDBRANCH   9  17
ENDBRANCH   1   5
BRANCH   3  25
ATOM     25  N   UNL d   1      28.180 -12.389   6.742  0.00  0.00    -0.183 NA
ATOM     26  C   UNL d   1      28.518 -13.288   5.871  0.00  0.00     0.150 C 
BRANCH  26  27
ATOM     27  C   UNL d   1      27.898 -13.443   4.491  0.00  0.00    -0.017 A 
ATOM     28  C   UNL d   1      28.024 -14.686   3.870  0.00  0.00     0.015 A 
ATOM     29  C   UNL d   1      27.794 -14.827   2.488  0.00  0.00     0.037 A 
ATOM     30  C   UNL d   1      27.299 -13.763   1.726  0.00  0.00     0.069 A 
ATOM     31  C   UNL d   1      27.117 -12.532   2.348  0.00  0.00     0.037 A 
ATOM     32  C   UNL d   1      27.407 -12.372   3.722  0.00  0.00     0.015 A 
BRANCH  30  33
ATOM     33  O   UNL d   1      27.009 -14.033   0.417  0.00  0.00    -0.347 OA
BRANCH  33  34
ATOM     34  C   UNL d   1      27.545 -15.244  -0.153  0.00  0.00     0.214 C 
BRANCH  34  35
ATOM     35  C   UNL d   1      26.387 -16.176  -0.423  0.00  0.00    -0.034 C 
ATOM     36  C   UNL d   1      25.310 -15.798  -1.235  0.00  0.00     0.011 C 
ATOM     37  C   UNL d   1      24.131 -16.548  -1.219  0.00  0.00     0.024 C 
ATOM     38  C   UNL d   1      24.084 -17.756  -0.529  0.00  0.00     0.034 C 
ATOM     39 CL   UNL d   1      22.682 -18.747  -0.635  0.00  0.00    -0.084 Cl
ATOM     40  C   UNL d   1      25.183 -18.187   0.207  0.00  0.00     0.024 C 
ATOM     41  C   UNL d   1      26.334 -17.403   0.251  0.00  0.00     0.011 C 
ENDBRANCH  34  35
ENDBRANCH  33  34
ENDBRANCH  30  33
ENDBRANCH  26  27
ENDBRANCH   3  25
TORSDOF 10
ENDMDL
MODEL 8
REMARK VINA RESULT:    -9.488      1.708      2.563
REMARK INTER + INTRA:         -15.514
REMARK INTER:                 -12.471
REMARK INTRA:                  -3.043
REMARK CONF_INDEPENDENT:        2.983
REMARK UNBOUND:                -3.043
REMARK  10 active torsions:
REMARK  status: ('A' for Active; 'I' for Inactive)
REMARK    1  A    between atoms: N_1  and  C_2 
REMARK    2  A    between atoms: C_6  and  N_7 
REMARK    3  A    between atoms: C_10  and  C_11 
REMARK    4  A    between atoms: C_11  and  N_12 
REMARK    5  A    between atoms: C_17  and  C_18 
REMARK       I    between atoms: C_18  and  N_20 
REMARK    6  A    between atoms: N_20  and  N_21 
REMARK    7  A    between atoms: C_22  and  C_23 
REMARK    8  A    between atoms: C_26  and  O_27 
REMARK    9  A    between atoms: O_27  and  C_28 
REMARK   10  A    between atoms: C_28  and  C_29 
ROOT
ATOM      1  C   UNL d   1      28.341 -13.082   3.784  0.00  0.00     0.292 C 
ATOM      2  O   UNL d   1      27.459 -13.409   4.552  0.00  0.00    -0.264 OA
ATOM      3  N   UNL d   1      28.796 -13.853   2.567  0.00  0.00    -0.242 N 
ATOM      4  H   UNL d   1      29.412 -13.466   1.882  0.00  0.00     0.192 HD
ENDROOT
BRANCH   1   5
ATOM      5  C   UNL d   1      28.500 -11.999   4.611  0.00  0.00     0.153 C 
ATOM      6  C   UNL d   1      28.543 -12.030   6.057  0.00  0.00     0.112 C 
ATOM      7  N   UNL d   1      29.114 -10.832   6.354  0.00  0.00    -0.160 NA
ATOM      8  N   UNL d   1      29.389 -10.183   5.173  0.00  0.00     0.012 NA
ATOM      9  N   UNL d   1      28.862 -10.853   4.106  0.00  0.00    -0.207 N 
BRANCH   6  10
ATOM     10  C   UNL d   1      28.195 -13.311   7.123  0.00  0.00     0.297 C 
BRANCH  10  11
ATOM     11  N   UNL d   1      29.434 -13.927   8.221  0.00  0.00    -0.066 N 
ATOM     12  C   UNL d   1      29.115 -13.418   9.873  0.00  0.00     0.235 C 
ATOM     13  C   UNL d   1      29.973 -12.213  10.201  0.00  0.00     0.029 C 
ATOM     14  C   UNL d   1      31.401 -12.377   8.914  0.00  0.00     0.029 C 
ATOM     15  C   UNL d   1      30.943 -13.331   7.729  0.00  0.00     0.235 C 
ATOM     16  H   UNL d   1      29.415 -14.953   8.184  0.00  0.00     0.280 HD
ENDBRANCH  10  11
ENDBRANCH   6  10
BRANCH   9  17
ATOM     17  C   UNL d   1      28.815 -10.761   2.656  0.00  0.00     0.225 C 
ATOM     18  N   UNL d   1      29.818 -11.342   1.973  0.00  0.00    -0.081 NA
ATOM     19  O   UNL d   1      29.359 -11.442   0.656  0.00  0.00    -0.103 OA
ATOM     20  N   UNL d   1      27.996 -11.198   0.571  0.00  0.00    -0.083 NA
ATOM     21  C   UNL d   1      27.616 -10.810   1.792  0.00  0.00     0.201 C 
BRANCH  21  22
ATOM     22  N   UNL d   1      26.291 -10.850   2.110  0.00  0.00    -0.379 N 
ATOM     23  H   UNL d   1      26.000 -10.984   3.087  0.00  0.00     0.158 HD
ATOM     24  H   UNL d   1      25.511 -10.605   1.514  0.00  0.00     0.158 HD
ENDBRANCH  21  22
ENDBRANCH   9  17
ENDBRANCH   1   5
BRANCH   3  25
ATOM     25  N   UNL d   1      28.087 -15.059   1.947  0.00  0.00    -0.183 NA
ATOM     26  C   UNL d   1      27.505 -15.047   0.788  0.00  0.00     0.150 C 
BRANCH  26  27
ATOM     27  C   UNL d   1      26.667 -16.182   0.221  0.00  0.00    -0.017 A 
ATOM     28  C   UNL d   1      25.521 -15.835  -0.495  0.00  0.00     0.015 A 
ATOM     29  C   UNL d   1      24.520 -16.789  -0.758  0.00  0.00     0.037 A 
ATOM     30  C   UNL d   1      24.704 -18.138  -0.435  0.00  0.00     0.069 A 
ATOM     31  C   UNL d   1      25.869 -18.506   0.232  0.00  0.00     0.037 A 
ATOM     32  C   UNL d   1      26.848 -17.538   0.552  0.00  0.00     0.015 A 
BRANCH  30  33
ATOM     33  O   UNL d   1      23.717 -18.999  -0.827  0.00  0.00    -0.347 OA
BRANCH  33  34
ATOM     34  C   UNL d   1      22.529 -18.436  -1.417  0.00  0.00     0.214 C 
BRANCH  34  35
ATOM     35  C   UNL d   1      21.347 -18.892  -0.595  0.00  0.00    -0.034 C 
ATOM     36  C   UNL d   1      21.400 -18.950   0.804  0.00  0.00     0.011 C 
ATOM     37  C   UNL d   1      20.419 -19.653   1.508  0.00  0.00     0.024 C 
ATOM     38  C   UNL d   1      19.305 -20.152   0.839  0.00  0.00     0.034 C 
ATOM     39 CL   UNL d   1      18.030 -20.885   1.730  0.00  0.00    -0.084 Cl
ATOM     40  C   UNL d   1      19.198 -20.018  -0.542  0.00  0.00     0.024 C 
ATOM     41  C   UNL d   1      20.212 -19.381  -1.254  0.00  0.00     0.011 C 
ENDBRANCH  34  35
ENDBRANCH  33  34
ENDBRANCH  30  33
ENDBRANCH  26  27
ENDBRANCH   3  25
TORSDOF 10
ENDMDL
MODEL 9
REMARK VINA RESULT:    -8.976      6.016      9.395
REMARK INTER + INTRA:         -15.702
REMARK INTER:                 -11.959
REMARK INTRA:                  -3.743
REMARK CONF_INDEPENDENT:        2.983
REMARK UNBOUND:                -3.743
REMARK  10 active torsions:
REMARK  status: ('A' for Active; 'I' for Inactive)
REMARK    1  A    between atoms: N_1  and  C_2 
REMARK    2  A    between atoms: C_6  and  N_7 
REMARK    3  A    between atoms: C_10  and  C_11 
REMARK    4  A    between atoms: C_11  and  N_12 
REMARK    5  A    between atoms: C_17  and  C_18 
REMARK       I    between atoms: C_18  and  N_20 
REMARK    6  A    between atoms: N_20  and  N_21 
REMARK    7  A    between atoms: C_22  and  C_23 
REMARK    8  A    between atoms: C_26  and  O_27 
REMARK    9  A    between atoms: O_27  and  C_28 
REMARK   10  A    between atoms: C_28  and  C_29 
ROOT
ATOM      1  C   UNL d   1      27.644 -15.045  -2.818  0.00  0.00     0.292 C 
ATOM      2  O   UNL d   1      28.783 -14.837  -2.452  0.00  0.00    -0.264 OA
ATOM      3  N   UNL d   1      26.419 -15.101  -1.937  0.00  0.00    -0.242 N 
ATOM      4  H   UNL d   1      25.490 -15.117  -2.304  0.00  0.00     0.192 HD
ENDROOT
BRANCH   1   5
ATOM      5  C   UNL d   1      28.194 -15.173  -4.069  0.00  0.00     0.153 C 
ATOM      6  C   UNL d   1      29.445 -15.827  -4.388  0.00  0.00     0.112 C 
ATOM      7  N   UNL d   1      29.325 -16.044  -5.724  0.00  0.00    -0.160 NA
ATOM      8  N   UNL d   1      28.099 -15.569  -6.128  0.00  0.00     0.012 NA
ATOM      9  N   UNL d   1      27.474 -14.893  -5.119  0.00  0.00    -0.207 N 
BRANCH   6  10
ATOM     10  C   UNL d   1      30.664 -16.398  -3.345  0.00  0.00     0.297 C 
BRANCH  10  11
ATOM     11  N   UNL d   1      30.287 -16.824  -1.673  0.00  0.00    -0.066 N 
ATOM     12  C   UNL d   1      31.058 -15.710  -0.554  0.00  0.00     0.235 C 
ATOM     13  C   UNL d   1      32.331 -16.336  -0.020  0.00  0.00     0.029 C 
ATOM     14  C   UNL d   1      31.999 -18.215  -0.300  0.00  0.00     0.029 C 
ATOM     15  C   UNL d   1      30.841 -18.398  -1.373  0.00  0.00     0.235 C 
ATOM     16  H   UNL d   1      29.269 -16.764  -1.547  0.00  0.00     0.280 HD
ENDBRANCH  10  11
ENDBRANCH   6  10
BRANCH   9  17
ATOM     17  C   UNL d   1      26.215 -14.215  -4.856  0.00  0.00     0.225 C 
ATOM     18  N   UNL d   1      25.186 -14.974  -4.440  0.00  0.00    -0.081 NA
ATOM     19  O   UNL d   1      24.253 -14.075  -3.913  0.00  0.00    -0.103 OA
ATOM     20  N   UNL d   1      24.803 -12.814  -3.737  0.00  0.00    -0.083 NA
ATOM     21  C   UNL d   1      26.026 -12.869  -4.274  0.00  0.00     0.201 C 
BRANCH  21  22
ATOM     22  N   UNL d   1      26.934 -11.910  -3.937  0.00  0.00    -0.379 N 
ATOM     23  H   UNL d   1      26.654 -11.123  -3.337  0.00  0.00     0.158 HD
ATOM     24  H   UNL d   1      27.936 -11.940  -4.076  0.00  0.00     0.158 HD
ENDBRANCH  21  22
ENDBRANCH   9  17
ENDBRANCH   1   5
BRANCH   3  25
ATOM     25  N   UNL d   1      26.346 -14.682  -0.468  0.00  0.00    -0.183 NA
ATOM     26  C   UNL d   1      27.337 -14.172   0.196  0.00  0.00     0.150 C 
BRANCH  26  27
ATOM     27  C   UNL d   1      27.333 -13.890   1.690  0.00  0.00    -0.017 A 
ATOM     28  C   UNL d   1      27.071 -12.580   2.093  0.00  0.00     0.015 A 
ATOM     29  C   UNL d   1      27.378 -12.154   3.400  0.00  0.00     0.037 A 
ATOM     30  C   UNL d   1      27.820 -13.060   4.371  0.00  0.00     0.069 A 
ATOM     31  C   UNL d   1      28.033 -14.382   3.993  0.00  0.00     0.037 A 
ATOM     32  C   UNL d   1      27.784 -14.798   2.666  0.00  0.00     0.015 A 
BRANCH  30  33
ATOM     33  O   UNL d   1      27.988 -12.566   5.634  0.00  0.00    -0.347 OA
BRANCH  33  34
ATOM     34  C   UNL d   1      29.316 -12.587   6.193  0.00  0.00     0.214 C 
BRANCH  34  35
ATOM     35  C   UNL d   1      29.189 -12.864   7.672  0.00  0.00    -0.034 C 
ATOM     36  C   UNL d   1      29.573 -14.091   8.229  0.00  0.00     0.011 C 
ATOM     37  C   UNL d   1      29.167 -14.425   9.523  0.00  0.00     0.024 C 
ATOM     38  C   UNL d   1      28.526 -13.477  10.317  0.00  0.00     0.034 C 
ATOM     39 CL   UNL d   1      28.162 -13.842  11.958  0.00  0.00    -0.084 Cl
ATOM     40  C   UNL d   1      28.222 -12.221   9.803  0.00  0.00     0.024 C 
ATOM     41  C   UNL d   1      28.562 -11.913   8.487  0.00  0.00     0.011 C 
ENDBRANCH  34  35
ENDBRANCH  33  34
ENDBRANCH  30  33
ENDBRANCH  26  27
ENDBRANCH   3  25
TORSDOF 10
ENDMDL
