MODEL 1
REMARK VINA RESULT:   -28.694      0.000      0.000
REMARK INTER + INTRA:         -31.011
REMARK INTER:                 -30.484
REMARK INTRA:                  -0.527
REMARK CONF_INDEPENDENT:        1.790
REMARK UNBOUND:                -0.527
REMARK  6 active torsions:
REMARK  status: ('A' for Active; 'I' for Inactive)
REMARK    1  A    between atoms: C_8  and  S_9 
REMARK    2  A    between atoms: S_9  and  C_10 
REMARK    3  A    between atoms: C_10  and  C_11 
REMARK       I    between atoms: C_11  and  N_13 
REMARK    4  A    between atoms: N_13  and  C_14 
REMARK    5  A    between atoms: C_18  and  S_19 
REMARK    6  A    between atoms: S_19  and  N_20 
ROOT
ATOM      1  C   UNL d   1      26.483 -16.873  -0.719  0.00  0.00     0.231 C 
ATOM      2  O   UNL d   1      27.484 -17.584  -0.614  0.00  0.00    -0.272 OA
ATOM      3  N   UNL d   1      26.493 -15.536  -0.285  0.00  0.00    -0.326 N 
ATOM      4  H   UNL d   1      25.610 -15.074  -0.103  0.00  0.00     0.169 HD
ENDROOT
BRANCH   1   5
ATOM      5  C   UNL d   1      25.134 -17.422  -1.282  0.00  0.00     0.185 C 
BRANCH   5   6
ATOM      6  S   UNL d   1      23.737 -16.452  -0.587  0.00  0.00    -0.079 SA
BRANCH   6   7
ATOM      7  C   UNL d   1      22.400 -17.531  -0.252  0.00  0.00     0.227 A 
ATOM      8  N   UNL d   1      22.140 -18.082   0.935  0.00  0.00    -0.124 NA
ATOM      9  N   UNL d   1      21.017 -18.821   0.671  0.00  0.00    -0.062 N 
ATOM     10  C   UNL d   1      20.259 -19.632   1.527  0.00  0.00     0.052 A 
ATOM     11  C   UNL d   1      20.652 -18.680  -0.678  0.00  0.00     0.752 A 
ATOM     12  C   UNL d   1      19.180 -20.269   1.047  0.00  0.00     0.055 A 
ATOM     13  C   UNL d   1      20.655 -19.778   2.956  0.00  0.00     0.071 C 
ATOM     14  C   UNL d   1      18.861 -20.074  -0.397  0.00  0.00     0.051 A 
ATOM     15  C   UNL d   1      17.640 -20.825  -0.895  0.00  0.00     0.071 C 
ATOM     16  N   UNL d   1      19.555 -19.325  -1.208  0.00  0.00    -0.066 NA
ATOM     17  N   UNL d   1      21.520 -17.874  -1.252  0.00  0.00    -0.033 NA
ENDBRANCH   6   7
ENDBRANCH   5   6
ENDBRANCH   1   5
BRANCH   3  18
ATOM     18  C   UNL d   1      27.669 -14.935   0.268  0.00  0.00     0.036 A 
ATOM     19  C   UNL d   1      28.640 -14.366  -0.569  0.00  0.00     0.029 A 
ATOM     20  C   UNL d   1      29.763 -13.714  -0.024  0.00  0.00     0.004 A 
ATOM     21  C   UNL d   1      29.952 -13.664   1.357  0.00  0.00     0.025 A 
ATOM     22  C   UNL d   1      29.010 -14.269   2.191  0.00  0.00     0.081 A 
ATOM     23  C   UNL d   1      27.876 -14.896   1.654  0.00  0.00     0.054 A 
BRANCH  22  24
ATOM     24  S   UNL d   1      29.235 -14.209   3.952  0.00  0.00     0.256 S 
ATOM     25  O   UNL d   1      29.435 -12.825   4.326  0.00  0.00    -0.201 OA
ATOM     26  O   UNL d   1      28.263 -15.065   4.580  0.00  0.00    -0.201 OA
BRANCH  24  27
ATOM     27  N   UNL d   1      30.707 -14.976   4.129  0.00  0.00    -0.324 N 
ATOM     28  H   UNL d   1      30.698 -15.990   4.131  0.00  0.00     0.169 HD
ATOM     29  H   UNL d   1      31.431 -14.451   4.607  0.00  0.00     0.169 HD
ENDBRANCH  24  27
ENDBRANCH  22  24
ENDBRANCH   3  18
TORSDOF 6
ENDMDL
MODEL 2
REMARK VINA RESULT:   -28.404      4.043      5.299
REMARK INTER + INTRA:         -30.514
REMARK INTER:                 -30.194
REMARK INTRA:                  -0.321
REMARK CONF_INDEPENDENT:        1.790
REMARK UNBOUND:                -0.321
REMARK  6 active torsions:
REMARK  status: ('A' for Active; 'I' for Inactive)
REMARK    1  A    between atoms: C_8  and  S_9 
REMARK    2  A    between atoms: S_9  and  C_10 
REMARK    3  A    between atoms: C_10  and  C_11 
REMARK       I    between atoms: C_11  and  N_13 
REMARK    4  A    between atoms: N_13  and  C_14 
REMARK    5  A    between atoms: C_18  and  S_19 
REMARK    6  A    between atoms: S_19  and  N_20 
ROOT
ATOM      1  C   UNL d   1      25.699 -16.042  -2.465  0.00  0.00     0.231 C 
ATOM      2  O   UNL d   1      26.301 -15.318  -1.670  0.00  0.00    -0.272 OA
ATOM      3  N   UNL d   1      25.854 -15.882  -3.854  0.00  0.00    -0.326 N 
ATOM      4  H   UNL d   1      25.149 -16.264  -4.472  0.00  0.00     0.169 HD
ENDROOT
BRANCH   1   5
ATOM      5  C   UNL d   1      24.692 -17.136  -1.990  0.00  0.00     0.185 C 
BRANCH   5   6
ATOM      6  S   UNL d   1      23.791 -16.540  -0.504  0.00  0.00    -0.079 SA
BRANCH   6   7
ATOM      7  C   UNL d   1      22.435 -17.602  -0.190  0.00  0.00     0.227 A 
ATOM      8  N   UNL d   1      22.168 -18.175   0.985  0.00  0.00    -0.124 NA
ATOM      9  N   UNL d   1      21.031 -18.887   0.707  0.00  0.00    -0.062 N 
ATOM     10  C   UNL d   1      20.260 -19.703   1.546  0.00  0.00     0.052 A 
ATOM     11  C   UNL d   1      20.668 -18.711  -0.638  0.00  0.00     0.752 A 
ATOM     12  C   UNL d   1      19.169 -20.311   1.055  0.00  0.00     0.055 A 
ATOM     13  C   UNL d   1      20.655 -19.887   2.972  0.00  0.00     0.071 C 
ATOM     14  C   UNL d   1      18.852 -20.079  -0.384  0.00  0.00     0.051 A 
ATOM     15  C   UNL d   1      17.617 -20.797  -0.896  0.00  0.00     0.071 C 
ATOM     16  N   UNL d   1      19.558 -19.325  -1.180  0.00  0.00    -0.066 NA
ATOM     17  N   UNL d   1      21.548 -17.908  -1.196  0.00  0.00    -0.033 NA
ENDBRANCH   6   7
ENDBRANCH   5   6
ENDBRANCH   1   5
BRANCH   3  18
ATOM     18  C   UNL d   1      26.735 -14.895  -4.401  0.00  0.00     0.036 A 
ATOM     19  C   UNL d   1      28.067 -15.218  -4.705  0.00  0.00     0.029 A 
ATOM     20  C   UNL d   1      28.914 -14.268  -5.308  0.00  0.00     0.004 A 
ATOM     21  C   UNL d   1      28.458 -12.977  -5.570  0.00  0.00     0.025 A 
ATOM     22  C   UNL d   1      27.146 -12.640  -5.228  0.00  0.00     0.081 A 
ATOM     23  C   UNL d   1      26.290 -13.590  -4.653  0.00  0.00     0.054 A 
BRANCH  22  24
ATOM     24  S   UNL d   1      26.549 -11.000  -5.562  0.00  0.00     0.256 S 
ATOM     25  O   UNL d   1      27.684 -10.101  -5.534  0.00  0.00    -0.201 OA
ATOM     26  O   UNL d   1      25.611 -11.055  -6.651  0.00  0.00    -0.201 OA
BRANCH  24  27
ATOM     27  N   UNL d   1      25.649 -10.686  -4.192  0.00  0.00    -0.324 N 
ATOM     28  H   UNL d   1      24.666 -10.935  -4.223  0.00  0.00     0.169 HD
ATOM     29  H   UNL d   1      25.988  -9.940  -3.595  0.00  0.00     0.169 HD
ENDBRANCH  24  27
ENDBRANCH  22  24
ENDBRANCH   3  18
TORSDOF 6
ENDMDL
MODEL 3
REMARK VINA RESULT:   -28.392      3.912      5.386
REMARK INTER + INTRA:         -30.672
REMARK INTER:                 -30.182
REMARK INTRA:                  -0.490
REMARK CONF_INDEPENDENT:        1.790
REMARK UNBOUND:                -0.490
REMARK  6 active torsions:
REMARK  status: ('A' for Active; 'I' for Inactive)
REMARK    1  A    between atoms: C_8  and  S_9 
REMARK    2  A    between atoms: S_9  and  C_10 
REMARK    3  A    between atoms: C_10  and  C_11 
REMARK       I    between atoms: C_11  and  N_13 
REMARK    4  A    between atoms: N_13  and  C_14 
REMARK    5  A    between atoms: C_18  and  S_19 
REMARK    6  A    between atoms: S_19  and  N_20 
ROOT
ATOM      1  C   UNL d   1      25.871 -16.367  -2.151  0.00  0.00     0.231 C 
ATOM      2  O   UNL d   1      27.070 -16.164  -1.954  0.00  0.00    -0.272 OA
ATOM      3  N   UNL d   1      25.161 -15.637  -3.121  0.00  0.00    -0.326 N 
ATOM      4  H   UNL d   1      24.151 -15.599  -3.062  0.00  0.00     0.169 HD
ENDROOT
BRANCH   1   5
ATOM      5  C   UNL d   1      25.055 -17.396  -1.307  0.00  0.00     0.185 C 
BRANCH   5   6
ATOM      6  S   UNL d   1      23.756 -16.517  -0.351  0.00  0.00    -0.079 SA
BRANCH   6   7
ATOM      7  C   UNL d   1      22.412 -17.605  -0.075  0.00  0.00     0.227 A 
ATOM      8  N   UNL d   1      22.149 -18.219   1.080  0.00  0.00    -0.124 NA
ATOM      9  N   UNL d   1      21.021 -18.935   0.777  0.00  0.00    -0.062 N 
ATOM     10  C   UNL d   1      20.258 -19.787   1.587  0.00  0.00     0.052 A 
ATOM     11  C   UNL d   1      20.657 -18.717  -0.562  0.00  0.00     0.752 A 
ATOM     12  C   UNL d   1      19.175 -20.390   1.073  0.00  0.00     0.055 A 
ATOM     13  C   UNL d   1      20.654 -20.014   3.006  0.00  0.00     0.071 C 
ATOM     14  C   UNL d   1      18.857 -20.113  -0.357  0.00  0.00     0.051 A 
ATOM     15  C   UNL d   1      17.630 -20.828  -0.895  0.00  0.00     0.071 C 
ATOM     16  N   UNL d   1      19.555 -19.325  -1.126  0.00  0.00    -0.066 NA
ATOM     17  N   UNL d   1      21.529 -17.886  -1.092  0.00  0.00    -0.033 NA
ENDBRANCH   6   7
ENDBRANCH   5   6
ENDBRANCH   1   5
BRANCH   3  18
ATOM     18  C   UNL d   1      25.803 -14.652  -3.937  0.00  0.00     0.036 A 
ATOM     19  C   UNL d   1      25.391 -13.311  -3.896  0.00  0.00     0.029 A 
ATOM     20  C   UNL d   1      26.068 -12.330  -4.646  0.00  0.00     0.004 A 
ATOM     21  C   UNL d   1      27.129 -12.682  -5.479  0.00  0.00     0.025 A 
ATOM     22  C   UNL d   1      27.513 -14.023  -5.557  0.00  0.00     0.081 A 
ATOM     23  C   UNL d   1      26.860 -14.999  -4.791  0.00  0.00     0.054 A 
BRANCH  22  24
ATOM     24  S   UNL d   1      28.867 -14.485  -6.609  0.00  0.00     0.256 S 
ATOM     25  O   UNL d   1      29.008 -15.924  -6.543  0.00  0.00    -0.201 OA
ATOM     26  O   UNL d   1      28.771 -13.755  -7.846  0.00  0.00    -0.201 OA
BRANCH  24  27
ATOM     27  N   UNL d   1      30.167 -13.833  -5.789  0.00  0.00    -0.324 N 
ATOM     28  H   UNL d   1      29.955 -13.238  -4.995  0.00  0.00     0.169 HD
ATOM     29  H   UNL d   1      31.022 -13.723  -6.322  0.00  0.00     0.169 HD
ENDBRANCH  24  27
ENDBRANCH  22  24
ENDBRANCH   3  18
TORSDOF 6
ENDMDL
MODEL 4
REMARK VINA RESULT:   -27.897      3.445      4.828
REMARK INTER + INTRA:         -29.944
REMARK INTER:                 -29.686
REMARK INTRA:                  -0.258
REMARK CONF_INDEPENDENT:        1.790
REMARK UNBOUND:                -0.258
REMARK  6 active torsions:
REMARK  status: ('A' for Active; 'I' for Inactive)
REMARK    1  A    between atoms: C_8  and  S_9 
REMARK    2  A    between atoms: S_9  and  C_10 
REMARK    3  A    between atoms: C_10  and  C_11 
REMARK       I    between atoms: C_11  and  N_13 
REMARK    4  A    between atoms: N_13  and  C_14 
REMARK    5  A    between atoms: C_18  and  S_19 
REMARK    6  A    between atoms: S_19  and  N_20 
ROOT
ATOM      1  C   UNL d   1      26.206 -16.621  -1.818  0.00  0.00     0.231 C 
ATOM      2  O   UNL d   1      25.820 -16.047  -2.838  0.00  0.00    -0.272 OA
ATOM      3  N   UNL d   1      27.562 -16.607  -1.445  0.00  0.00    -0.326 N 
ATOM      4  H   UNL d   1      27.899 -17.310  -0.799  0.00  0.00     0.169 HD
ENDROOT
BRANCH   1   5
ATOM      5  C   UNL d   1      25.235 -17.443  -0.913  0.00  0.00     0.185 C 
BRANCH   5   6
ATOM      6  S   UNL d   1      23.728 -16.451  -0.568  0.00  0.00    -0.079 SA
BRANCH   6   7
ATOM      7  C   UNL d   1      22.392 -17.534  -0.237  0.00  0.00     0.227 A 
ATOM      8  N   UNL d   1      22.135 -18.094   0.946  0.00  0.00    -0.124 NA
ATOM      9  N   UNL d   1      21.011 -18.831   0.679  0.00  0.00    -0.062 N 
ATOM     10  C   UNL d   1      20.256 -19.649   1.530  0.00  0.00     0.052 A 
ATOM     11  C   UNL d   1      20.644 -18.680  -0.668  0.00  0.00     0.752 A 
ATOM     12  C   UNL d   1      19.176 -20.283   1.048  0.00  0.00     0.055 A 
ATOM     13  C   UNL d   1      20.656 -19.806   2.958  0.00  0.00     0.071 C 
ATOM     14  C   UNL d   1      18.854 -20.077  -0.394  0.00  0.00     0.051 A 
ATOM     15  C   UNL d   1      17.632 -20.825  -0.895  0.00  0.00     0.071 C 
ATOM     16  N   UNL d   1      19.546 -19.321  -1.200  0.00  0.00    -0.066 NA
ATOM     17  N   UNL d   1      21.510 -17.869  -1.238  0.00  0.00    -0.033 NA
ENDBRANCH   6   7
ENDBRANCH   5   6
ENDBRANCH   1   5
BRANCH   3  18
ATOM     18  C   UNL d   1      28.544 -15.903  -2.214  0.00  0.00     0.036 A 
ATOM     19  C   UNL d   1      29.670 -15.343  -1.591  0.00  0.00     0.029 A 
ATOM     20  C   UNL d   1      30.671 -14.711  -2.355  0.00  0.00     0.004 A 
ATOM     21  C   UNL d   1      30.536 -14.590  -3.738  0.00  0.00     0.025 A 
ATOM     22  C   UNL d   1      29.394 -15.107  -4.354  0.00  0.00     0.081 A 
ATOM     23  C   UNL d   1      28.408 -15.761  -3.602  0.00  0.00     0.054 A 
BRANCH  22  24
ATOM     24  S   UNL d   1      29.212 -14.965  -6.116  0.00  0.00     0.256 S 
ATOM     25  O   UNL d   1      27.799 -15.042  -6.423  0.00  0.00    -0.201 OA
ATOM     26  O   UNL d   1      30.069 -13.912  -6.593  0.00  0.00    -0.201 OA
BRANCH  24  27
ATOM     27  N   UNL d   1      29.899 -16.393  -6.640  0.00  0.00    -0.324 N 
ATOM     28  H   UNL d   1      30.305 -16.993  -5.930  0.00  0.00     0.169 HD
ATOM     29  H   UNL d   1      30.231 -16.405  -7.598  0.00  0.00     0.169 HD
ENDBRANCH  24  27
ENDBRANCH  22  24
ENDBRANCH   3  18
TORSDOF 6
ENDMDL
MODEL 5
REMARK VINA RESULT:   -27.406      2.455      2.666
REMARK INTER + INTRA:         -29.608
REMARK INTER:                 -29.196
REMARK INTRA:                  -0.412
REMARK CONF_INDEPENDENT:        1.790
REMARK UNBOUND:                -0.412
REMARK  6 active torsions:
REMARK  status: ('A' for Active; 'I' for Inactive)
REMARK    1  A    between atoms: C_8  and  S_9 
REMARK    2  A    between atoms: S_9  and  C_10 
REMARK    3  A    between atoms: C_10  and  C_11 
REMARK       I    between atoms: C_11  and  N_13 
REMARK    4  A    between atoms: N_13  and  C_14 
REMARK    5  A    between atoms: C_18  and  S_19 
REMARK    6  A    between atoms: S_19  and  N_20 
ROOT
ATOM      1  C   UNL d   1      26.059 -16.328  -2.092  0.00  0.00     0.231 C 
ATOM      2  O   UNL d   1      26.415 -15.854  -3.173  0.00  0.00    -0.272 OA
ATOM      3  N   UNL d   1      26.859 -16.197  -0.943  0.00  0.00    -0.326 N 
ATOM      4  H   UNL d   1      26.707 -16.828  -0.166  0.00  0.00     0.169 HD
ENDROOT
BRANCH   1   5
ATOM      5  C   UNL d   1      24.738 -17.145  -1.942  0.00  0.00     0.185 C 
BRANCH   5   6
ATOM      6  S   UNL d   1      23.759 -16.480  -0.537  0.00  0.00    -0.079 SA
BRANCH   6   7
ATOM      7  C   UNL d   1      22.415 -17.555  -0.213  0.00  0.00     0.227 A 
ATOM      8  N   UNL d   1      22.151 -18.116   0.968  0.00  0.00    -0.124 NA
ATOM      9  N   UNL d   1      21.024 -18.846   0.695  0.00  0.00    -0.062 N 
ATOM     10  C   UNL d   1      20.261 -19.661   1.543  0.00  0.00     0.052 A 
ATOM     11  C   UNL d   1      20.663 -18.691  -0.652  0.00  0.00     0.752 A 
ATOM     12  C   UNL d   1      19.179 -20.288   1.055  0.00  0.00     0.055 A 
ATOM     13  C   UNL d   1      20.654 -19.823   2.971  0.00  0.00     0.071 C 
ATOM     14  C   UNL d   1      18.863 -20.078  -0.387  0.00  0.00     0.051 A 
ATOM     15  C   UNL d   1      17.639 -20.818  -0.894  0.00  0.00     0.071 C 
ATOM     16  N   UNL d   1      19.562 -19.325  -1.190  0.00  0.00    -0.066 NA
ATOM     17  N   UNL d   1      21.535 -17.884  -1.218  0.00  0.00    -0.033 NA
ENDBRANCH   6   7
ENDBRANCH   5   6
ENDBRANCH   1   5
BRANCH   3  18
ATOM     18  C   UNL d   1      28.102 -15.486  -0.971  0.00  0.00     0.036 A 
ATOM     19  C   UNL d   1      28.142 -14.135  -1.346  0.00  0.00     0.029 A 
ATOM     20  C   UNL d   1      29.353 -13.416  -1.306  0.00  0.00     0.004 A 
ATOM     21  C   UNL d   1      30.541 -14.049  -0.940  0.00  0.00     0.025 A 
ATOM     22  C   UNL d   1      30.511 -15.406  -0.610  0.00  0.00     0.081 A 
ATOM     23  C   UNL d   1      29.303 -16.118  -0.621  0.00  0.00     0.054 A 
BRANCH  22  24
ATOM     24  S   UNL d   1      32.015 -16.224  -0.136  0.00  0.00     0.256 S 
ATOM     25  O   UNL d   1      32.487 -16.979  -1.277  0.00  0.00    -0.201 OA
ATOM     26  O   UNL d   1      32.839 -15.301   0.599  0.00  0.00    -0.201 OA
BRANCH  24  27
ATOM     27  N   UNL d   1      31.455 -17.333   0.980  0.00  0.00    -0.324 N 
ATOM     28  H   UNL d   1      30.728 -17.967   0.670  0.00  0.00     0.169 HD
ATOM     29  H   UNL d   1      31.553 -17.074   1.956  0.00  0.00     0.169 HD
ENDBRANCH  24  27
ENDBRANCH  22  24
ENDBRANCH   3  18
TORSDOF 6
ENDMDL
MODEL 6
REMARK VINA RESULT:   -27.070      3.356      4.757
REMARK INTER + INTRA:         -29.319
REMARK INTER:                 -28.860
REMARK INTRA:                  -0.459
REMARK CONF_INDEPENDENT:        1.790
REMARK UNBOUND:                -0.459
REMARK  6 active torsions:
REMARK  status: ('A' for Active; 'I' for Inactive)
REMARK    1  A    between atoms: C_8  and  S_9 
REMARK    2  A    between atoms: S_9  and  C_10 
REMARK    3  A    between atoms: C_10  and  C_11 
REMARK       I    between atoms: C_11  and  N_13 
REMARK    4  A    between atoms: N_13  and  C_14 
REMARK    5  A    between atoms: C_18  and  S_19 
REMARK    6  A    between atoms: S_19  and  N_20 
ROOT
ATOM      1  C   UNL d   1      26.427 -16.567  -1.309  0.00  0.00     0.231 C 
ATOM      2  O   UNL d   1      27.451 -16.511  -0.625  0.00  0.00    -0.272 OA
ATOM      3  N   UNL d   1      26.257 -15.736  -2.430  0.00  0.00    -0.326 N 
ATOM      4  H   UNL d   1      25.322 -15.582  -2.788  0.00  0.00     0.169 HD
ENDROOT
BRANCH   1   5
ATOM      5  C   UNL d   1      25.239 -17.512  -0.945  0.00  0.00     0.185 C 
BRANCH   5   6
ATOM      6  S   UNL d   1      23.760 -16.509  -0.521  0.00  0.00    -0.079 SA
BRANCH   6   7
ATOM      7  C   UNL d   1      22.413 -17.579  -0.200  0.00  0.00     0.227 A 
ATOM      8  N   UNL d   1      22.151 -18.149   0.978  0.00  0.00    -0.124 NA
ATOM      9  N   UNL d   1      21.019 -18.871   0.704  0.00  0.00    -0.062 N 
ATOM     10  C   UNL d   1      20.256 -19.688   1.548  0.00  0.00     0.052 A 
ATOM     11  C   UNL d   1      20.652 -18.701  -0.640  0.00  0.00     0.752 A 
ATOM     12  C   UNL d   1      19.168 -20.306   1.061  0.00  0.00     0.055 A 
ATOM     13  C   UNL d   1      20.655 -19.865   2.974  0.00  0.00     0.071 C 
ATOM     14  C   UNL d   1      18.846 -20.081  -0.378  0.00  0.00     0.051 A 
ATOM     15  C   UNL d   1      17.615 -20.810  -0.885  0.00  0.00     0.071 C 
ATOM     16  N   UNL d   1      19.545 -19.325  -1.178  0.00  0.00    -0.066 NA
ATOM     17  N   UNL d   1      21.525 -17.894  -1.203  0.00  0.00    -0.033 NA
ENDBRANCH   6   7
ENDBRANCH   5   6
ENDBRANCH   1   5
BRANCH   3  18
ATOM     18  C   UNL d   1      27.273 -14.815  -2.842  0.00  0.00     0.036 A 
ATOM     19  C   UNL d   1      27.679 -13.774  -1.994  0.00  0.00     0.029 A 
ATOM     20  C   UNL d   1      28.726 -12.910  -2.370  0.00  0.00     0.004 A 
ATOM     21  C   UNL d   1      29.344 -13.046  -3.612  0.00  0.00     0.025 A 
ATOM     22  C   UNL d   1      28.912 -14.053  -4.477  0.00  0.00     0.081 A 
ATOM     23  C   UNL d   1      27.888 -14.933  -4.096  0.00  0.00     0.054 A 
BRANCH  22  24
ATOM     24  S   UNL d   1      29.694 -14.241  -6.061  0.00  0.00     0.256 S 
ATOM     25  O   UNL d   1      29.361 -15.556  -6.567  0.00  0.00    -0.201 OA
ATOM     26  O   UNL d   1      29.514 -13.032  -6.821  0.00  0.00    -0.201 OA
BRANCH  24  27
ATOM     27  N   UNL d   1      31.308 -14.282  -5.634  0.00  0.00    -0.324 N 
ATOM     28  H   UNL d   1      31.530 -14.655  -4.718  0.00  0.00     0.169 HD
ATOM     29  H   UNL d   1      31.909 -13.604  -6.091  0.00  0.00     0.169 HD
ENDBRANCH  24  27
ENDBRANCH  22  24
ENDBRANCH   3  18
TORSDOF 6
ENDMDL
MODEL 7
REMARK VINA RESULT:   -26.810      3.534      4.047
REMARK INTER + INTRA:         -29.081
REMARK INTER:                 -28.600
REMARK INTRA:                  -0.481
REMARK CONF_INDEPENDENT:        1.790
REMARK UNBOUND:                -0.481
REMARK  6 active torsions:
REMARK  status: ('A' for Active; 'I' for Inactive)
REMARK    1  A    between atoms: C_8  and  S_9 
REMARK    2  A    between atoms: S_9  and  C_10 
REMARK    3  A    between atoms: C_10  and  C_11 
REMARK       I    between atoms: C_11  and  N_13 
REMARK    4  A    between atoms: N_13  and  C_14 
REMARK    5  A    between atoms: C_18  and  S_19 
REMARK    6  A    between atoms: S_19  and  N_20 
ROOT
ATOM      1  C   UNL d   1      25.524 -15.919  -2.711  0.00  0.00     0.231 C 
ATOM      2  O   UNL d   1      25.494 -15.617  -3.906  0.00  0.00    -0.272 OA
ATOM      3  N   UNL d   1      26.363 -15.239  -1.811  0.00  0.00    -0.326 N 
ATOM      4  H   UNL d   1      26.596 -15.680  -0.930  0.00  0.00     0.169 HD
ENDROOT
BRANCH   1   5
ATOM      5  C   UNL d   1      24.684 -17.102  -2.135  0.00  0.00     0.185 C 
BRANCH   5   6
ATOM      6  S   UNL d   1      23.927 -16.600  -0.538  0.00  0.00    -0.079 SA
BRANCH   6   7
ATOM      7  C   UNL d   1      22.544 -17.622  -0.211  0.00  0.00     0.227 A 
ATOM      8  N   UNL d   1      22.241 -18.142   0.979  0.00  0.00    -0.124 NA
ATOM      9  N   UNL d   1      21.096 -18.843   0.705  0.00  0.00    -0.062 N 
ATOM     10  C   UNL d   1      20.291 -19.609   1.559  0.00  0.00     0.052 A 
ATOM     11  C   UNL d   1      20.764 -18.713  -0.653  0.00  0.00     0.752 A 
ATOM     12  C   UNL d   1      19.198 -20.215   1.068  0.00  0.00     0.055 A 
ATOM     13  C   UNL d   1      20.653 -19.745   2.999  0.00  0.00     0.071 C 
ATOM     14  C   UNL d   1      18.916 -20.034  -0.385  0.00  0.00     0.051 A 
ATOM     15  C   UNL d   1      17.677 -20.748  -0.895  0.00  0.00     0.071 C 
ATOM     16  N   UNL d   1      19.654 -19.326  -1.194  0.00  0.00    -0.066 NA
ATOM     17  N   UNL d   1      21.672 -17.950  -1.223  0.00  0.00    -0.033 NA
ENDBRANCH   6   7
ENDBRANCH   5   6
ENDBRANCH   1   5
BRANCH   3  18
ATOM     18  C   UNL d   1      27.194 -14.152  -2.235  0.00  0.00     0.036 A 
ATOM     19  C   UNL d   1      28.472 -14.393  -2.761  0.00  0.00     0.029 A 
ATOM     20  C   UNL d   1      29.261 -13.331  -3.242  0.00  0.00     0.004 A 
ATOM     21  C   UNL d   1      28.804 -12.016  -3.160  0.00  0.00     0.025 A 
ATOM     22  C   UNL d   1      27.551 -11.768  -2.595  0.00  0.00     0.081 A 
ATOM     23  C   UNL d   1      26.750 -12.826  -2.140  0.00  0.00     0.054 A 
BRANCH  22  24
ATOM     24  S   UNL d   1      26.954 -10.099  -2.490  0.00  0.00     0.256 S 
ATOM     25  O   UNL d   1      25.843  -9.967  -3.409  0.00  0.00    -0.201 OA
ATOM     26  O   UNL d   1      26.886  -9.710  -1.106  0.00  0.00    -0.201 OA
BRANCH  24  27
ATOM     27  N   UNL d   1      28.229  -9.245  -3.147  0.00  0.00    -0.324 N 
ATOM     28  H   UNL d   1      29.140  -9.690  -3.121  0.00  0.00     0.169 HD
ATOM     29  H   UNL d   1      28.132  -8.235  -3.160  0.00  0.00     0.169 HD
ENDBRANCH  24  27
ENDBRANCH  22  24
ENDBRANCH   3  18
TORSDOF 6
ENDMDL
MODEL 8
REMARK VINA RESULT:   -26.501      2.015      2.238
REMARK INTER + INTRA:         -28.782
REMARK INTER:                 -28.291
REMARK INTRA:                  -0.492
REMARK CONF_INDEPENDENT:        1.790
REMARK UNBOUND:                -0.492
REMARK  6 active torsions:
REMARK  status: ('A' for Active; 'I' for Inactive)
REMARK    1  A    between atoms: C_8  and  S_9 
REMARK    2  A    between atoms: S_9  and  C_10 
REMARK    3  A    between atoms: C_10  and  C_11 
REMARK       I    between atoms: C_11  and  N_13 
REMARK    4  A    between atoms: N_13  and  C_14 
REMARK    5  A    between atoms: C_18  and  S_19 
REMARK    6  A    between atoms: S_19  and  N_20 
ROOT
ATOM      1  C   UNL d   1      26.050 -16.412  -2.051  0.00  0.00     0.231 C 
ATOM      2  O   UNL d   1      26.551 -15.948  -3.077  0.00  0.00    -0.272 OA
ATOM      3  N   UNL d   1      26.776 -16.467  -0.848  0.00  0.00    -0.326 N 
ATOM      4  H   UNL d   1      26.472 -17.104  -0.122  0.00  0.00     0.169 HD
ENDROOT
BRANCH   1   5
ATOM      5  C   UNL d   1      24.610 -17.017  -2.033  0.00  0.00     0.185 C 
BRANCH   5   6
ATOM      6  S   UNL d   1      23.725 -16.456  -0.525  0.00  0.00    -0.079 SA
BRANCH   6   7
ATOM      7  C   UNL d   1      22.390 -17.543  -0.205  0.00  0.00     0.227 A 
ATOM      8  N   UNL d   1      22.133 -18.114   0.973  0.00  0.00    -0.124 NA
ATOM      9  N   UNL d   1      21.011 -18.850   0.699  0.00  0.00    -0.062 N 
ATOM     10  C   UNL d   1      20.256 -19.676   1.542  0.00  0.00     0.052 A 
ATOM     11  C   UNL d   1      20.644 -18.687  -0.647  0.00  0.00     0.752 A 
ATOM     12  C   UNL d   1      19.177 -20.307   1.054  0.00  0.00     0.055 A 
ATOM     13  C   UNL d   1      20.655 -19.846   2.968  0.00  0.00     0.071 C 
ATOM     14  C   UNL d   1      18.856 -20.089  -0.386  0.00  0.00     0.051 A 
ATOM     15  C   UNL d   1      17.634 -20.834  -0.895  0.00  0.00     0.071 C 
ATOM     16  N   UNL d   1      19.547 -19.325  -1.186  0.00  0.00    -0.066 NA
ATOM     17  N   UNL d   1      21.509 -17.870  -1.209  0.00  0.00    -0.033 NA
ENDBRANCH   6   7
ENDBRANCH   5   6
ENDBRANCH   1   5
BRANCH   3  18
ATOM     18  C   UNL d   1      28.112 -15.961  -0.755  0.00  0.00     0.036 A 
ATOM     19  C   UNL d   1      29.206 -16.769  -1.100  0.00  0.00     0.029 A 
ATOM     20  C   UNL d   1      30.515 -16.251  -1.075  0.00  0.00     0.004 A 
ATOM     21  C   UNL d   1      30.750 -14.940  -0.661  0.00  0.00     0.025 A 
ATOM     22  C   UNL d   1      29.667 -14.148  -0.275  0.00  0.00     0.081 A 
ATOM     23  C   UNL d   1      28.359 -14.650  -0.324  0.00  0.00     0.054 A 
BRANCH  22  24
ATOM     24  S   UNL d   1      29.951 -12.474   0.249  0.00  0.00     0.256 S 
ATOM     25  O   UNL d   1      30.368 -11.712  -0.910  0.00  0.00    -0.201 OA
ATOM     26  O   UNL d   1      28.881 -12.066   1.120  0.00  0.00    -0.201 OA
BRANCH  24  27
ATOM     27  N   UNL d   1      31.297 -12.651   1.221  0.00  0.00    -0.324 N 
ATOM     28  H   UNL d   1      31.330 -13.474   1.812  0.00  0.00     0.169 HD
ATOM     29  H   UNL d   1      31.781 -11.796   1.475  0.00  0.00     0.169 HD
ENDBRANCH  24  27
ENDBRANCH  22  24
ENDBRANCH   3  18
TORSDOF 6
ENDMDL
