MODEL 1
REMARK VINA RESULT:   -30.948      0.000      0.000
REMARK INTER + INTRA:         -33.841
REMARK INTER:                 -32.141
REMARK INTRA:                  -1.700
REMARK CONF_INDEPENDENT:        1.193
REMARK UNBOUND:                -1.700
REMARK  4 active torsions:
REMARK  status: ('A' for Active; 'I' for Inactive)
REMARK    1  A    between atoms: C_5  and  N_6 
REMARK    2  A    between atoms: N_6  and  N_7 
REMARK       I    between atoms: N_7  and  C_8 
REMARK    3  A    between atoms: C_8  and  C_10 
REMARK    4  A    between atoms: C_10  and  N_11 
ROOT
ATOM      1  N   UNL d   1      22.539 -17.303  -0.533  0.00  0.00    -0.254 N 
ATOM      2  C   UNL d   1      23.600 -18.176  -0.331  0.00  0.00     0.256 C 
ATOM      3  O   UNL d   1      23.412 -19.358  -0.609  0.00  0.00    -0.270 OA
ATOM      4  H   UNL d   1      22.662 -16.316  -0.371  0.00  0.00     0.190 HD
ENDROOT
BRANCH   2   5
ATOM      5  C   UNL d   1      24.883 -17.507   0.219  0.00  0.00     0.259 C 
BRANCH   5   6
ATOM      6  N   UNL d   1      25.759 -16.927  -0.784  0.00  0.00    -0.225 N 
ATOM      7  N   UNL d   1      27.089 -17.208  -0.667  0.00  0.00    -0.181 NA
ATOM      8  C   UNL d   1      27.923 -16.755  -1.537  0.00  0.00     0.151 A 
ATOM      9  C   UNL d   1      27.525 -15.927  -2.652  0.00  0.00    -0.001 A 
ATOM     10  C   UNL d   1      28.457 -15.572  -3.616  0.00  0.00     0.014 C 
ATOM     11  C   UNL d   1      26.184 -15.579  -2.759  0.00  0.00     0.045 A 
ATOM     12  C   UNL d   1      27.992 -14.980  -4.784  0.00  0.00     0.001 C 
ATOM     13  C   UNL d   1      26.669 -14.532  -4.863  0.00  0.00     0.001 C 
ATOM     14  C   UNL d   1      25.769 -14.793  -3.829  0.00  0.00     0.018 C 
ATOM     15  C   UNL d   1      25.224 -16.105  -1.771  0.00  0.00     0.275 A 
ATOM     16  O   UNL d   1      24.026 -15.843  -1.858  0.00  0.00    -0.266 OA
ENDBRANCH   5   6
ENDBRANCH   2   5
BRANCH   1  17
ATOM     17  N   UNL d   1      21.382 -17.921  -1.056  0.00  0.00    -0.126 N 
ATOM     18  H   UNL d   1      21.138 -17.628  -2.019  0.00  0.00     0.206 HD
BRANCH  17  19
ATOM     19  C   UNL d   1      20.637 -18.888  -0.449  0.00  0.00     0.738 C 
ATOM     20  N   UNL d   1      21.189 -19.445   0.874  0.00  0.00    -0.110 N 
ATOM     21  N   UNL d   1      20.566 -20.383   1.537  0.00  0.00    -0.188 NA
ATOM     22  H   UNL d   1      22.073 -19.063   1.187  0.00  0.00     0.207 HD
ATOM     23  C   UNL d   1      19.252 -20.829   1.060  0.00  0.00     0.220 C 
ATOM     24  C   UNL d   1      18.816 -20.296  -0.298  0.00  0.00     0.286 C 
ATOM     25  C   UNL d   1      18.234 -20.392   2.103  0.00  0.00     0.046 C 
ATOM     26  N   UNL d   1      19.531 -19.324  -0.949  0.00  0.00    -0.023 NA
ATOM     27  O   UNL d   1      17.759 -20.721  -0.778  0.00  0.00    -0.268 OA
ENDBRANCH  17  19
ENDBRANCH   1  17
TORSDOF 4
ENDMDL
MODEL 2
REMARK VINA RESULT:   -30.823      1.576      1.993
REMARK INTER + INTRA:         -33.506
REMARK INTER:                 -32.016
REMARK INTRA:                  -1.490
REMARK CONF_INDEPENDENT:        1.193
REMARK UNBOUND:                -1.490
REMARK  4 active torsions:
REMARK  status: ('A' for Active; 'I' for Inactive)
REMARK    1  A    between atoms: C_5  and  N_6 
REMARK    2  A    between atoms: N_6  and  N_7 
REMARK       I    between atoms: N_7  and  C_8 
REMARK    3  A    between atoms: C_8  and  C_10 
REMARK    4  A    between atoms: C_10  and  N_11 
ROOT
ATOM      1  N   UNL d   1      23.837 -17.381  -1.165  0.00  0.00    -0.254 N 
ATOM      2  C   UNL d   1      24.995 -17.458  -0.403  0.00  0.00     0.256 C 
ATOM      3  O   UNL d   1      25.252 -18.544   0.114  0.00  0.00    -0.270 OA
ATOM      4  H   UNL d   1      23.612 -16.528  -1.653  0.00  0.00     0.190 HD
ENDROOT
BRANCH   2   5
ATOM      5  C   UNL d   1      25.802 -16.139  -0.329  0.00  0.00     0.259 C 
BRANCH   5   6
ATOM      6  N   UNL d   1      26.660 -15.872  -1.470  0.00  0.00    -0.225 N 
ATOM      7  N   UNL d   1      27.998 -16.067  -1.284  0.00  0.00    -0.181 NA
ATOM      8  C   UNL d   1      28.818 -15.881  -2.260  0.00  0.00     0.151 A 
ATOM      9  C   UNL d   1      28.395 -15.447  -3.571  0.00  0.00    -0.001 A 
ATOM     10  C   UNL d   1      29.316 -15.381  -4.607  0.00  0.00     0.014 C 
ATOM     11  C   UNL d   1      27.044 -15.186  -3.768  0.00  0.00     0.045 A 
ATOM     12  C   UNL d   1      28.833 -15.190  -5.895  0.00  0.00     0.001 C 
ATOM     13  C   UNL d   1      27.498 -14.825  -6.096  0.00  0.00     0.001 C 
ATOM     14  C   UNL d   1      26.606 -14.779  -5.024  0.00  0.00     0.018 C 
ATOM     15  C   UNL d   1      26.101 -15.409  -2.657  0.00  0.00     0.275 A 
ATOM     16  O   UNL d   1      24.895 -15.219  -2.809  0.00  0.00    -0.266 OA
ENDBRANCH   5   6
ENDBRANCH   2   5
BRANCH   1  17
ATOM     17  N   UNL d   1      23.121 -18.595  -1.243  0.00  0.00    -0.126 N 
ATOM     18  H   UNL d   1      23.605 -19.344  -1.771  0.00  0.00     0.206 HD
BRANCH  17  19
ATOM     19  C   UNL d   1      21.932 -18.875  -0.639  0.00  0.00     0.738 C 
ATOM     20  N   UNL d   1      20.722 -19.066  -1.570  0.00  0.00    -0.110 N 
ATOM     21  N   UNL d   1      19.530 -19.325  -1.103  0.00  0.00    -0.188 NA
ATOM     22  H   UNL d   1      20.898 -18.953  -2.562  0.00  0.00     0.207 HD
ATOM     23  C   UNL d   1      19.372 -19.550   0.339  0.00  0.00     0.220 C 
ATOM     24  C   UNL d   1      20.593 -19.260   1.200  0.00  0.00     0.286 C 
ATOM     25  C   UNL d   1      18.991 -21.013   0.515  0.00  0.00     0.046 C 
ATOM     26  N   UNL d   1      21.811 -18.972   0.642  0.00  0.00    -0.023 NA
ATOM     27  O   UNL d   1      20.474 -19.346   2.427  0.00  0.00    -0.268 OA
ENDBRANCH  17  19
ENDBRANCH   1  17
TORSDOF 4
ENDMDL
MODEL 3
REMARK VINA RESULT:   -30.451      1.781      2.584
REMARK INTER + INTRA:         -33.383
REMARK INTER:                 -31.645
REMARK INTRA:                  -1.738
REMARK CONF_INDEPENDENT:        1.193
REMARK UNBOUND:                -1.738
REMARK  4 active torsions:
REMARK  status: ('A' for Active; 'I' for Inactive)
REMARK    1  A    between atoms: C_5  and  N_6 
REMARK    2  A    between atoms: N_6  and  N_7 
REMARK       I    between atoms: N_7  and  C_8 
REMARK    3  A    between atoms: C_8  and  C_10 
REMARK    4  A    between atoms: C_10  and  N_11 
ROOT
ATOM      1  N   UNL d   1      23.889 -17.656  -0.729  0.00  0.00    -0.254 N 
ATOM      2  C   UNL d   1      25.207 -17.810  -0.321  0.00  0.00     0.256 C 
ATOM      3  O   UNL d   1      25.578 -18.950  -0.049  0.00  0.00    -0.270 OA
ATOM      4  H   UNL d   1      23.555 -16.749  -1.015  0.00  0.00     0.190 HD
ENDROOT
BRANCH   2   5
ATOM      5  C   UNL d   1      26.024 -16.495  -0.280  0.00  0.00     0.259 C 
BRANCH   5   6
ATOM      6  N   UNL d   1      26.012 -15.719  -1.507  0.00  0.00    -0.225 N 
ATOM      7  N   UNL d   1      24.816 -15.173  -1.871  0.00  0.00    -0.181 NA
ATOM      8  C   UNL d   1      24.734 -14.446  -2.931  0.00  0.00     0.151 A 
ATOM      9  C   UNL d   1      25.863 -14.183  -3.794  0.00  0.00    -0.001 A 
ATOM     10  C   UNL d   1      25.732 -13.296  -4.852  0.00  0.00     0.014 C 
ATOM     11  C   UNL d   1      27.079 -14.776  -3.476  0.00  0.00     0.045 A 
ATOM     12  C   UNL d   1      26.887 -12.891  -5.508  0.00  0.00     0.001 C 
ATOM     13  C   UNL d   1      28.096 -13.552  -5.271  0.00  0.00     0.001 C 
ATOM     14  C   UNL d   1      28.187 -14.531  -4.280  0.00  0.00     0.018 C 
ATOM     15  C   UNL d   1      27.179 -15.600  -2.257  0.00  0.00     0.275 A 
ATOM     16  O   UNL d   1      28.249 -16.111  -1.930  0.00  0.00    -0.266 OA
ENDBRANCH   5   6
ENDBRANCH   2   5
BRANCH   1  17
ATOM     17  N   UNL d   1      23.162 -18.864  -0.784  0.00  0.00    -0.126 N 
ATOM     18  H   UNL d   1      23.712 -19.681  -1.107  0.00  0.00     0.206 HD
BRANCH  17  19
ATOM     19  C   UNL d   1      21.871 -19.051  -0.389  0.00  0.00     0.738 C 
ATOM     20  N   UNL d   1      20.823 -19.157  -1.510  0.00  0.00    -0.110 N 
ATOM     21  N   UNL d   1      19.554 -19.324  -1.250  0.00  0.00    -0.188 NA
ATOM     22  H   UNL d   1      21.170 -19.063  -2.458  0.00  0.00     0.207 HD
ATOM     23  C   UNL d   1      19.141 -19.529   0.143  0.00  0.00     0.220 C 
ATOM     24  C   UNL d   1      20.220 -19.326   1.198  0.00  0.00     0.286 C 
ATOM     25  C   UNL d   1      18.629 -20.959   0.243  0.00  0.00     0.046 C 
ATOM     26  N   UNL d   1      21.532 -19.133   0.853  0.00  0.00    -0.023 NA
ATOM     27  O   UNL d   1      19.891 -19.397   2.387  0.00  0.00    -0.268 OA
ENDBRANCH  17  19
ENDBRANCH   1  17
TORSDOF 4
ENDMDL
MODEL 4
REMARK VINA RESULT:   -30.273      1.702      2.152
REMARK INTER + INTRA:         -33.008
REMARK INTER:                 -31.466
REMARK INTRA:                  -1.542
REMARK CONF_INDEPENDENT:        1.193
REMARK UNBOUND:                -1.542
REMARK  4 active torsions:
REMARK  status: ('A' for Active; 'I' for Inactive)
REMARK    1  A    between atoms: C_5  and  N_6 
REMARK    2  A    between atoms: N_6  and  N_7 
REMARK       I    between atoms: N_7  and  C_8 
REMARK    3  A    between atoms: C_8  and  C_10 
REMARK    4  A    between atoms: C_10  and  N_11 
ROOT
ATOM      1  N   UNL d   1      22.701 -17.526  -0.739  0.00  0.00    -0.254 N 
ATOM      2  C   UNL d   1      23.594 -18.552  -0.467  0.00  0.00     0.256 C 
ATOM      3  O   UNL d   1      23.170 -19.703  -0.562  0.00  0.00    -0.270 OA
ATOM      4  H   UNL d   1      23.017 -16.569  -0.728  0.00  0.00     0.190 HD
ENDROOT
BRANCH   2   5
ATOM      5  C   UNL d   1      25.018 -18.079  -0.085  0.00  0.00     0.259 C 
BRANCH   5   6
ATOM      6  N   UNL d   1      25.457 -16.853  -0.727  0.00  0.00    -0.225 N 
ATOM      7  N   UNL d   1      24.864 -16.543  -1.916  0.00  0.00    -0.181 NA
ATOM      8  C   UNL d   1      25.178 -15.456  -2.530  0.00  0.00     0.151 A 
ATOM      9  C   UNL d   1      26.165 -14.526  -2.029  0.00  0.00    -0.001 A 
ATOM     10  C   UNL d   1      26.369 -13.318  -2.680  0.00  0.00     0.014 C 
ATOM     11  C   UNL d   1      26.824 -14.849  -0.850  0.00  0.00     0.045 A 
ATOM     12  C   UNL d   1      27.146 -12.359  -2.043  0.00  0.00     0.001 C 
ATOM     13  C   UNL d   1      27.896 -12.703  -0.913  0.00  0.00     0.001 C 
ATOM     14  C   UNL d   1      27.770 -13.968  -0.336  0.00  0.00     0.018 C 
ATOM     15  C   UNL d   1      26.459 -16.088  -0.138  0.00  0.00     0.275 A 
ATOM     16  O   UNL d   1      27.001 -16.384   0.926  0.00  0.00    -0.266 OA
ENDBRANCH   5   6
ENDBRANCH   2   5
BRANCH   1  17
ATOM     17  N   UNL d   1      21.413 -17.971  -1.108  0.00  0.00    -0.126 N 
ATOM     18  H   UNL d   1      21.078 -17.608  -2.019  0.00  0.00     0.206 HD
BRANCH  17  19
ATOM     19  C   UNL d   1      20.640 -18.864  -0.427  0.00  0.00     0.738 C 
ATOM     20  N   UNL d   1      21.163 -19.309   0.949  0.00  0.00    -0.110 N 
ATOM     21  N   UNL d   1      20.512 -20.170   1.685  0.00  0.00    -0.188 NA
ATOM     22  H   UNL d   1      22.052 -18.918   1.239  0.00  0.00     0.207 HD
ATOM     23  C   UNL d   1      19.195 -20.632   1.231  0.00  0.00     0.220 C 
ATOM     24  C   UNL d   1      18.787 -20.215  -0.175  0.00  0.00     0.286 C 
ATOM     25  C   UNL d   1      18.173 -20.082   2.216  0.00  0.00     0.046 C 
ATOM     26  N   UNL d   1      19.531 -19.321  -0.901  0.00  0.00    -0.023 NA
ATOM     27  O   UNL d   1      17.728 -20.660  -0.630  0.00  0.00    -0.268 OA
ENDBRANCH  17  19
ENDBRANCH   1  17
TORSDOF 4
ENDMDL
MODEL 5
REMARK VINA RESULT:   -30.001      2.444      3.282
REMARK INTER + INTRA:         -32.306
REMARK INTER:                 -31.194
REMARK INTRA:                  -1.111
REMARK CONF_INDEPENDENT:        1.193
REMARK UNBOUND:                -1.111
REMARK  4 active torsions:
REMARK  status: ('A' for Active; 'I' for Inactive)
REMARK    1  A    between atoms: C_5  and  N_6 
REMARK    2  A    between atoms: N_6  and  N_7 
REMARK       I    between atoms: N_7  and  C_8 
REMARK    3  A    between atoms: C_8  and  C_10 
REMARK    4  A    between atoms: C_10  and  N_11 
ROOT
ATOM      1  N   UNL d   1      23.880 -17.999  -1.086  0.00  0.00    -0.254 N 
ATOM      2  C   UNL d   1      24.693 -16.874  -1.116  0.00  0.00     0.256 C 
ATOM      3  O   UNL d   1      24.708 -16.168  -0.109  0.00  0.00    -0.270 OA
ATOM      4  H   UNL d   1      23.876 -18.637  -1.866  0.00  0.00     0.190 HD
ENDROOT
BRANCH   2   5
ATOM      5  C   UNL d   1      25.476 -16.684  -2.438  0.00  0.00     0.259 C 
BRANCH   5   6
ATOM      6  N   UNL d   1      25.663 -15.305  -2.855  0.00  0.00    -0.225 N 
ATOM      7  N   UNL d   1      24.788 -14.827  -3.786  0.00  0.00    -0.181 NA
ATOM      8  C   UNL d   1      24.871 -13.605  -4.182  0.00  0.00     0.151 A 
ATOM      9  C   UNL d   1      25.878 -12.688  -3.698  0.00  0.00    -0.001 A 
ATOM     10  C   UNL d   1      25.837 -11.354  -4.078  0.00  0.00     0.014 C 
ATOM     11  C   UNL d   1      26.816 -13.168  -2.793  0.00  0.00     0.045 A 
ATOM     12  C   UNL d   1      26.671 -10.463  -3.413  0.00  0.00     0.001 C 
ATOM     13  C   UNL d   1      27.687 -10.943  -2.580  0.00  0.00     0.001 C 
ATOM     14  C   UNL d   1      27.790 -12.306  -2.301  0.00  0.00     0.018 C 
ATOM     15  C   UNL d   1      26.717 -14.565  -2.329  0.00  0.00     0.275 A 
ATOM     16  O   UNL d   1      27.512 -15.010  -1.503  0.00  0.00    -0.266 OA
ENDBRANCH   5   6
ENDBRANCH   2   5
BRANCH   1  17
ATOM     17  N   UNL d   1      23.189 -18.172   0.133  0.00  0.00    -0.126 N 
ATOM     18  H   UNL d   1      23.736 -17.921   0.976  0.00  0.00     0.206 HD
BRANCH  17  19
ATOM     19  C   UNL d   1      21.888 -18.554   0.279  0.00  0.00     0.738 C 
ATOM     20  N   UNL d   1      21.011 -18.484  -0.983  0.00  0.00    -0.110 N 
ATOM     21  N   UNL d   1      19.747 -18.813  -0.960  0.00  0.00    -0.188 NA
ATOM     22  H   UNL d   1      21.462 -18.143  -1.824  0.00  0.00     0.207 HD
ATOM     23  C   UNL d   1      19.187 -19.370   0.277  0.00  0.00     0.220 C 
ATOM     24  C   UNL d   1      20.091 -19.327   1.501  0.00  0.00     0.286 C 
ATOM     25  C   UNL d   1      18.835 -20.822  -0.015  0.00  0.00     0.046 C 
ATOM     26  N   UNL d   1      21.405 -18.950   1.408  0.00  0.00    -0.023 NA
ATOM     27  O   UNL d   1      19.624 -19.700   2.583  0.00  0.00    -0.268 OA
ENDBRANCH  17  19
ENDBRANCH   1  17
TORSDOF 4
ENDMDL
MODEL 6
REMARK VINA RESULT:   -29.514      2.487      3.450
REMARK INTER + INTRA:         -31.460
REMARK INTER:                 -30.708
REMARK INTRA:                  -0.752
REMARK CONF_INDEPENDENT:        1.193
REMARK UNBOUND:                -0.752
REMARK  4 active torsions:
REMARK  status: ('A' for Active; 'I' for Inactive)
REMARK    1  A    between atoms: C_5  and  N_6 
REMARK    2  A    between atoms: N_6  and  N_7 
REMARK       I    between atoms: N_7  and  C_8 
REMARK    3  A    between atoms: C_8  and  C_10 
REMARK    4  A    between atoms: C_10  and  N_11 
ROOT
ATOM      1  N   UNL d   1      23.825 -17.896  -1.333  0.00  0.00    -0.254 N 
ATOM      2  C   UNL d   1      24.733 -17.396  -0.409  0.00  0.00     0.256 C 
ATOM      3  O   UNL d   1      24.854 -18.016   0.646  0.00  0.00    -0.270 OA
ATOM      4  H   UNL d   1      23.731 -17.454  -2.234  0.00  0.00     0.190 HD
ENDROOT
BRANCH   2   5
ATOM      5  C   UNL d   1      25.471 -16.114  -0.865  0.00  0.00     0.259 C 
BRANCH   5   6
ATOM      6  N   UNL d   1      26.903 -16.104  -0.623  0.00  0.00    -0.225 N 
ATOM      7  N   UNL d   1      27.642 -17.024  -1.307  0.00  0.00    -0.181 NA
ATOM      8  C   UNL d   1      28.922 -17.056  -1.169  0.00  0.00     0.151 A 
ATOM      9  C   UNL d   1      29.641 -16.162  -0.290  0.00  0.00    -0.001 A 
ATOM     10  C   UNL d   1      31.028 -16.172  -0.278  0.00  0.00     0.014 C 
ATOM     11  C   UNL d   1      28.904 -15.254   0.462  0.00  0.00     0.045 A 
ATOM     12  C   UNL d   1      31.680 -15.147   0.395  0.00  0.00     0.001 C 
ATOM     13  C   UNL d   1      30.961 -14.292   1.237  0.00  0.00     0.001 C 
ATOM     14  C   UNL d   1      29.569 -14.372   1.307  0.00  0.00     0.018 C 
ATOM     15  C   UNL d   1      27.439 -15.208   0.297  0.00  0.00     0.275 A 
ATOM     16  O   UNL d   1      26.762 -14.394   0.923  0.00  0.00    -0.266 OA
ENDBRANCH   5   6
ENDBRANCH   2   5
BRANCH   1  17
ATOM     17  N   UNL d   1      23.175 -19.077  -0.915  0.00  0.00    -0.126 N 
ATOM     18  H   UNL d   1      23.782 -19.917  -0.897  0.00  0.00     0.206 HD
BRANCH  17  19
ATOM     19  C   UNL d   1      21.888 -19.182  -0.478  0.00  0.00     0.738 C 
ATOM     20  N   UNL d   1      20.801 -19.237  -1.565  0.00  0.00    -0.110 N 
ATOM     21  N   UNL d   1      19.533 -19.325  -1.263  0.00  0.00    -0.188 NA
ATOM     22  H   UNL d   1      21.122 -19.174  -2.523  0.00  0.00     0.207 HD
ATOM     23  C   UNL d   1      19.153 -19.489   0.145  0.00  0.00     0.220 C 
ATOM     24  C   UNL d   1      20.275 -19.339   1.164  0.00  0.00     0.286 C 
ATOM     25  C   UNL d   1      18.560 -20.884   0.280  0.00  0.00     0.046 C 
ATOM     26  N   UNL d   1      21.585 -19.229   0.775  0.00  0.00    -0.023 NA
ATOM     27  O   UNL d   1      19.981 -19.376   2.363  0.00  0.00    -0.268 OA
ENDBRANCH  17  19
ENDBRANCH   1  17
TORSDOF 4
ENDMDL
MODEL 7
REMARK VINA RESULT:   -27.988      2.392      2.914
REMARK INTER + INTRA:         -30.243
REMARK INTER:                 -29.182
REMARK INTRA:                  -1.061
REMARK CONF_INDEPENDENT:        1.193
REMARK UNBOUND:                -1.061
REMARK  4 active torsions:
REMARK  status: ('A' for Active; 'I' for Inactive)
REMARK    1  A    between atoms: C_5  and  N_6 
REMARK    2  A    between atoms: N_6  and  N_7 
REMARK       I    between atoms: N_7  and  C_8 
REMARK    3  A    between atoms: C_8  and  C_10 
REMARK    4  A    between atoms: C_10  and  N_11 
ROOT
ATOM      1  N   UNL d   1      23.890 -17.659  -0.864  0.00  0.00    -0.254 N 
ATOM      2  C   UNL d   1      25.153 -17.141  -0.613  0.00  0.00     0.256 C 
ATOM      3  O   UNL d   1      25.544 -17.163   0.552  0.00  0.00    -0.270 OA
ATOM      4  H   UNL d   1      23.548 -17.713  -1.811  0.00  0.00     0.190 HD
ENDROOT
BRANCH   2   5
ATOM      5  C   UNL d   1      25.890 -16.613  -1.868  0.00  0.00     0.259 C 
BRANCH   5   6
ATOM      6  N   UNL d   1      26.980 -15.690  -1.604  0.00  0.00    -0.225 N 
ATOM      7  N   UNL d   1      27.743 -15.949  -0.503  0.00  0.00    -0.181 NA
ATOM      8  C   UNL d   1      28.747 -15.193  -0.222  0.00  0.00     0.151 A 
ATOM      9  C   UNL d   1      29.111 -14.041  -1.015  0.00  0.00    -0.001 A 
ATOM     10  C   UNL d   1      30.273 -13.340  -0.723  0.00  0.00     0.014 C 
ATOM     11  C   UNL d   1      28.314 -13.723  -2.108  0.00  0.00     0.045 A 
ATOM     12  C   UNL d   1      30.710 -12.395  -1.642  0.00  0.00     0.001 C 
ATOM     13  C   UNL d   1      29.871 -11.992  -2.686  0.00  0.00     0.001 C 
ATOM     14  C   UNL d   1      28.646 -12.627  -2.897  0.00  0.00     0.018 C 
ATOM     15  C   UNL d   1      27.170 -14.593  -2.439  0.00  0.00     0.275 A 
ATOM     16  O   UNL d   1      26.465 -14.358  -3.419  0.00  0.00    -0.266 OA
ENDBRANCH   5   6
ENDBRANCH   2   5
BRANCH   1  17
ATOM     17  N   UNL d   1      23.237 -18.157   0.284  0.00  0.00    -0.126 N 
ATOM     18  H   UNL d   1      23.824 -18.172   1.138  0.00  0.00     0.206 HD
BRANCH  17  19
ATOM     19  C   UNL d   1      21.930 -18.533   0.374  0.00  0.00     0.738 C 
ATOM     20  N   UNL d   1      21.099 -18.423  -0.916  0.00  0.00    -0.110 N 
ATOM     21  N   UNL d   1      19.833 -18.743  -0.946  0.00  0.00    -0.188 NA
ATOM     22  H   UNL d   1      21.582 -18.064  -1.731  0.00  0.00     0.207 HD
ATOM     23  C   UNL d   1      19.225 -19.328   0.255  0.00  0.00     0.220 C 
ATOM     24  C   UNL d   1      20.086 -19.324   1.511  0.00  0.00     0.286 C 
ATOM     25  C   UNL d   1      18.874 -20.769  -0.088  0.00  0.00     0.046 C 
ATOM     26  N   UNL d   1      21.405 -18.954   1.474  0.00  0.00    -0.023 NA
ATOM     27  O   UNL d   1      19.578 -19.722   2.565  0.00  0.00    -0.268 OA
ENDBRANCH  17  19
ENDBRANCH   1  17
TORSDOF 4
ENDMDL
