MODEL 1
REMARK VINA RESULT:    -8.375      0.000      0.000
REMARK INTER + INTRA:         -10.203
REMARK INTER:                  -9.568
REMARK INTRA:                  -0.636
REMARK CONF_INDEPENDENT:        1.193
REMARK UNBOUND:                -0.636
REMARK  4 active torsions:
REMARK  status: ('A' for Active; 'I' for Inactive)
REMARK    1  A    between atoms: C_2  and  C_3 
REMARK       I    between atoms: C_2  and  N_17 
REMARK    2  A    between atoms: C_3  and  C_4 
REMARK    3  A    between atoms: N_17  and  N_18 
REMARK    4  A    between atoms: N_18  and  C_19 
ROOT
ATOM      1  C   UNL d   1      24.987 -15.889  -1.492  0.00  0.00    -0.013 A 
ATOM      2  C   UNL d   1      24.119 -15.218  -2.335  0.00  0.00     0.151 A 
ATOM      3  O   UNL d   1      24.744 -14.803  -3.459  0.00  0.00    -0.321 OA
ATOM      4  C   UNL d   1      26.042 -15.187  -3.358  0.00  0.00     0.086 A 
ATOM      5  C   UNL d   1      27.013 -14.919  -4.320  0.00  0.00     0.039 A 
ATOM      6  C   UNL d   1      28.308 -15.362  -4.046  0.00  0.00     0.015 A 
ATOM      7  C   UNL d   1      28.612 -16.059  -2.866  0.00  0.00    -0.025 A 
ATOM      8  C   UNL d   1      29.928 -16.476  -2.607  0.00  0.00     0.012 A 
ATOM      9  C   UNL d   1      30.251 -17.166  -1.437  0.00  0.00     0.001 A 
ATOM     10  C   UNL d   1      29.262 -17.466  -0.514  0.00  0.00     0.001 A 
ATOM     11  C   UNL d   1      27.951 -17.069  -0.754  0.00  0.00     0.013 A 
ATOM     12  C   UNL d   1      27.596 -16.345  -1.914  0.00  0.00    -0.012 A 
ATOM     13  C   UNL d   1      26.265 -15.875  -2.166  0.00  0.00     0.017 A 
ENDROOT
BRANCH   1  14
ATOM     14  C   UNL d   1      24.614 -16.492  -0.171  0.00  0.00     0.145 C 
BRANCH  14  15
ATOM     15  C   UNL d   1      24.568 -18.009  -0.145  0.00  0.00     0.236 C 
ATOM     16  O   UNL d   1      25.512 -18.731  -0.482  0.00  0.00    -0.272 OA
ATOM     17  N   UNL d   1      23.409 -18.599   0.325  0.00  0.00    -0.287 N 
ATOM     18  H   UNL d   1      23.378 -19.602   0.150  0.00  0.00     0.184 HD
BRANCH  17  19
ATOM     19  N   UNL d   1      22.156 -17.955   0.260  0.00  0.00    -0.203 NA
ATOM     20  H   UNL d   1      22.024 -17.192   0.928  0.00  0.00     0.153 HD
BRANCH  19  21
ATOM     21  C   UNL d   1      21.039 -18.835   0.312  0.00  0.00     0.027 A 
ATOM     22  C   UNL d   1      20.655 -19.327   1.569  0.00  0.00     0.025 A 
ATOM     23  C   UNL d   1      19.549 -20.173   1.712  0.00  0.00     0.002 A 
ATOM     24  C   UNL d   1      18.788 -20.518   0.599  0.00  0.00     0.000 A 
ATOM     25  C   UNL d   1      19.176 -20.075  -0.662  0.00  0.00     0.002 A 
ATOM     26  C   UNL d   1      20.307 -19.257  -0.808  0.00  0.00     0.025 A 
ENDBRANCH  19  21
ENDBRANCH  17  19
ENDBRANCH  14  15
ENDBRANCH   1  14
TORSDOF 4
ENDMDL
MODEL 2
REMARK VINA RESULT:    -8.256      3.434      8.087
REMARK INTER + INTRA:         -10.202
REMARK INTER:                  -9.449
REMARK INTRA:                  -0.753
REMARK CONF_INDEPENDENT:        1.193
REMARK UNBOUND:                -0.753
REMARK  4 active torsions:
REMARK  status: ('A' for Active; 'I' for Inactive)
REMARK    1  A    between atoms: C_2  and  C_3 
REMARK       I    between atoms: C_2  and  N_17 
REMARK    2  A    between atoms: C_3  and  C_4 
REMARK    3  A    between atoms: N_17  and  N_18 
REMARK    4  A    between atoms: N_18  and  C_19 
ROOT
ATOM      1  C   UNL d   1      26.866 -14.986  -1.772  0.00  0.00    -0.013 A 
ATOM      2  C   UNL d   1      28.242 -15.087  -1.663  0.00  0.00     0.151 A 
ATOM      3  O   UNL d   1      28.605 -16.213  -1.009  0.00  0.00    -0.321 OA
ATOM      4  C   UNL d   1      27.462 -16.860  -0.666  0.00  0.00     0.086 A 
ATOM      5  C   UNL d   1      27.425 -18.057   0.044  0.00  0.00     0.039 A 
ATOM      6  C   UNL d   1      26.162 -18.575   0.338  0.00  0.00     0.015 A 
ATOM      7  C   UNL d   1      24.988 -17.928  -0.075  0.00  0.00    -0.025 A 
ATOM      8  C   UNL d   1      23.730 -18.460   0.251  0.00  0.00     0.012 A 
ATOM      9  C   UNL d   1      22.551 -17.830  -0.148  0.00  0.00     0.001 A 
ATOM     10  C   UNL d   1      22.607 -16.664  -0.895  0.00  0.00     0.001 A 
ATOM     11  C   UNL d   1      23.843 -16.123  -1.237  0.00  0.00     0.013 A 
ATOM     12  C   UNL d   1      25.054 -16.722  -0.825  0.00  0.00    -0.012 A 
ATOM     13  C   UNL d   1      26.341 -16.161  -1.114  0.00  0.00     0.017 A 
ENDROOT
BRANCH   1  14
ATOM     14  C   UNL d   1      26.134 -13.869  -2.452  0.00  0.00     0.145 C 
BRANCH  14  15
ATOM     15  C   UNL d   1      25.374 -14.265  -3.705  0.00  0.00     0.236 C 
ATOM     16  O   UNL d   1      25.155 -15.435  -4.035  0.00  0.00    -0.272 OA
ATOM     17  N   UNL d   1      24.871 -13.243  -4.491  0.00  0.00    -0.287 N 
ATOM     18  H   UNL d   1      24.535 -13.570  -5.395  0.00  0.00     0.184 HD
BRANCH  17  19
ATOM     19  N   UNL d   1      25.449 -11.956  -4.511  0.00  0.00    -0.203 NA
ATOM     20  H   UNL d   1      24.795 -11.185  -4.355  0.00  0.00     0.153 HD
BRANCH  19  21
ATOM     21  C   UNL d   1      26.241 -11.686  -5.662  0.00  0.00     0.027 A 
ATOM     22  C   UNL d   1      27.348 -12.514  -5.901  0.00  0.00     0.025 A 
ATOM     23  C   UNL d   1      28.160 -12.334  -7.027  0.00  0.00     0.002 A 
ATOM     24  C   UNL d   1      27.861 -11.339  -7.951  0.00  0.00     0.000 A 
ATOM     25  C   UNL d   1      26.792 -10.479  -7.711  0.00  0.00     0.002 A 
ATOM     26  C   UNL d   1      26.000 -10.638  -6.563  0.00  0.00     0.025 A 
ENDBRANCH  19  21
ENDBRANCH  17  19
ENDBRANCH  14  15
ENDBRANCH   1  14
TORSDOF 4
ENDMDL
MODEL 3
REMARK VINA RESULT:    -8.120      3.083      7.920
REMARK INTER + INTRA:         -10.278
REMARK INTER:                  -9.313
REMARK INTRA:                  -0.965
REMARK CONF_INDEPENDENT:        1.193
REMARK UNBOUND:                -0.965
REMARK  4 active torsions:
REMARK  status: ('A' for Active; 'I' for Inactive)
REMARK    1  A    between atoms: C_2  and  C_3 
REMARK       I    between atoms: C_2  and  N_17 
REMARK    2  A    between atoms: C_3  and  C_4 
REMARK    3  A    between atoms: N_17  and  N_18 
REMARK    4  A    between atoms: N_18  and  C_19 
ROOT
ATOM      1  C   UNL d   1      26.953 -15.083  -2.071  0.00  0.00    -0.013 A 
ATOM      2  C   UNL d   1      28.328 -15.232  -2.029  0.00  0.00     0.151 A 
ATOM      3  O   UNL d   1      28.685 -16.340  -1.343  0.00  0.00    -0.321 OA
ATOM      4  C   UNL d   1      27.540 -16.927  -0.911  0.00  0.00     0.086 A 
ATOM      5  C   UNL d   1      27.498 -18.089  -0.145  0.00  0.00     0.039 A 
ATOM      6  C   UNL d   1      26.235 -18.544   0.238  0.00  0.00     0.015 A 
ATOM      7  C   UNL d   1      25.064 -17.872  -0.143  0.00  0.00    -0.025 A 
ATOM      8  C   UNL d   1      23.808 -18.340   0.274  0.00  0.00     0.012 A 
ATOM      9  C   UNL d   1      22.632 -17.683  -0.092  0.00  0.00     0.001 A 
ATOM     10  C   UNL d   1      22.690 -16.555  -0.895  0.00  0.00     0.001 A 
ATOM     11  C   UNL d   1      23.924 -16.078  -1.327  0.00  0.00     0.013 A 
ATOM     12  C   UNL d   1      25.133 -16.704  -0.950  0.00  0.00    -0.012 A 
ATOM     13  C   UNL d   1      26.423 -16.206  -1.333  0.00  0.00     0.017 A 
ENDROOT
BRANCH   1  14
ATOM     14  C   UNL d   1      26.226 -13.970  -2.763  0.00  0.00     0.145 C 
BRANCH  14  15
ATOM     15  C   UNL d   1      25.259 -14.409  -3.848  0.00  0.00     0.236 C 
ATOM     16  O   UNL d   1      24.033 -14.284  -3.767  0.00  0.00    -0.272 OA
ATOM     17  N   UNL d   1      25.802 -14.941  -5.004  0.00  0.00    -0.287 N 
ATOM     18  H   UNL d   1      25.103 -15.374  -5.605  0.00  0.00     0.184 HD
BRANCH  17  19
ATOM     19  N   UNL d   1      27.062 -15.575  -5.020  0.00  0.00    -0.203 NA
ATOM     20  H   UNL d   1      27.427 -15.839  -4.102  0.00  0.00     0.153 HD
BRANCH  19  21
ATOM     21  C   UNL d   1      28.063 -14.874  -5.749  0.00  0.00     0.027 A 
ATOM     22  C   UNL d   1      29.238 -15.568  -6.077  0.00  0.00     0.025 A 
ATOM     23  C   UNL d   1      30.258 -14.961  -6.818  0.00  0.00     0.002 A 
ATOM     24  C   UNL d   1      30.108 -13.653  -7.270  0.00  0.00     0.000 A 
ATOM     25  C   UNL d   1      28.969 -12.933  -6.919  0.00  0.00     0.002 A 
ATOM     26  C   UNL d   1      27.963 -13.532  -6.145  0.00  0.00     0.025 A 
ENDBRANCH  19  21
ENDBRANCH  17  19
ENDBRANCH  14  15
ENDBRANCH   1  14
TORSDOF 4
ENDMDL
MODEL 4
REMARK VINA RESULT:    -7.590      4.033      7.965
REMARK INTER + INTRA:          -9.453
REMARK INTER:                  -8.783
REMARK INTRA:                  -0.670
REMARK CONF_INDEPENDENT:        1.193
REMARK UNBOUND:                -0.670
REMARK  4 active torsions:
REMARK  status: ('A' for Active; 'I' for Inactive)
REMARK    1  A    between atoms: C_2  and  C_3 
REMARK       I    between atoms: C_2  and  N_17 
REMARK    2  A    between atoms: C_3  and  C_4 
REMARK    3  A    between atoms: N_17  and  N_18 
REMARK    4  A    between atoms: N_18  and  C_19 
ROOT
ATOM      1  C   UNL d   1      26.396 -14.973  -2.008  0.00  0.00    -0.013 A 
ATOM      2  C   UNL d   1      27.778 -14.924  -1.946  0.00  0.00     0.151 A 
ATOM      3  O   UNL d   1      28.277 -15.950  -1.222  0.00  0.00    -0.321 OA
ATOM      4  C   UNL d   1      27.220 -16.681  -0.785  0.00  0.00     0.086 A 
ATOM      5  C   UNL d   1      27.331 -17.814   0.016  0.00  0.00     0.039 A 
ATOM      6  C   UNL d   1      26.139 -18.433   0.398  0.00  0.00     0.015 A 
ATOM      7  C   UNL d   1      24.891 -17.945  -0.017  0.00  0.00    -0.025 A 
ATOM      8  C   UNL d   1      23.707 -18.575   0.399  0.00  0.00     0.012 A 
ATOM      9  C   UNL d   1      22.456 -18.102  -0.001  0.00  0.00     0.001 A 
ATOM     10  C   UNL d   1      22.367 -17.001  -0.837  0.00  0.00     0.001 A 
ATOM     11  C   UNL d   1      23.527 -16.366  -1.269  0.00  0.00     0.013 A 
ATOM     12  C   UNL d   1      24.806 -16.803  -0.859  0.00  0.00    -0.012 A 
ATOM     13  C   UNL d   1      26.018 -16.138  -1.242  0.00  0.00     0.017 A 
ENDROOT
BRANCH   1  14
ATOM     14  C   UNL d   1      25.530 -13.995  -2.743  0.00  0.00     0.145 C 
BRANCH  14  15
ATOM     15  C   UNL d   1      25.503 -14.164  -4.251  0.00  0.00     0.236 C 
ATOM     16  O   UNL d   1      25.158 -15.204  -4.820  0.00  0.00    -0.272 OA
ATOM     17  N   UNL d   1      25.851 -13.066  -5.018  0.00  0.00    -0.287 N 
ATOM     18  H   UNL d   1      25.984 -13.297  -6.001  0.00  0.00     0.184 HD
BRANCH  17  19
ATOM     19  N   UNL d   1      26.702 -12.050  -4.535  0.00  0.00    -0.203 NA
ATOM     20  H   UNL d   1      27.153 -12.251  -3.639  0.00  0.00     0.153 HD
BRANCH  19  21
ATOM     21  C   UNL d   1      26.110 -10.757  -4.492  0.00  0.00     0.027 A 
ATOM     22  C   UNL d   1      26.067 -10.099  -3.254  0.00  0.00     0.025 A 
ATOM     23  C   UNL d   1      25.529  -8.813  -3.132  0.00  0.00     0.002 A 
ATOM     24  C   UNL d   1      25.049  -8.149  -4.257  0.00  0.00     0.000 A 
ATOM     25  C   UNL d   1      25.043  -8.800  -5.487  0.00  0.00     0.002 A 
ATOM     26  C   UNL d   1      25.549 -10.104  -5.600  0.00  0.00     0.025 A 
ENDBRANCH  19  21
ENDBRANCH  17  19
ENDBRANCH  14  15
ENDBRANCH   1  14
TORSDOF 4
ENDMDL
MODEL 5
REMARK VINA RESULT:    -7.535      4.071      7.462
REMARK INTER + INTRA:          -9.532
REMARK INTER:                  -8.729
REMARK INTRA:                  -0.803
REMARK CONF_INDEPENDENT:        1.193
REMARK UNBOUND:                -0.803
REMARK  4 active torsions:
REMARK  status: ('A' for Active; 'I' for Inactive)
REMARK    1  A    between atoms: C_2  and  C_3 
REMARK       I    between atoms: C_2  and  N_17 
REMARK    2  A    between atoms: C_3  and  C_4 
REMARK    3  A    between atoms: N_17  and  N_18 
REMARK    4  A    between atoms: N_18  and  C_19 
ROOT
ATOM      1  C   UNL d   1      26.588 -15.011  -3.397  0.00  0.00    -0.013 A 
ATOM      2  C   UNL d   1      25.572 -14.296  -4.007  0.00  0.00     0.151 A 
ATOM      3  O   UNL d   1      24.382 -14.513  -3.405  0.00  0.00    -0.321 OA
ATOM      4  C   UNL d   1      24.603 -15.392  -2.394  0.00  0.00     0.086 A 
ATOM      5  C   UNL d   1      23.607 -15.880  -1.552  0.00  0.00     0.039 A 
ATOM      6  C   UNL d   1      24.001 -16.800  -0.579  0.00  0.00     0.015 A 
ATOM      7  C   UNL d   1      25.339 -17.202  -0.447  0.00  0.00    -0.025 A 
ATOM      8  C   UNL d   1      25.705 -18.145   0.527  0.00  0.00     0.012 A 
ATOM      9  C   UNL d   1      27.030 -18.561   0.671  0.00  0.00     0.001 A 
ATOM     10  C   UNL d   1      28.015 -18.029  -0.145  0.00  0.00     0.001 A 
ATOM     11  C   UNL d   1      27.677 -17.087  -1.111  0.00  0.00     0.013 A 
ATOM     12  C   UNL d   1      26.341 -16.667  -1.301  0.00  0.00    -0.012 A 
ATOM     13  C   UNL d   1      25.952 -15.740  -2.323  0.00  0.00     0.017 A 
ENDROOT
BRANCH   1  14
ATOM     14  C   UNL d   1      28.029 -14.985  -3.806  0.00  0.00     0.145 C 
BRANCH  14  15
ATOM     15  C   UNL d   1      28.285 -15.244  -5.280  0.00  0.00     0.236 C 
ATOM     16  O   UNL d   1      27.419 -15.148  -6.155  0.00  0.00    -0.272 OA
ATOM     17  N   UNL d   1      29.578 -15.566  -5.651  0.00  0.00    -0.287 N 
ATOM     18  H   UNL d   1      29.642 -15.898  -6.612  0.00  0.00     0.184 HD
BRANCH  17  19
ATOM     19  N   UNL d   1      30.487 -16.174  -4.760  0.00  0.00    -0.203 NA
ATOM     20  H   UNL d   1      31.413 -15.740  -4.720  0.00  0.00     0.153 HD
BRANCH  19  21
ATOM     21  C   UNL d   1      30.626 -17.580  -4.932  0.00  0.00     0.027 A 
ATOM     22  C   UNL d   1      31.019 -18.338  -3.818  0.00  0.00     0.025 A 
ATOM     23  C   UNL d   1      31.149 -19.729  -3.894  0.00  0.00     0.002 A 
ATOM     24  C   UNL d   1      30.859 -20.392  -5.083  0.00  0.00     0.000 A 
ATOM     25  C   UNL d   1      30.509 -19.656  -6.211  0.00  0.00     0.002 A 
ATOM     26  C   UNL d   1      30.414 -18.257  -6.142  0.00  0.00     0.025 A 
ENDBRANCH  19  21
ENDBRANCH  17  19
ENDBRANCH  14  15
ENDBRANCH   1  14
TORSDOF 4
ENDMDL
MODEL 6
REMARK VINA RESULT:    -6.951      3.423      7.353
REMARK INTER + INTRA:          -9.382
REMARK INTER:                  -8.145
REMARK INTRA:                  -1.237
REMARK CONF_INDEPENDENT:        1.193
REMARK UNBOUND:                -1.237
REMARK  4 active torsions:
REMARK  status: ('A' for Active; 'I' for Inactive)
REMARK    1  A    between atoms: C_2  and  C_3 
REMARK       I    between atoms: C_2  and  N_17 
REMARK    2  A    between atoms: C_3  and  C_4 
REMARK    3  A    between atoms: N_17  and  N_18 
REMARK    4  A    between atoms: N_18  and  C_19 
ROOT
ATOM      1  C   UNL d   1      26.843 -15.666  -3.032  0.00  0.00    -0.013 A 
ATOM      2  C   UNL d   1      28.211 -15.458  -3.022  0.00  0.00     0.151 A 
ATOM      3  O   UNL d   1      28.792 -16.038  -1.948  0.00  0.00    -0.321 OA
ATOM      4  C   UNL d   1      27.802 -16.625  -1.228  0.00  0.00     0.086 A 
ATOM      5  C   UNL d   1      28.005 -17.309  -0.032  0.00  0.00     0.039 A 
ATOM      6  C   UNL d   1      26.872 -17.829   0.595  0.00  0.00     0.015 A 
ATOM      7  C   UNL d   1      25.592 -17.684   0.039  0.00  0.00    -0.025 A 
ATOM      8  C   UNL d   1      24.467 -18.200   0.701  0.00  0.00     0.012 A 
ATOM      9  C   UNL d   1      23.185 -18.062   0.166  0.00  0.00     0.001 A 
ATOM     10  C   UNL d   1      23.007 -17.420  -1.049  0.00  0.00     0.001 A 
ATOM     11  C   UNL d   1      24.109 -16.908  -1.727  0.00  0.00     0.013 A 
ATOM     12  C   UNL d   1      25.415 -17.006  -1.198  0.00  0.00    -0.012 A 
ATOM     13  C   UNL d   1      26.564 -16.442  -1.845  0.00  0.00     0.017 A 
ENDROOT
BRANCH   1  14
ATOM     14  C   UNL d   1      25.902 -15.171  -4.087  0.00  0.00     0.145 C 
BRANCH  14  15
ATOM     15  C   UNL d   1      26.549 -14.373  -5.205  0.00  0.00     0.236 C 
ATOM     16  O   UNL d   1      27.407 -14.829  -5.967  0.00  0.00    -0.272 OA
ATOM     17  N   UNL d   1      26.111 -13.073  -5.391  0.00  0.00    -0.287 N 
ATOM     18  H   UNL d   1      26.704 -12.545  -6.029  0.00  0.00     0.184 HD
BRANCH  17  19
ATOM     19  N   UNL d   1      25.552 -12.311  -4.345  0.00  0.00    -0.203 NA
ATOM     20  H   UNL d   1      25.086 -11.448  -4.637  0.00  0.00     0.153 HD
BRANCH  19  21
ATOM     21  C   UNL d   1      26.450 -12.030  -3.277  0.00  0.00     0.027 A 
ATOM     22  C   UNL d   1      26.256 -12.708  -2.065  0.00  0.00     0.025 A 
ATOM     23  C   UNL d   1      27.113 -12.512  -0.976  0.00  0.00     0.002 A 
ATOM     24  C   UNL d   1      28.201 -11.652  -1.092  0.00  0.00     0.000 A 
ATOM     25  C   UNL d   1      28.387 -10.937  -2.271  0.00  0.00     0.002 A 
ATOM     26  C   UNL d   1      27.505 -11.108  -3.350  0.00  0.00     0.025 A 
ENDBRANCH  19  21
ENDBRANCH  17  19
ENDBRANCH  14  15
ENDBRANCH   1  14
TORSDOF 4
ENDMDL
MODEL 7
REMARK VINA RESULT:    -6.545      3.087      6.741
REMARK INTER + INTRA:          -9.717
REMARK INTER:                  -7.738
REMARK INTRA:                  -1.979
REMARK CONF_INDEPENDENT:        1.193
REMARK UNBOUND:                -1.979
REMARK  4 active torsions:
REMARK  status: ('A' for Active; 'I' for Inactive)
REMARK    1  A    between atoms: C_2  and  C_3 
REMARK       I    between atoms: C_2  and  N_17 
REMARK    2  A    between atoms: C_3  and  C_4 
REMARK    3  A    between atoms: N_17  and  N_18 
REMARK    4  A    between atoms: N_18  and  C_19 
ROOT
ATOM      1  C   UNL d   1      27.257 -15.558  -3.023  0.00  0.00    -0.013 A 
ATOM      2  C   UNL d   1      28.636 -15.453  -2.969  0.00  0.00     0.151 A 
ATOM      3  O   UNL d   1      29.145 -16.158  -1.935  0.00  0.00    -0.321 OA
ATOM      4  C   UNL d   1      28.097 -16.726  -1.285  0.00  0.00     0.086 A 
ATOM      5  C   UNL d   1      28.219 -17.517  -0.146  0.00  0.00     0.039 A 
ATOM      6  C   UNL d   1      27.035 -18.001   0.414  0.00  0.00     0.015 A 
ATOM      7  C   UNL d   1      25.784 -17.717  -0.154  0.00  0.00    -0.025 A 
ATOM      8  C   UNL d   1      24.608 -18.200   0.440  0.00  0.00     0.012 A 
ATOM      9  C   UNL d   1      23.353 -17.925  -0.107  0.00  0.00     0.001 A 
ATOM     10  C   UNL d   1      23.254 -17.176  -1.269  0.00  0.00     0.001 A 
ATOM     11  C   UNL d   1      24.407 -16.695  -1.880  0.00  0.00     0.013 A 
ATOM     12  C   UNL d   1      25.689 -16.931  -1.335  0.00  0.00    -0.012 A 
ATOM     13  C   UNL d   1      26.892 -16.403  -1.910  0.00  0.00     0.017 A 
ENDROOT
BRANCH   1  14
ATOM     14  C   UNL d   1      26.382 -14.911  -4.054  0.00  0.00     0.145 C 
BRANCH  14  15
ATOM     15  C   UNL d   1      25.261 -14.050  -3.500  0.00  0.00     0.236 C 
ATOM     16  O   UNL d   1      24.102 -14.075  -3.924  0.00  0.00    -0.272 OA
ATOM     17  N   UNL d   1      25.565 -13.225  -2.432  0.00  0.00    -0.287 N 
ATOM     18  H   UNL d   1      24.827 -12.554  -2.229  0.00  0.00     0.184 HD
BRANCH  17  19
ATOM     19  N   UNL d   1      26.871 -12.746  -2.199  0.00  0.00    -0.203 NA
ATOM     20  H   UNL d   1      27.542 -12.930  -2.950  0.00  0.00     0.153 HD
BRANCH  19  21
ATOM     21  C   UNL d   1      27.430 -13.145  -0.952  0.00  0.00     0.027 A 
ATOM     22  C   UNL d   1      26.558 -13.659   0.019  0.00  0.00     0.025 A 
ATOM     23  C   UNL d   1      27.031 -14.102   1.259  0.00  0.00     0.002 A 
ATOM     24  C   UNL d   1      28.394 -14.066   1.539  0.00  0.00     0.000 A 
ATOM     25  C   UNL d   1      29.271 -13.521   0.606  0.00  0.00     0.002 A 
ATOM     26  C   UNL d   1      28.790 -13.043  -0.623  0.00  0.00     0.025 A 
ENDBRANCH  19  21
ENDBRANCH  17  19
ENDBRANCH  14  15
ENDBRANCH   1  14
TORSDOF 4
ENDMDL
MODEL 8
REMARK VINA RESULT:    -6.421      2.991      4.485
REMARK INTER + INTRA:          -9.138
REMARK INTER:                  -7.615
REMARK INTRA:                  -1.523
REMARK CONF_INDEPENDENT:        1.193
REMARK UNBOUND:                -1.523
REMARK  4 active torsions:
REMARK  status: ('A' for Active; 'I' for Inactive)
REMARK    1  A    between atoms: C_2  and  C_3 
REMARK       I    between atoms: C_2  and  N_17 
REMARK    2  A    between atoms: C_3  and  C_4 
REMARK    3  A    between atoms: N_17  and  N_18 
REMARK    4  A    between atoms: N_18  and  C_19 
ROOT
ATOM      1  C   UNL d   1      27.184 -13.824  -2.455  0.00  0.00    -0.013 A 
ATOM      2  C   UNL d   1      26.641 -13.093  -1.413  0.00  0.00     0.151 A 
ATOM      3  O   UNL d   1      27.157 -13.470  -0.222  0.00  0.00    -0.321 OA
ATOM      4  C   UNL d   1      28.040 -14.471  -0.470  0.00  0.00     0.086 A 
ATOM      5  C   UNL d   1      28.763 -15.137   0.517  0.00  0.00     0.039 A 
ATOM      6  C   UNL d   1      29.610 -16.161   0.092  0.00  0.00     0.015 A 
ATOM      7  C   UNL d   1      29.739 -16.493  -1.265  0.00  0.00    -0.025 A 
ATOM      8  C   UNL d   1      30.583 -17.542  -1.664  0.00  0.00     0.012 A 
ATOM      9  C   UNL d   1      30.721 -17.890  -3.009  0.00  0.00     0.001 A 
ATOM     10  C   UNL d   1      30.030 -17.185  -3.981  0.00  0.00     0.001 A 
ATOM     11  C   UNL d   1      29.194 -16.136  -3.610  0.00  0.00     0.013 A 
ATOM     12  C   UNL d   1      29.011 -15.778  -2.256  0.00  0.00    -0.012 A 
ATOM     13  C   UNL d   1      28.116 -14.739  -1.836  0.00  0.00     0.017 A 
ENDROOT
BRANCH   1  14
ATOM     14  C   UNL d   1      26.842 -13.649  -3.903  0.00  0.00     0.145 C 
BRANCH  14  15
ATOM     15  C   UNL d   1      26.381 -14.908  -4.614  0.00  0.00     0.236 C 
ATOM     16  O   UNL d   1      26.699 -15.200  -5.771  0.00  0.00    -0.272 OA
ATOM     17  N   UNL d   1      25.592 -15.789  -3.895  0.00  0.00    -0.287 N 
ATOM     18  H   UNL d   1      25.176 -16.512  -4.478  0.00  0.00     0.184 HD
BRANCH  17  19
ATOM     19  N   UNL d   1      24.783 -15.367  -2.819  0.00  0.00    -0.203 NA
ATOM     20  H   UNL d   1      25.009 -14.443  -2.442  0.00  0.00     0.153 HD
BRANCH  19  21
ATOM     21  C   UNL d   1      24.685 -16.306  -1.754  0.00  0.00     0.027 A 
ATOM     22  C   UNL d   1      23.406 -16.597  -1.256  0.00  0.00     0.025 A 
ATOM     23  C   UNL d   1      23.220 -17.531  -0.231  0.00  0.00     0.002 A 
ATOM     24  C   UNL d   1      24.311 -18.215   0.295  0.00  0.00     0.000 A 
ATOM     25  C   UNL d   1      25.593 -17.911  -0.155  0.00  0.00     0.002 A 
ATOM     26  C   UNL d   1      25.781 -16.947  -1.157  0.00  0.00     0.025 A 
ENDBRANCH  19  21
ENDBRANCH  17  19
ENDBRANCH  14  15
ENDBRANCH   1  14
TORSDOF 4
ENDMDL
MODEL 9
REMARK VINA RESULT:    -5.918      3.578      6.705
REMARK INTER + INTRA:          -9.120
REMARK INTER:                  -7.111
REMARK INTRA:                  -2.009
REMARK CONF_INDEPENDENT:        1.193
REMARK UNBOUND:                -2.009
REMARK  4 active torsions:
REMARK  status: ('A' for Active; 'I' for Inactive)
REMARK    1  A    between atoms: C_2  and  C_3 
REMARK       I    between atoms: C_2  and  N_17 
REMARK    2  A    between atoms: C_3  and  C_4 
REMARK    3  A    between atoms: N_17  and  N_18 
REMARK    4  A    between atoms: N_18  and  C_19 
ROOT
ATOM      1  C   UNL d   1      28.478 -16.266  -2.076  0.00  0.00    -0.013 A 
ATOM      2  C   UNL d   1      28.880 -15.373  -3.055  0.00  0.00     0.151 A 
ATOM      3  O   UNL d   1      27.835 -14.667  -3.540  0.00  0.00    -0.321 OA
ATOM      4  C   UNL d   1      26.725 -15.102  -2.890  0.00  0.00     0.086 A 
ATOM      5  C   UNL d   1      25.440 -14.624  -3.133  0.00  0.00     0.039 A 
ATOM      6  C   UNL d   1      24.405 -15.200  -2.395  0.00  0.00     0.015 A 
ATOM      7  C   UNL d   1      24.650 -16.201  -1.443  0.00  0.00    -0.025 A 
ATOM      8  C   UNL d   1      23.588 -16.778  -0.729  0.00  0.00     0.012 A 
ATOM      9  C   UNL d   1      23.810 -17.778   0.219  0.00  0.00     0.001 A 
ATOM     10  C   UNL d   1      25.102 -18.208   0.482  0.00  0.00     0.001 A 
ATOM     11  C   UNL d   1      26.170 -17.645  -0.208  0.00  0.00     0.013 A 
ATOM     12  C   UNL d   1      25.975 -16.651  -1.193  0.00  0.00    -0.012 A 
ATOM     13  C   UNL d   1      27.049 -16.090  -1.960  0.00  0.00     0.017 A 
ENDROOT
BRANCH   1  14
ATOM     14  C   UNL d   1      29.388 -17.189  -1.324  0.00  0.00     0.145 C 
BRANCH  14  15
ATOM     15  C   UNL d   1      30.815 -16.698  -1.162  0.00  0.00     0.236 C 
ATOM     16  O   UNL d   1      31.759 -17.089  -1.855  0.00  0.00    -0.272 OA
ATOM     17  N   UNL d   1      31.045 -15.726  -0.204  0.00  0.00    -0.287 N 
ATOM     18  H   UNL d   1      32.037 -15.575  -0.026  0.00  0.00     0.184 HD
BRANCH  17  19
ATOM     19  N   UNL d   1      30.218 -15.575   0.928  0.00  0.00    -0.203 NA
ATOM     20  H   UNL d   1      29.901 -16.449   1.355  0.00  0.00     0.153 HD
BRANCH  19  21
ATOM     21  C   UNL d   1      29.105 -14.710   0.731  0.00  0.00     0.027 A 
ATOM     22  C   UNL d   1      29.306 -13.553  -0.037  0.00  0.00     0.025 A 
ATOM     23  C   UNL d   1      28.257 -12.666  -0.303  0.00  0.00     0.002 A 
ATOM     24  C   UNL d   1      26.977 -12.936   0.172  0.00  0.00     0.000 A 
ATOM     25  C   UNL d   1      26.765 -14.056   0.972  0.00  0.00     0.002 A 
ATOM     26  C   UNL d   1      27.827 -14.926   1.268  0.00  0.00     0.025 A 
ENDBRANCH  19  21
ENDBRANCH  17  19
ENDBRANCH  14  15
ENDBRANCH   1  14
TORSDOF 4
ENDMDL
