MODEL 1
REMARK VINA RESULT:    -8.250      0.000      0.000
REMARK INTER + INTRA:         -11.697
REMARK INTER:                 -10.338
REMARK INTRA:                  -1.359
REMARK CONF_INDEPENDENT:        2.088
REMARK UNBOUND:                -1.359
REMARK  7 active torsions:
REMARK  status: ('A' for Active; 'I' for Inactive)
REMARK    1  A    between atoms: O_2  and  C_3 
REMARK    2  A    between atoms: C_5  and  C_6 
REMARK    3  A    between atoms: C_21  and  O_22 
REMARK    4  A    between atoms: O_22  and  C_23 
REMARK    5  A    between atoms: C_23  and  C_24 
REMARK       I    between atoms: C_24  and  N_26 
REMARK    6  A    between atoms: N_26  and  C_27 
REMARK    7  A    between atoms: C_31  and  C_32 
ROOT
ATOM      1  C   UNL d   1      26.924 -12.022  -5.267  0.00  0.00     0.102 A 
ATOM      2  C   UNL d   1      26.235 -12.654  -4.158  0.00  0.00     0.050 A 
ATOM      3  C   UNL d   1      26.114 -14.063  -4.005  0.00  0.00    -0.013 A 
ATOM      4  C   UNL d   1      26.686 -14.806  -5.068  0.00  0.00     0.014 A 
ATOM      5  C   UNL d   1      27.406 -14.211  -6.120  0.00  0.00     0.040 A 
ATOM      6  C   UNL d   1      27.564 -12.828  -6.232  0.00  0.00     0.102 A 
ENDROOT
BRANCH   6   7
ATOM      7  O   UNL d   1      28.425 -12.530  -7.268  0.00  0.00    -0.339 OA
BRANCH   7   8
ATOM      8  C   UNL d   1      29.795 -12.669  -7.012  0.00  0.00     0.278 C 
BRANCH   8   9
ATOM      9  C   UNL d   1      30.418 -13.934  -6.439  0.00  0.00     0.246 C 
ATOM     10  O   UNL d   1      31.239 -13.896  -5.501  0.00  0.00    -0.271 OA
ATOM     11  N   UNL d   1      29.944 -15.116  -7.032  0.00  0.00    -0.325 N 
ATOM     12  H   UNL d   1      29.503 -15.081  -7.947  0.00  0.00     0.169 HD
BRANCH  11  13
ATOM     13  C   UNL d   1      30.282 -16.383  -6.517  0.00  0.00     0.035 A 
ATOM     14  C   UNL d   1      30.135 -16.704  -5.166  0.00  0.00     0.029 A 
ATOM     15  C   UNL d   1      30.399 -18.014  -4.739  0.00  0.00     0.003 A 
ATOM     16  C   UNL d   1      30.841 -18.982  -5.649  0.00  0.00     0.016 A 
ATOM     17  C   UNL d   1      31.058 -18.642  -6.989  0.00  0.00     0.050 A 
ATOM     18  C   UNL d   1      30.780 -17.340  -7.400  0.00  0.00     0.045 A 
BRANCH  17  19
ATOM     19  C   UNL d   1      31.594 -19.629  -7.991  0.00  0.00     0.417 C 
ATOM     20  F   UNL d   1      32.662 -19.129  -8.673  0.00  0.00    -0.166 F 
ATOM     21  F   UNL d   1      32.017 -20.789  -7.422  0.00  0.00    -0.166 F 
ATOM     22  F   UNL d   1      30.688 -19.988  -8.945  0.00  0.00    -0.166 F 
ENDBRANCH  17  19
ENDBRANCH  11  13
ENDBRANCH   8   9
ENDBRANCH   7   8
ENDBRANCH   6   7
BRANCH   1  23
ATOM     23  O   UNL d   1      27.123 -10.663  -5.108  0.00  0.00    -0.353 OA
ATOM     24  C   UNL d   1      26.384  -9.747  -5.923  0.00  0.00     0.210 C 
ENDBRANCH   1  23
BRANCH   3  25
ATOM     25  C   UNL d   1      25.711 -14.751  -2.639  0.00  0.00     0.216 C 
ATOM     26  N   UNL d   1      26.682 -15.775  -2.314  0.00  0.00    -0.364 N 
ATOM     27  C   UNL d   1      26.461 -16.662  -1.287  0.00  0.00     0.043 A 
ATOM     28  H   UNL d   1      27.350 -16.097  -2.986  0.00  0.00     0.162 HD
ATOM     29  C   UNL d   1      27.561 -17.309  -0.714  0.00  0.00     0.030 A 
ATOM     30  C   UNL d   1      25.186 -16.880  -0.805  0.00  0.00     0.026 A 
ATOM     31  C   UNL d   1      27.405 -18.211   0.330  0.00  0.00     0.003 A 
ATOM     32  C   UNL d   1      26.129 -18.493   0.792  0.00  0.00     0.012 A 
ATOM     33  C   UNL d   1      25.020 -17.860   0.210  0.00  0.00    -0.025 A 
ATOM     34  C   UNL d   1      23.736 -18.261   0.521  0.00  0.00    -0.005 C 
ATOM     35  C   UNL d   1      22.715 -17.796  -0.291  0.00  0.00     0.045 C 
ATOM     36  C   UNL d   1      22.847 -16.543  -0.895  0.00  0.00     0.013 C 
ATOM     37  C   UNL d   1      24.102 -16.173  -1.377  0.00  0.00     0.040 C 
ATOM     38  N   UNL d   1      24.332 -15.225  -2.401  0.00  0.00    -0.364 N 
ATOM     39  H   UNL d   1      23.550 -14.800  -2.874  0.00  0.00     0.162 HD
ENDBRANCH   3  25
TORSDOF 7
ENDMDL
MODEL 2
REMARK VINA RESULT:    -8.228      3.837      7.688
REMARK INTER + INTRA:         -11.672
REMARK INTER:                 -10.316
REMARK INTRA:                  -1.356
REMARK CONF_INDEPENDENT:        2.088
REMARK UNBOUND:                -1.356
REMARK  7 active torsions:
REMARK  status: ('A' for Active; 'I' for Inactive)
REMARK    1  A    between atoms: O_2  and  C_3 
REMARK    2  A    between atoms: C_5  and  C_6 
REMARK    3  A    between atoms: C_21  and  O_22 
REMARK    4  A    between atoms: O_22  and  C_23 
REMARK    5  A    between atoms: C_23  and  C_24 
REMARK       I    between atoms: C_24  and  N_26 
REMARK    6  A    between atoms: N_26  and  C_27 
REMARK    7  A    between atoms: C_31  and  C_32 
ROOT
ATOM      1  C   UNL d   1      28.432 -13.352  -6.247  0.00  0.00     0.102 A 
ATOM      2  C   UNL d   1      29.435 -14.395  -6.347  0.00  0.00     0.050 A 
ATOM      3  C   UNL d   1      29.905 -15.146  -5.234  0.00  0.00    -0.013 A 
ATOM      4  C   UNL d   1      29.342 -14.749  -3.996  0.00  0.00     0.014 A 
ATOM      5  C   UNL d   1      28.328 -13.778  -3.890  0.00  0.00     0.040 A 
ATOM      6  C   UNL d   1      27.837 -13.084  -4.997  0.00  0.00     0.102 A 
ENDROOT
BRANCH   6   7
ATOM      7  O   UNL d   1      26.760 -12.303  -4.629  0.00  0.00    -0.339 OA
BRANCH   7   8
ATOM      8  C   UNL d   1      25.519 -12.945  -4.527  0.00  0.00     0.278 C 
BRANCH   8   9
ATOM      9  C   UNL d   1      25.338 -14.332  -3.927  0.00  0.00     0.246 C 
ATOM     10  O   UNL d   1      25.161 -15.339  -4.641  0.00  0.00    -0.271 OA
ATOM     11  N   UNL d   1      25.439 -14.360  -2.526  0.00  0.00    -0.325 N 
ATOM     12  H   UNL d   1      25.310 -13.505  -1.993  0.00  0.00     0.169 HD
BRANCH  11  13
ATOM     13  C   UNL d   1      25.466 -15.576  -1.815  0.00  0.00     0.035 A 
ATOM     14  C   UNL d   1      26.650 -16.126  -1.320  0.00  0.00     0.029 A 
ATOM     15  C   UNL d   1      26.593 -17.290  -0.538  0.00  0.00     0.003 A 
ATOM     16  C   UNL d   1      25.366 -17.916  -0.287  0.00  0.00     0.016 A 
ATOM     17  C   UNL d   1      24.187 -17.406  -0.843  0.00  0.00     0.050 A 
ATOM     18  C   UNL d   1      24.260 -16.243  -1.608  0.00  0.00     0.045 A 
BRANCH  17  19
ATOM     19  C   UNL d   1      22.854 -18.079  -0.656  0.00  0.00     0.417 C 
ATOM     20  F   UNL d   1      22.696 -19.133  -1.505  0.00  0.00    -0.166 F 
ATOM     21  F   UNL d   1      22.678 -18.572   0.598  0.00  0.00    -0.166 F 
ATOM     22  F   UNL d   1      21.789 -17.260  -0.891  0.00  0.00    -0.166 F 
ENDBRANCH  17  19
ENDBRANCH  11  13
ENDBRANCH   8   9
ENDBRANCH   7   8
ENDBRANCH   6   7
BRANCH   1  23
ATOM     23  O   UNL d   1      27.954 -12.909  -7.467  0.00  0.00    -0.353 OA
ATOM     24  C   UNL d   1      27.570 -11.537  -7.612  0.00  0.00     0.210 C 
ENDBRANCH   1  23
BRANCH   3  25
ATOM     25  C   UNL d   1      30.693 -16.510  -5.385  0.00  0.00     0.216 C 
ATOM     26  N   UNL d   1      30.514 -17.020  -6.729  0.00  0.00    -0.364 N 
ATOM     27  C   UNL d   1      30.921 -18.289  -7.067  0.00  0.00     0.043 A 
ATOM     28  H   UNL d   1      29.821 -16.643  -7.345  0.00  0.00     0.162 HD
ATOM     29  C   UNL d   1      31.157 -18.578  -8.415  0.00  0.00     0.030 A 
ATOM     30  C   UNL d   1      31.132 -19.244  -6.092  0.00  0.00     0.026 A 
ATOM     31  C   UNL d   1      31.577 -19.839  -8.819  0.00  0.00     0.003 A 
ATOM     32  C   UNL d   1      31.737 -20.834  -7.867  0.00  0.00     0.012 A 
ATOM     33  C   UNL d   1      31.485 -20.554  -6.516  0.00  0.00    -0.025 A 
ATOM     34  C   UNL d   1      31.455 -21.568  -5.580  0.00  0.00    -0.005 C 
ATOM     35  C   UNL d   1      30.927 -21.264  -4.335  0.00  0.00     0.045 C 
ATOM     36  C   UNL d   1      31.063 -19.964  -3.841  0.00  0.00     0.013 C 
ATOM     37  C   UNL d   1      30.928 -18.903  -4.735  0.00  0.00     0.040 C 
ATOM     38  N   UNL d   1      30.555 -17.585  -4.382  0.00  0.00    -0.364 N 
ATOM     39  H   UNL d   1      30.314 -17.373  -3.426  0.00  0.00     0.162 HD
ENDBRANCH   3  25
TORSDOF 7
ENDMDL
MODEL 3
REMARK VINA RESULT:    -8.009      4.144      7.993
REMARK INTER + INTRA:         -12.384
REMARK INTER:                 -10.097
REMARK INTRA:                  -2.287
REMARK CONF_INDEPENDENT:        2.088
REMARK UNBOUND:                -2.287
REMARK  7 active torsions:
REMARK  status: ('A' for Active; 'I' for Inactive)
REMARK    1  A    between atoms: O_2  and  C_3 
REMARK    2  A    between atoms: C_5  and  C_6 
REMARK    3  A    between atoms: C_21  and  O_22 
REMARK    4  A    between atoms: O_22  and  C_23 
REMARK    5  A    between atoms: C_23  and  C_24 
REMARK       I    between atoms: C_24  and  N_26 
REMARK    6  A    between atoms: N_26  and  C_27 
REMARK    7  A    between atoms: C_31  and  C_32 
ROOT
ATOM      1  C   UNL d   1      26.893 -14.466  -4.488  0.00  0.00     0.102 A 
ATOM      2  C   UNL d   1      27.823 -15.444  -5.018  0.00  0.00     0.050 A 
ATOM      3  C   UNL d   1      29.226 -15.405  -4.787  0.00  0.00    -0.013 A 
ATOM      4  C   UNL d   1      29.650 -14.287  -4.027  0.00  0.00     0.014 A 
ATOM      5  C   UNL d   1      28.756 -13.361  -3.458  0.00  0.00     0.040 A 
ATOM      6  C   UNL d   1      27.375 -13.439  -3.649  0.00  0.00     0.102 A 
ENDROOT
BRANCH   6   7
ATOM      7  O   UNL d   1      26.734 -12.498  -2.870  0.00  0.00    -0.339 OA
BRANCH   7   8
ATOM      8  C   UNL d   1      26.798 -12.676  -1.482  0.00  0.00     0.278 C 
BRANCH   8   9
ATOM      9  C   UNL d   1      26.646 -14.029  -0.801  0.00  0.00     0.246 C 
ATOM     10  O   UNL d   1      27.102 -14.245   0.340  0.00  0.00    -0.271 OA
ATOM     11  N   UNL d   1      25.917 -14.963  -1.554  0.00  0.00    -0.325 N 
ATOM     12  H   UNL d   1      25.812 -14.833  -2.556  0.00  0.00     0.169 HD
BRANCH  11  13
ATOM     13  C   UNL d   1      25.535 -16.206  -1.013  0.00  0.00     0.035 A 
ATOM     14  C   UNL d   1      26.451 -17.072  -0.412  0.00  0.00     0.029 A 
ATOM     15  C   UNL d   1      25.988 -18.251   0.193  0.00  0.00     0.003 A 
ATOM     16  C   UNL d   1      24.626 -18.575   0.163  0.00  0.00     0.016 A 
ATOM     17  C   UNL d   1      23.717 -17.743  -0.501  0.00  0.00     0.050 A 
ATOM     18  C   UNL d   1      24.192 -16.571  -1.087  0.00  0.00     0.045 A 
BRANCH  17  19
ATOM     19  C   UNL d   1      22.256 -18.081  -0.616  0.00  0.00     0.417 C 
ATOM     20  F   UNL d   1      21.764 -18.606   0.541  0.00  0.00    -0.166 F 
ATOM     21  F   UNL d   1      21.480 -17.001  -0.902  0.00  0.00    -0.166 F 
ATOM     22  F   UNL d   1      21.981 -19.006  -1.580  0.00  0.00    -0.166 F 
ENDBRANCH  17  19
ENDBRANCH  11  13
ENDBRANCH   8   9
ENDBRANCH   7   8
ENDBRANCH   6   7
BRANCH   1  23
ATOM     23  O   UNL d   1      25.562 -14.810  -4.638  0.00  0.00    -0.353 OA
ATOM     24  C   UNL d   1      24.549 -13.868  -4.270  0.00  0.00     0.210 C 
ENDBRANCH   1  23
BRANCH   3  25
ATOM     25  C   UNL d   1      30.175 -16.647  -5.031  0.00  0.00     0.216 C 
ATOM     26  N   UNL d   1      30.190 -16.967  -6.444  0.00  0.00    -0.364 N 
ATOM     27  C   UNL d   1      30.770 -18.125  -6.904  0.00  0.00     0.043 A 
ATOM     28  H   UNL d   1      29.523 -16.573  -7.078  0.00  0.00     0.162 HD
ATOM     29  C   UNL d   1      31.170 -18.187  -8.243  0.00  0.00     0.030 A 
ATOM     30  C   UNL d   1      30.991 -19.189  -6.052  0.00  0.00     0.026 A 
ATOM     31  C   UNL d   1      31.769 -19.326  -8.765  0.00  0.00     0.003 A 
ATOM     32  C   UNL d   1      31.947 -20.431  -7.947  0.00  0.00     0.012 A 
ATOM     33  C   UNL d   1      31.531 -20.380  -6.608  0.00  0.00    -0.025 A 
ATOM     34  C   UNL d   1      31.524 -21.520  -5.829  0.00  0.00    -0.005 C 
ATOM     35  C   UNL d   1      30.844 -21.459  -4.624  0.00  0.00     0.045 C 
ATOM     36  C   UNL d   1      30.781 -20.239  -3.944  0.00  0.00     0.013 C 
ATOM     37  C   UNL d   1      30.616 -19.075  -4.693  0.00  0.00     0.040 C 
ATOM     38  N   UNL d   1      30.062 -17.868  -4.207  0.00  0.00    -0.364 N 
ATOM     39  H   UNL d   1      29.704 -17.825  -3.266  0.00  0.00     0.162 HD
ENDBRANCH   3  25
TORSDOF 7
ENDMDL
MODEL 4
REMARK VINA RESULT:    -7.771      4.108      8.255
REMARK INTER + INTRA:         -12.162
REMARK INTER:                  -9.859
REMARK INTRA:                  -2.302
REMARK CONF_INDEPENDENT:        2.088
REMARK UNBOUND:                -2.302
REMARK  7 active torsions:
REMARK  status: ('A' for Active; 'I' for Inactive)
REMARK    1  A    between atoms: O_2  and  C_3 
REMARK    2  A    between atoms: C_5  and  C_6 
REMARK    3  A    between atoms: C_21  and  O_22 
REMARK    4  A    between atoms: O_22  and  C_23 
REMARK    5  A    between atoms: C_23  and  C_24 
REMARK       I    between atoms: C_24  and  N_26 
REMARK    6  A    between atoms: N_26  and  C_27 
REMARK    7  A    between atoms: C_31  and  C_32 
ROOT
ATOM      1  C   UNL d   1      26.329 -14.050  -4.484  0.00  0.00     0.102 A 
ATOM      2  C   UNL d   1      27.084 -14.778  -5.485  0.00  0.00     0.050 A 
ATOM      3  C   UNL d   1      28.461 -14.546  -5.756  0.00  0.00    -0.013 A 
ATOM      4  C   UNL d   1      29.027 -13.495  -4.992  0.00  0.00     0.014 A 
ATOM      5  C   UNL d   1      28.323 -12.819  -3.978  0.00  0.00     0.040 A 
ATOM      6  C   UNL d   1      26.985 -13.091  -3.685  0.00  0.00     0.102 A 
ENDROOT
BRANCH   6   7
ATOM      7  O   UNL d   1      26.592 -12.389  -2.564  0.00  0.00    -0.339 OA
BRANCH   7   8
ATOM      8  C   UNL d   1      27.161 -12.775  -1.344  0.00  0.00     0.278 C 
BRANCH   8   9
ATOM      9  C   UNL d   1      26.972 -14.154  -0.727  0.00  0.00     0.246 C 
ATOM     10  O   UNL d   1      27.541 -14.485   0.332  0.00  0.00    -0.271 OA
ATOM     11  N   UNL d   1      26.074 -14.971  -1.434  0.00  0.00    -0.325 N 
ATOM     12  H   UNL d   1      25.861 -14.765  -2.406  0.00  0.00     0.169 HD
BRANCH  11  13
ATOM     13  C   UNL d   1      25.650 -16.213  -0.921  0.00  0.00     0.035 A 
ATOM     14  C   UNL d   1      26.531 -17.111  -0.316  0.00  0.00     0.029 A 
ATOM     15  C   UNL d   1      26.025 -18.287   0.260  0.00  0.00     0.003 A 
ATOM     16  C   UNL d   1      24.656 -18.575   0.197  0.00  0.00     0.016 A 
ATOM     17  C   UNL d   1      23.784 -17.710  -0.472  0.00  0.00     0.050 A 
ATOM     18  C   UNL d   1      24.300 -16.542  -1.029  0.00  0.00     0.045 A 
BRANCH  17  19
ATOM     19  C   UNL d   1      22.316 -18.009  -0.623  0.00  0.00     0.417 C 
ATOM     20  F   UNL d   1      22.078 -18.876  -1.646  0.00  0.00    -0.166 F 
ATOM     21  F   UNL d   1      21.771 -18.573   0.488  0.00  0.00    -0.166 F 
ATOM     22  F   UNL d   1      21.558 -16.908  -0.895  0.00  0.00    -0.166 F 
ENDBRANCH  17  19
ENDBRANCH  11  13
ENDBRANCH   8   9
ENDBRANCH   7   8
ENDBRANCH   6   7
BRANCH   1  23
ATOM     23  O   UNL d   1      25.079 -14.581  -4.222  0.00  0.00    -0.353 OA
ATOM     24  C   UNL d   1      23.998 -13.700  -3.896  0.00  0.00     0.210 C 
ENDBRANCH   1  23
BRANCH   3  25
ATOM     25  C   UNL d   1      29.368 -15.569  -6.553  0.00  0.00     0.216 C 
ATOM     26  N   UNL d   1      29.622 -16.729  -5.724  0.00  0.00    -0.364 N 
ATOM     27  C   UNL d   1      30.547 -17.676  -6.094  0.00  0.00     0.043 A 
ATOM     28  H   UNL d   1      29.416 -16.730  -4.745  0.00  0.00     0.162 HD
ATOM     29  C   UNL d   1      30.446 -18.959  -5.546  0.00  0.00     0.030 A 
ATOM     30  C   UNL d   1      31.530 -17.379  -7.017  0.00  0.00     0.026 A 
ATOM     31  C   UNL d   1      31.346 -19.962  -5.885  0.00  0.00     0.003 A 
ATOM     32  C   UNL d   1      32.379 -19.673  -6.763  0.00  0.00     0.012 A 
ATOM     33  C   UNL d   1      32.495 -18.383  -7.302  0.00  0.00    -0.025 A 
ATOM     34  C   UNL d   1      33.614 -18.019  -8.024  0.00  0.00    -0.005 C 
ATOM     35  C   UNL d   1      33.791 -16.669  -8.280  0.00  0.00     0.045 C 
ATOM     36  C   UNL d   1      32.665 -15.854  -8.422  0.00  0.00     0.013 C 
ATOM     37  C   UNL d   1      31.574 -16.085  -7.586  0.00  0.00     0.040 C 
ATOM     38  N   UNL d   1      30.596 -15.124  -7.243  0.00  0.00    -0.364 N 
ATOM     39  H   UNL d   1      30.689 -14.175  -7.571  0.00  0.00     0.162 HD
ENDBRANCH   3  25
TORSDOF 7
ENDMDL
MODEL 5
REMARK VINA RESULT:    -7.717      5.994      7.975
REMARK INTER + INTRA:         -11.985
REMARK INTER:                  -9.806
REMARK INTRA:                  -2.179
REMARK CONF_INDEPENDENT:        2.088
REMARK UNBOUND:                -2.179
REMARK  7 active torsions:
REMARK  status: ('A' for Active; 'I' for Inactive)
REMARK    1  A    between atoms: O_2  and  C_3 
REMARK    2  A    between atoms: C_5  and  C_6 
REMARK    3  A    between atoms: C_21  and  O_22 
REMARK    4  A    between atoms: O_22  and  C_23 
REMARK    5  A    between atoms: C_23  and  C_24 
REMARK       I    between atoms: C_24  and  N_26 
REMARK    6  A    between atoms: N_26  and  C_27 
REMARK    7  A    between atoms: C_31  and  C_32 
ROOT
ATOM      1  C   UNL d   1      28.644 -14.102  -1.762  0.00  0.00     0.102 A 
ATOM      2  C   UNL d   1      28.686 -13.889  -0.328  0.00  0.00     0.050 A 
ATOM      3  C   UNL d   1      27.893 -12.922   0.349  0.00  0.00    -0.013 A 
ATOM      4  C   UNL d   1      27.086 -12.139  -0.513  0.00  0.00     0.014 A 
ATOM      5  C   UNL d   1      26.992 -12.370  -1.898  0.00  0.00     0.040 A 
ATOM      6  C   UNL d   1      27.737 -13.358  -2.545  0.00  0.00     0.102 A 
ENDROOT
BRANCH   6   7
ATOM      7  O   UNL d   1      27.348 -13.459  -3.865  0.00  0.00    -0.339 OA
BRANCH   7   8
ATOM      8  C   UNL d   1      26.236 -14.266  -4.136  0.00  0.00     0.278 C 
BRANCH   8   9
ATOM      9  C   UNL d   1      25.452 -15.006  -3.060  0.00  0.00     0.246 C 
ATOM     10  O   UNL d   1      24.229 -14.825  -2.896  0.00  0.00    -0.271 OA
ATOM     11  N   UNL d   1      26.224 -15.923  -2.328  0.00  0.00    -0.325 N 
ATOM     12  H   UNL d   1      27.235 -15.834  -2.313  0.00  0.00     0.169 HD
BRANCH  11  13
ATOM     13  C   UNL d   1      25.632 -16.814  -1.411  0.00  0.00     0.035 A 
ATOM     14  C   UNL d   1      26.353 -17.399  -0.368  0.00  0.00     0.029 A 
ATOM     15  C   UNL d   1      25.679 -18.201   0.567  0.00  0.00     0.003 A 
ATOM     16  C   UNL d   1      24.306 -18.442   0.435  0.00  0.00     0.016 A 
ATOM     17  C   UNL d   1      23.599 -17.915  -0.650  0.00  0.00     0.050 A 
ATOM     18  C   UNL d   1      24.280 -17.112  -1.563  0.00  0.00     0.045 A 
BRANCH  17  19
ATOM     19  C   UNL d   1      22.138 -18.200  -0.871  0.00  0.00     0.417 C 
ATOM     20  F   UNL d   1      21.532 -18.649   0.264  0.00  0.00    -0.166 F 
ATOM     21  F   UNL d   1      21.435 -17.105  -1.267  0.00  0.00    -0.166 F 
ATOM     22  F   UNL d   1      21.902 -19.158  -1.813  0.00  0.00    -0.166 F 
ENDBRANCH  17  19
ENDBRANCH  11  13
ENDBRANCH   8   9
ENDBRANCH   7   8
ENDBRANCH   6   7
BRANCH   1  23
ATOM     23  O   UNL d   1      29.317 -15.234  -2.186  0.00  0.00    -0.353 OA
ATOM     24  C   UNL d   1      29.874 -16.124  -1.212  0.00  0.00     0.210 C 
ENDBRANCH   1  23
BRANCH   3  25
ATOM     25  C   UNL d   1      27.653 -12.945   1.913  0.00  0.00     0.216 C 
ATOM     26  N   UNL d   1      28.212 -11.745   2.500  0.00  0.00    -0.364 N 
ATOM     27  C   UNL d   1      28.322 -11.606   3.863  0.00  0.00     0.043 A 
ATOM     28  H   UNL d   1      28.825 -11.145   1.985  0.00  0.00     0.162 HD
ATOM     29  C   UNL d   1      28.423 -10.318   4.399  0.00  0.00     0.030 A 
ATOM     30  C   UNL d   1      28.293 -12.713   4.688  0.00  0.00     0.026 A 
ATOM     31  C   UNL d   1      28.530 -10.112   5.768  0.00  0.00     0.003 A 
ATOM     32  C   UNL d   1      28.565 -11.210   6.615  0.00  0.00     0.012 A 
ATOM     33  C   UNL d   1      28.482 -12.505   6.081  0.00  0.00    -0.025 A 
ATOM     34  C   UNL d   1      28.703 -13.610   6.878  0.00  0.00    -0.005 C 
ATOM     35  C   UNL d   1      28.885 -14.825   6.238  0.00  0.00     0.045 C 
ATOM     36  C   UNL d   1      28.235 -15.053   5.021  0.00  0.00     0.013 C 
ATOM     37  C   UNL d   1      28.144 -13.998   4.116  0.00  0.00     0.040 C 
ATOM     38  N   UNL d   1      27.982 -14.139   2.718  0.00  0.00    -0.364 N 
ATOM     39  H   UNL d   1      27.978 -15.058   2.305  0.00  0.00     0.162 HD
ENDBRANCH   3  25
TORSDOF 7
ENDMDL
MODEL 6
REMARK VINA RESULT:    -7.542      4.137      8.882
REMARK INTER + INTRA:         -11.601
REMARK INTER:                  -9.630
REMARK INTRA:                  -1.970
REMARK CONF_INDEPENDENT:        2.088
REMARK UNBOUND:                -1.970
REMARK  7 active torsions:
REMARK  status: ('A' for Active; 'I' for Inactive)
REMARK    1  A    between atoms: O_2  and  C_3 
REMARK    2  A    between atoms: C_5  and  C_6 
REMARK    3  A    between atoms: C_21  and  O_22 
REMARK    4  A    between atoms: O_22  and  C_23 
REMARK    5  A    between atoms: C_23  and  C_24 
REMARK       I    between atoms: C_24  and  N_26 
REMARK    6  A    between atoms: N_26  and  C_27 
REMARK    7  A    between atoms: C_31  and  C_32 
ROOT
ATOM      1  C   UNL d   1      28.687 -14.804  -3.427  0.00  0.00     0.102 A 
ATOM      2  C   UNL d   1      29.502 -15.815  -4.071  0.00  0.00     0.050 A 
ATOM      3  C   UNL d   1      29.526 -16.031  -5.477  0.00  0.00    -0.013 A 
ATOM      4  C   UNL d   1      28.637 -15.197  -6.200  0.00  0.00     0.014 A 
ATOM      5  C   UNL d   1      27.883 -14.174  -5.596  0.00  0.00     0.040 A 
ATOM      6  C   UNL d   1      27.906 -13.937  -4.221  0.00  0.00     0.102 A 
ENDROOT
BRANCH   6   7
ATOM      7  O   UNL d   1      27.191 -12.796  -3.922  0.00  0.00    -0.339 OA
BRANCH   7   8
ATOM      8  C   UNL d   1      25.815 -12.948  -3.712  0.00  0.00     0.278 C 
BRANCH   8   9
ATOM      9  C   UNL d   1      25.205 -14.121  -2.956  0.00  0.00     0.246 C 
ATOM     10  O   UNL d   1      24.041 -14.511  -3.177  0.00  0.00    -0.271 OA
ATOM     11  N   UNL d   1      26.087 -14.728  -2.047  0.00  0.00    -0.325 N 
ATOM     12  H   UNL d   1      26.900 -14.217  -1.714  0.00  0.00     0.169 HD
BRANCH  11  13
ATOM     13  C   UNL d   1      25.752 -15.926  -1.385  0.00  0.00     0.035 A 
ATOM     14  C   UNL d   1      26.712 -16.737  -0.777  0.00  0.00     0.029 A 
ATOM     15  C   UNL d   1      26.298 -17.865  -0.053  0.00  0.00     0.003 A 
ATOM     16  C   UNL d   1      24.940 -18.197   0.029  0.00  0.00     0.016 A 
ATOM     17  C   UNL d   1      23.985 -17.425  -0.641  0.00  0.00     0.050 A 
ATOM     18  C   UNL d   1      24.411 -16.301  -1.346  0.00  0.00     0.045 A 
BRANCH  17  19
ATOM     19  C   UNL d   1      22.522 -17.778  -0.638  0.00  0.00     0.417 C 
ATOM     20  F   UNL d   1      22.122 -18.273   0.567  0.00  0.00    -0.166 F 
ATOM     21  F   UNL d   1      21.716 -16.713  -0.896  0.00  0.00    -0.166 F 
ATOM     22  F   UNL d   1      22.186 -18.732  -1.552  0.00  0.00    -0.166 F 
ENDBRANCH  17  19
ENDBRANCH  11  13
ENDBRANCH   8   9
ENDBRANCH   7   8
ENDBRANCH   6   7
BRANCH   1  23
ATOM     23  O   UNL d   1      28.980 -14.608  -2.089  0.00  0.00    -0.353 OA
ATOM     24  C   UNL d   1      30.269 -14.985  -1.592  0.00  0.00     0.210 C 
ENDBRANCH   1  23
BRANCH   3  25
ATOM     25  C   UNL d   1      30.669 -16.849  -6.205  0.00  0.00     0.216 C 
ATOM     26  N   UNL d   1      31.336 -15.990  -7.162  0.00  0.00    -0.364 N 
ATOM     27  C   UNL d   1      32.229 -16.503  -8.073  0.00  0.00     0.043 A 
ATOM     28  H   UNL d   1      30.953 -15.106  -7.430  0.00  0.00     0.162 HD
ATOM     29  C   UNL d   1      33.168 -15.639  -8.648  0.00  0.00     0.030 A 
ATOM     30  C   UNL d   1      32.226 -17.848  -8.383  0.00  0.00     0.026 A 
ATOM     31  C   UNL d   1      34.101 -16.098  -9.569  0.00  0.00     0.003 A 
ATOM     32  C   UNL d   1      34.080 -17.432  -9.943  0.00  0.00     0.012 A 
ATOM     33  C   UNL d   1      33.130 -18.299  -9.383  0.00  0.00    -0.025 A 
ATOM     34  C   UNL d   1      32.966 -19.578  -9.875  0.00  0.00    -0.005 C 
ATOM     35  C   UNL d   1      31.836 -20.271  -9.474  0.00  0.00     0.045 C 
ATOM     36  C   UNL d   1      31.300 -20.017  -8.208  0.00  0.00     0.013 C 
ATOM     37  C   UNL d   1      31.293 -18.701  -7.748  0.00  0.00     0.040 C 
ATOM     38  N   UNL d   1      30.405 -18.185  -6.776  0.00  0.00    -0.364 N 
ATOM     39  H   UNL d   1      29.677 -18.772  -6.401  0.00  0.00     0.162 HD
ENDBRANCH   3  25
TORSDOF 7
ENDMDL
MODEL 7
REMARK VINA RESULT:    -7.116      5.668      7.556
REMARK INTER + INTRA:         -11.619
REMARK INTER:                  -9.204
REMARK INTRA:                  -2.416
REMARK CONF_INDEPENDENT:        2.088
REMARK UNBOUND:                -2.416
REMARK  7 active torsions:
REMARK  status: ('A' for Active; 'I' for Inactive)
REMARK    1  A    between atoms: O_2  and  C_3 
REMARK    2  A    between atoms: C_5  and  C_6 
REMARK    3  A    between atoms: C_21  and  O_22 
REMARK    4  A    between atoms: O_22  and  C_23 
REMARK    5  A    between atoms: C_23  and  C_24 
REMARK       I    between atoms: C_24  and  N_26 
REMARK    6  A    between atoms: N_26  and  C_27 
REMARK    7  A    between atoms: C_31  and  C_32 
ROOT
ATOM      1  C   UNL d   1      28.898 -14.389  -2.853  0.00  0.00     0.102 A 
ATOM      2  C   UNL d   1      29.341 -13.990  -1.531  0.00  0.00     0.050 A 
ATOM      3  C   UNL d   1      28.887 -12.816  -0.869  0.00  0.00    -0.013 A 
ATOM      4  C   UNL d   1      27.993 -12.033  -1.639  0.00  0.00     0.014 A 
ATOM      5  C   UNL d   1      27.510 -12.434  -2.899  0.00  0.00     0.040 A 
ATOM      6  C   UNL d   1      27.923 -13.616  -3.517  0.00  0.00     0.102 A 
ENDROOT
BRANCH   6   7
ATOM      7  O   UNL d   1      27.192 -13.831  -4.667  0.00  0.00    -0.339 OA
BRANCH   7   8
ATOM      8  C   UNL d   1      25.851 -14.200  -4.505  0.00  0.00     0.278 C 
BRANCH   8   9
ATOM      9  C   UNL d   1      25.309 -14.865  -3.246  0.00  0.00     0.246 C 
ATOM     10  O   UNL d   1      24.193 -14.568  -2.775  0.00  0.00    -0.271 OA
ATOM     11  N   UNL d   1      26.156 -15.854  -2.720  0.00  0.00    -0.325 N 
ATOM     12  H   UNL d   1      27.141 -15.861  -2.970  0.00  0.00     0.169 HD
BRANCH  11  13
ATOM     13  C   UNL d   1      25.744 -16.687  -1.661  0.00  0.00     0.035 A 
ATOM     14  C   UNL d   1      26.630 -17.146  -0.684  0.00  0.00     0.029 A 
ATOM     15  C   UNL d   1      26.134 -17.892   0.396  0.00  0.00     0.003 A 
ATOM     16  C   UNL d   1      24.772 -18.206   0.475  0.00  0.00     0.016 A 
ATOM     17  C   UNL d   1      23.896 -17.808  -0.541  0.00  0.00     0.050 A 
ATOM     18  C   UNL d   1      24.402 -17.058  -1.601  0.00  0.00     0.045 A 
BRANCH  17  19
ATOM     19  C   UNL d   1      22.438 -18.176  -0.534  0.00  0.00     0.417 C 
ATOM     20  F   UNL d   1      22.028 -18.601   0.694  0.00  0.00    -0.166 F 
ATOM     21  F   UNL d   1      21.624 -17.139  -0.868  0.00  0.00    -0.166 F 
ATOM     22  F   UNL d   1      22.124 -19.190  -1.392  0.00  0.00    -0.166 F 
ENDBRANCH  17  19
ENDBRANCH  11  13
ENDBRANCH   8   9
ENDBRANCH   7   8
ENDBRANCH   6   7
BRANCH   1  23
ATOM     23  O   UNL d   1      29.280 -15.668  -3.216  0.00  0.00    -0.353 OA
ATOM     24  C   UNL d   1      29.379 -16.682  -2.210  0.00  0.00     0.210 C 
ENDBRANCH   1  23
BRANCH   3  25
ATOM     25  C   UNL d   1      29.065 -12.580   0.686  0.00  0.00     0.216 C 
ATOM     26  N   UNL d   1      28.461 -13.681   1.409  0.00  0.00    -0.364 N 
ATOM     27  C   UNL d   1      28.294 -13.628   2.772  0.00  0.00     0.043 A 
ATOM     28  H   UNL d   1      27.859 -14.338   0.956  0.00  0.00     0.162 HD
ATOM     29  C   UNL d   1      28.149 -14.828   3.475  0.00  0.00     0.030 A 
ATOM     30  C   UNL d   1      28.309 -12.418   3.438  0.00  0.00     0.026 A 
ATOM     31  C   UNL d   1      27.983 -14.841   4.855  0.00  0.00     0.003 A 
ATOM     32  C   UNL d   1      27.934 -13.637   5.540  0.00  0.00     0.012 A 
ATOM     33  C   UNL d   1      28.061 -12.429   4.837  0.00  0.00    -0.025 A 
ATOM     34  C   UNL d   1      27.828 -11.222   5.464  0.00  0.00    -0.005 C 
ATOM     35  C   UNL d   1      27.694 -10.105   4.655  0.00  0.00     0.045 C 
ATOM     36  C   UNL d   1      28.395 -10.055   3.448  0.00  0.00     0.013 C 
ATOM     37  C   UNL d   1      28.504 -11.226   2.700  0.00  0.00     0.040 C 
ATOM     38  N   UNL d   1      28.724 -11.283   1.305  0.00  0.00    -0.364 N 
ATOM     39  H   UNL d   1      28.762 -10.429   0.769  0.00  0.00     0.162 HD
ENDBRANCH   3  25
TORSDOF 7
ENDMDL
MODEL 8
REMARK VINA RESULT:    -7.013      5.567      7.593
REMARK INTER + INTRA:         -11.787
REMARK INTER:                  -9.101
REMARK INTRA:                  -2.686
REMARK CONF_INDEPENDENT:        2.088
REMARK UNBOUND:                -2.686
REMARK  7 active torsions:
REMARK  status: ('A' for Active; 'I' for Inactive)
REMARK    1  A    between atoms: O_2  and  C_3 
REMARK    2  A    between atoms: C_5  and  C_6 
REMARK    3  A    between atoms: C_21  and  O_22 
REMARK    4  A    between atoms: O_22  and  C_23 
REMARK    5  A    between atoms: C_23  and  C_24 
REMARK       I    between atoms: C_24  and  N_26 
REMARK    6  A    between atoms: N_26  and  C_27 
REMARK    7  A    between atoms: C_31  and  C_32 
ROOT
ATOM      1  C   UNL d   1      25.993 -15.149  -3.582  0.00  0.00     0.102 A 
ATOM      2  C   UNL d   1      25.823 -14.955  -2.155  0.00  0.00     0.050 A 
ATOM      3  C   UNL d   1      26.886 -15.053  -1.215  0.00  0.00    -0.013 A 
ATOM      4  C   UNL d   1      28.130 -15.410  -1.791  0.00  0.00     0.014 A 
ATOM      5  C   UNL d   1      28.323 -15.546  -3.179  0.00  0.00     0.040 A 
ATOM      6  C   UNL d   1      27.282 -15.396  -4.098  0.00  0.00     0.102 A 
ENDROOT
BRANCH   6   7
ATOM      7  O   UNL d   1      27.775 -15.441  -5.386  0.00  0.00    -0.339 OA
BRANCH   7   8
ATOM      8  C   UNL d   1      28.464 -14.309  -5.839  0.00  0.00     0.278 C 
BRANCH   8   9
ATOM      9  C   UNL d   1      28.131 -12.890  -5.397  0.00  0.00     0.246 C 
ATOM     10  O   UNL d   1      29.021 -12.060  -5.125  0.00  0.00    -0.271 OA
ATOM     11  N   UNL d   1      26.754 -12.612  -5.377  0.00  0.00    -0.325 N 
ATOM     12  H   UNL d   1      26.085 -13.375  -5.338  0.00  0.00     0.169 HD
BRANCH  11  13
ATOM     13  C   UNL d   1      26.271 -11.307  -5.157  0.00  0.00     0.035 A 
ATOM     14  C   UNL d   1      25.580 -10.592  -6.137  0.00  0.00     0.029 A 
ATOM     15  C   UNL d   1      25.042  -9.335  -5.819  0.00  0.00     0.003 A 
ATOM     16  C   UNL d   1      25.228  -8.786  -4.544  0.00  0.00     0.016 A 
ATOM     17  C   UNL d   1      25.982  -9.471  -3.585  0.00  0.00     0.050 A 
ATOM     18  C   UNL d   1      26.500 -10.722  -3.913  0.00  0.00     0.045 A 
BRANCH  17  19
ATOM     19  C   UNL d   1      26.265  -8.894  -2.224  0.00  0.00     0.417 C 
ATOM     20  F   UNL d   1      26.799  -9.821  -1.381  0.00  0.00    -0.166 F 
ATOM     21  F   UNL d   1      27.147  -7.859  -2.257  0.00  0.00    -0.166 F 
ATOM     22  F   UNL d   1      25.155  -8.421  -1.589  0.00  0.00    -0.166 F 
ENDBRANCH  17  19
ENDBRANCH  11  13
ENDBRANCH   8   9
ENDBRANCH   7   8
ENDBRANCH   6   7
BRANCH   1  23
ATOM     23  O   UNL d   1      24.891 -14.787  -4.337  0.00  0.00    -0.353 OA
ATOM     24  C   UNL d   1      24.069 -13.700  -3.900  0.00  0.00     0.210 C 
ENDBRANCH   1  23
BRANCH   3  25
ATOM     25  C   UNL d   1      26.790 -14.480   0.257  0.00  0.00     0.216 C 
ATOM     26  N   UNL d   1      26.950 -13.041   0.221  0.00  0.00    -0.364 N 
ATOM     27  C   UNL d   1      27.113 -12.316   1.378  0.00  0.00     0.043 A 
ATOM     28  H   UNL d   1      27.281 -12.570  -0.597  0.00  0.00     0.162 HD
ATOM     29  C   UNL d   1      26.809 -10.950   1.359  0.00  0.00     0.030 A 
ATOM     30  C   UNL d   1      27.527 -12.930   2.543  0.00  0.00     0.026 A 
ATOM     31  C   UNL d   1      26.946 -10.165   2.497  0.00  0.00     0.003 A 
ATOM     32  C   UNL d   1      27.419 -10.745   3.664  0.00  0.00     0.012 A 
ATOM     33  C   UNL d   1      27.741 -12.110   3.683  0.00  0.00    -0.025 A 
ATOM     34  C   UNL d   1      28.386 -12.666   4.770  0.00  0.00    -0.005 C 
ATOM     35  C   UNL d   1      28.921 -13.934   4.607  0.00  0.00     0.045 C 
ATOM     36  C   UNL d   1      28.296 -14.825   3.730  0.00  0.00     0.013 C 
ATOM     37  C   UNL d   1      27.780 -14.322   2.537  0.00  0.00     0.040 C 
ATOM     38  N   UNL d   1      27.568 -15.078   1.361  0.00  0.00    -0.364 N 
ATOM     39  H   UNL d   1      27.845 -16.047   1.332  0.00  0.00     0.162 HD
ENDBRANCH   3  25
TORSDOF 7
ENDMDL
MODEL 9
REMARK VINA RESULT:    -6.867      5.891      8.333
REMARK INTER + INTRA:         -11.814
REMARK INTER:                  -8.955
REMARK INTRA:                  -2.859
REMARK CONF_INDEPENDENT:        2.088
REMARK UNBOUND:                -2.859
REMARK  7 active torsions:
REMARK  status: ('A' for Active; 'I' for Inactive)
REMARK    1  A    between atoms: O_2  and  C_3 
REMARK    2  A    between atoms: C_5  and  C_6 
REMARK    3  A    between atoms: C_21  and  O_22 
REMARK    4  A    between atoms: O_22  and  C_23 
REMARK    5  A    between atoms: C_23  and  C_24 
REMARK       I    between atoms: C_24  and  N_26 
REMARK    6  A    between atoms: N_26  and  C_27 
REMARK    7  A    between atoms: C_31  and  C_32 
ROOT
ATOM      1  C   UNL d   1      32.396 -14.117  -0.154  0.00  0.00     0.102 A 
ATOM      2  C   UNL d   1      31.259 -14.733  -0.811  0.00  0.00     0.050 A 
ATOM      3  C   UNL d   1      30.724 -15.997  -0.440  0.00  0.00    -0.013 A 
ATOM      4  C   UNL d   1      31.435 -16.636   0.605  0.00  0.00     0.014 A 
ATOM      5  C   UNL d   1      32.504 -16.029   1.290  0.00  0.00     0.040 A 
ATOM      6  C   UNL d   1      32.989 -14.764   0.951  0.00  0.00     0.102 A 
ENDROOT
BRANCH   6   7
ATOM      7  O   UNL d   1      33.937 -14.357   1.867  0.00  0.00    -0.339 OA
BRANCH   7   8
ATOM      8  C   UNL d   1      33.516 -13.459   2.856  0.00  0.00     0.278 C 
BRANCH   8   9
ATOM      9  C   UNL d   1      32.056 -13.103   3.102  0.00  0.00     0.246 C 
ATOM     10  O   UNL d   1      31.606 -11.967   2.857  0.00  0.00    -0.271 OA
ATOM     11  N   UNL d   1      31.284 -14.178   3.574  0.00  0.00    -0.325 N 
ATOM     12  H   UNL d   1      31.740 -14.976   4.006  0.00  0.00     0.169 HD
BRANCH  11  13
ATOM     13  C   UNL d   1      29.884 -14.080   3.696  0.00  0.00     0.035 A 
ATOM     14  C   UNL d   1      29.222 -14.311   4.903  0.00  0.00     0.029 A 
ATOM     15  C   UNL d   1      27.836 -14.101   4.977  0.00  0.00     0.003 A 
ATOM     16  C   UNL d   1      27.118 -13.700   3.844  0.00  0.00     0.016 A 
ATOM     17  C   UNL d   1      27.770 -13.538   2.617  0.00  0.00     0.050 A 
ATOM     18  C   UNL d   1      29.148 -13.739   2.563  0.00  0.00     0.045 A 
BRANCH  17  19
ATOM     19  C   UNL d   1      27.032 -13.171   1.358  0.00  0.00     0.417 C 
ATOM     20  F   UNL d   1      26.160 -14.147   0.979  0.00  0.00    -0.166 F 
ATOM     21  F   UNL d   1      26.298 -12.034   1.483  0.00  0.00    -0.166 F 
ATOM     22  F   UNL d   1      27.848 -12.976   0.282  0.00  0.00    -0.166 F 
ENDBRANCH  17  19
ENDBRANCH  11  13
ENDBRANCH   8   9
ENDBRANCH   7   8
ENDBRANCH   6   7
BRANCH   1  23
ATOM     23  O   UNL d   1      32.612 -12.799  -0.513  0.00  0.00    -0.353 OA
ATOM     24  C   UNL d   1      31.543 -11.855  -0.386  0.00  0.00     0.210 C 
ENDBRANCH   1  23
BRANCH   3  25
ATOM     25  C   UNL d   1      29.286 -16.488  -0.883  0.00  0.00     0.216 C 
ATOM     26  N   UNL d   1      28.491 -15.344  -1.280  0.00  0.00    -0.364 N 
ATOM     27  C   UNL d   1      27.142 -15.464  -1.514  0.00  0.00     0.043 A 
ATOM     28  H   UNL d   1      28.782 -14.408  -1.079  0.00  0.00     0.162 HD
ATOM     29  C   UNL d   1      26.513 -14.501  -2.311  0.00  0.00     0.030 A 
ATOM     30  C   UNL d   1      26.431 -16.534  -1.007  0.00  0.00     0.026 A 
ATOM     31  C   UNL d   1      25.154 -14.571  -2.590  0.00  0.00     0.003 A 
ATOM     32  C   UNL d   1      24.405 -15.601  -2.042  0.00  0.00     0.012 A 
ATOM     33  C   UNL d   1      25.028 -16.560  -1.228  0.00  0.00    -0.025 A 
ATOM     34  C   UNL d   1      24.277 -17.480  -0.524  0.00  0.00    -0.005 C 
ATOM     35  C   UNL d   1      24.926 -18.200   0.466  0.00  0.00     0.045 C 
ATOM     36  C   UNL d   1      26.284 -18.491   0.311  0.00  0.00     0.013 C 
ATOM     37  C   UNL d   1      27.108 -17.514  -0.244  0.00  0.00     0.040 C 
ATOM     38  N   UNL d   1      28.504 -17.417  -0.042  0.00  0.00    -0.364 N 
ATOM     39  H   UNL d   1      28.965 -18.059   0.584  0.00  0.00     0.162 HD
ENDBRANCH   3  25
TORSDOF 7
ENDMDL
