MODEL 1
REMARK VINA RESULT:   -22.531      0.000      0.000
REMARK INTER + INTRA:         -24.938
REMARK INTER:                 -24.022
REMARK INTRA:                  -0.916
REMARK CONF_INDEPENDENT:        1.492
REMARK UNBOUND:                -0.916
REMARK  5 active torsions:
REMARK  status: ('A' for Active; 'I' for Inactive)
REMARK       I    between atoms: C_2  and  N_3 
REMARK    1  A    between atoms: C_2  and  C_7 
REMARK    2  A    between atoms: N_3  and  C_4 
REMARK    3  A    between atoms: C_4  and  C_5 
REMARK    4  A    between atoms: C_5  and  O_6 
REMARK    5  A    between atoms: C_9  and  C_10 
ROOT
ATOM      1  C   UNL d   1      21.995 -18.090  -0.721  0.00  0.00     0.264 A 
ATOM      2  N   UNL d   1      21.618 -18.983   0.173  0.00  0.00    -0.195 NA
ATOM      3  C   UNL d   1      20.320 -19.268  -0.195  0.00  0.00     0.190 A 
ATOM      4  N   UNL d   1      19.900 -18.576  -1.270  0.00  0.00    -0.105 NA
ATOM      5  O   UNL d   1      21.005 -17.783  -1.612  0.00  0.00    -0.185 OA
ENDROOT
BRANCH   3   6
ATOM      6  C   UNL d   1      19.489 -20.188   0.570  0.00  0.00     0.026 A 
ATOM      7  C   UNL d   1      18.492 -20.958  -0.054  0.00  0.00     0.016 A 
ATOM      8  C   UNL d   1      17.689 -21.832   0.684  0.00  0.00     0.003 A 
ATOM      9  C   UNL d   1      17.834 -21.951   2.069  0.00  0.00     0.030 A 
ATOM     10  C   UNL d   1      18.837 -21.186   2.682  0.00  0.00     0.043 A 
ATOM     11  N   UNL d   1      19.213 -21.119   4.007  0.00  0.00    -0.365 N 
ATOM     12  C   UNL d   1      19.671 -20.316   1.967  0.00  0.00     0.006 A 
ATOM     13  C   UNL d   1      20.279 -20.273   4.151  0.00  0.00     0.089 A 
ATOM     14  H   UNL d   1      18.780 -21.641   4.757  0.00  0.00     0.165 HD
ATOM     15  C   UNL d   1      20.562 -19.739   2.917  0.00  0.00     0.031 A 
ENDBRANCH   3   6
BRANCH   1  16
ATOM     16  C   UNL d   1      23.316 -17.481  -0.831  0.00  0.00     0.297 C 
ATOM     17  O   UNL d   1      23.525 -16.447  -1.472  0.00  0.00    -0.264 OA
ATOM     18  N   UNL d   1      24.385 -18.144  -0.224  0.00  0.00    -0.352 N 
ATOM     19  H   UNL d   1      24.223 -19.030   0.241  0.00  0.00     0.162 HD
BRANCH  18  20
ATOM     20  C   UNL d   1      25.751 -17.661  -0.404  0.00  0.00     0.149 C 
BRANCH  20  21
ATOM     21  C   UNL d   1      26.690 -18.003   0.756  0.00  0.00     0.183 C 
BRANCH  21  22
ATOM     22  O   UNL d   1      27.263 -19.299   0.604  0.00  0.00    -0.399 OA
ATOM     23  H   UNL d   1      28.175 -19.274   0.943  0.00  0.00     0.209 HD
ENDBRANCH  21  22
ENDBRANCH  20  21
ENDBRANCH  18  20
ENDBRANCH   1  16
TORSDOF 5
ENDMDL
MODEL 2
REMARK VINA RESULT:   -21.916      1.620      2.534
REMARK INTER + INTRA:         -24.690
REMARK INTER:                 -23.407
REMARK INTRA:                  -1.283
REMARK CONF_INDEPENDENT:        1.492
REMARK UNBOUND:                -1.283
REMARK  5 active torsions:
REMARK  status: ('A' for Active; 'I' for Inactive)
REMARK       I    between atoms: C_2  and  N_3 
REMARK    1  A    between atoms: C_2  and  C_7 
REMARK    2  A    between atoms: N_3  and  C_4 
REMARK    3  A    between atoms: C_4  and  C_5 
REMARK    4  A    between atoms: C_5  and  O_6 
REMARK    5  A    between atoms: C_9  and  C_10 
ROOT
ATOM      1  C   UNL d   1      21.828 -17.469  -0.863  0.00  0.00     0.264 A 
ATOM      2  N   UNL d   1      21.774 -18.113   0.286  0.00  0.00    -0.195 NA
ATOM      3  C   UNL d   1      20.576 -18.792   0.210  0.00  0.00     0.190 A 
ATOM      4  N   UNL d   1      19.905 -18.575  -0.936  0.00  0.00    -0.105 NA
ATOM      5  O   UNL d   1      20.728 -17.686  -1.644  0.00  0.00    -0.185 OA
ENDROOT
BRANCH   3   6
ATOM      6  C   UNL d   1      20.083 -19.605   1.313  0.00  0.00     0.026 A 
ATOM      7  C   UNL d   1      20.672 -19.533   2.588  0.00  0.00     0.016 A 
ATOM      8  C   UNL d   1      20.205 -20.323   3.643  0.00  0.00     0.003 A 
ATOM      9  C   UNL d   1      19.155 -21.227   3.459  0.00  0.00     0.030 A 
ATOM     10  C   UNL d   1      18.569 -21.286   2.186  0.00  0.00     0.043 A 
ATOM     11  N   UNL d   1      17.520 -22.056   1.730  0.00  0.00    -0.365 N 
ATOM     12  C   UNL d   1      19.000 -20.493   1.115  0.00  0.00     0.006 A 
ATOM     13  C   UNL d   1      17.246 -21.753   0.425  0.00  0.00     0.089 A 
ATOM     14  H   UNL d   1      17.011 -22.729   2.289  0.00  0.00     0.165 HD
ATOM     15  C   UNL d   1      18.162 -20.816   0.009  0.00  0.00     0.031 A 
ENDBRANCH   3   6
BRANCH   1  16
ATOM     16  C   UNL d   1      22.925 -16.630  -1.333  0.00  0.00     0.297 C 
ATOM     17  O   UNL d   1      22.793 -15.426  -1.570  0.00  0.00    -0.264 OA
ATOM     18  N   UNL d   1      24.155 -17.248  -1.571  0.00  0.00    -0.352 N 
ATOM     19  H   UNL d   1      24.242 -18.251  -1.444  0.00  0.00     0.162 HD
BRANCH  18  20
ATOM     20  C   UNL d   1      25.257 -16.497  -2.164  0.00  0.00     0.149 C 
BRANCH  20  21
ATOM     21  C   UNL d   1      26.273 -15.973  -1.146  0.00  0.00     0.183 C 
BRANCH  21  22
ATOM     22  O   UNL d   1      25.665 -15.098  -0.200  0.00  0.00    -0.399 OA
ATOM     23  H   UNL d   1      24.779 -14.860  -0.525  0.00  0.00     0.209 HD
ENDBRANCH  21  22
ENDBRANCH  20  21
ENDBRANCH  18  20
ENDBRANCH   1  16
TORSDOF 5
ENDMDL
MODEL 3
REMARK VINA RESULT:   -21.850      1.417      2.146
REMARK INTER + INTRA:         -24.829
REMARK INTER:                 -23.341
REMARK INTRA:                  -1.488
REMARK CONF_INDEPENDENT:        1.492
REMARK UNBOUND:                -1.488
REMARK  5 active torsions:
REMARK  status: ('A' for Active; 'I' for Inactive)
REMARK       I    between atoms: C_2  and  N_3 
REMARK    1  A    between atoms: C_2  and  C_7 
REMARK    2  A    between atoms: N_3  and  C_4 
REMARK    3  A    between atoms: C_4  and  C_5 
REMARK    4  A    between atoms: C_5  and  O_6 
REMARK    5  A    between atoms: C_9  and  C_10 
ROOT
ATOM      1  C   UNL d   1      22.073 -18.302  -0.860  0.00  0.00     0.264 A 
ATOM      2  N   UNL d   1      21.691 -19.211   0.015  0.00  0.00    -0.195 NA
ATOM      3  C   UNL d   1      20.347 -19.362  -0.253  0.00  0.00     0.190 A 
ATOM      4  N   UNL d   1      19.905 -18.575  -1.251  0.00  0.00    -0.105 NA
ATOM      5  O   UNL d   1      21.046 -17.860  -1.645  0.00  0.00    -0.185 OA
ENDROOT
BRANCH   3   6
ATOM      6  C   UNL d   1      19.503 -20.251   0.532  0.00  0.00     0.026 A 
ATOM      7  C   UNL d   1      18.497 -21.024  -0.076  0.00  0.00     0.016 A 
ATOM      8  C   UNL d   1      17.680 -21.868   0.682  0.00  0.00     0.003 A 
ATOM      9  C   UNL d   1      17.820 -21.954   2.069  0.00  0.00     0.030 A 
ATOM     10  C   UNL d   1      18.830 -21.187   2.666  0.00  0.00     0.043 A 
ATOM     11  N   UNL d   1      19.204 -21.092   3.990  0.00  0.00    -0.365 N 
ATOM     12  C   UNL d   1      19.678 -20.347   1.933  0.00  0.00     0.006 A 
ATOM     13  C   UNL d   1      20.280 -20.257   4.117  0.00  0.00     0.089 A 
ATOM     14  H   UNL d   1      18.762 -21.590   4.752  0.00  0.00     0.165 HD
ATOM     15  C   UNL d   1      20.574 -19.758   2.870  0.00  0.00     0.031 A 
ENDBRANCH   3   6
BRANCH   1  16
ATOM     16  C   UNL d   1      23.430 -17.803  -1.052  0.00  0.00     0.297 C 
ATOM     17  O   UNL d   1      24.433 -18.456  -0.750  0.00  0.00    -0.264 OA
ATOM     18  N   UNL d   1      23.577 -16.506  -1.549  0.00  0.00    -0.352 N 
ATOM     19  H   UNL d   1      22.752 -15.945  -1.730  0.00  0.00     0.162 HD
BRANCH  18  20
ATOM     20  C   UNL d   1      24.900 -15.896  -1.645  0.00  0.00     0.149 C 
BRANCH  20  21
ATOM     21  C   UNL d   1      24.978 -14.730  -2.633  0.00  0.00     0.183 C 
BRANCH  21  22
ATOM     22  O   UNL d   1      23.709 -14.449  -3.216  0.00  0.00    -0.399 OA
ATOM     23  H   UNL d   1      23.842 -13.850  -3.971  0.00  0.00     0.209 HD
ENDBRANCH  21  22
ENDBRANCH  20  21
ENDBRANCH  18  20
ENDBRANCH   1  16
TORSDOF 5
ENDMDL
