MODEL 1
REMARK VINA RESULT:    -7.914      0.000      0.000
REMARK INTER + INTRA:          -9.736
REMARK INTER:                  -8.809
REMARK INTRA:                  -0.928
REMARK CONF_INDEPENDENT:        0.895
REMARK UNBOUND:                -0.928
REMARK  3 active torsions:
REMARK  status: ('A' for Active; 'I' for Inactive)
REMARK    1  A    between atoms: C_5  and  C_6 
REMARK       I    between atoms: C_6  and  N_8 
REMARK    2  A    between atoms: N_8  and  C_9 
REMARK    3  A    between atoms: C_14  and  C_15 
REMARK       I    between atoms: C_15  and  N_16 
ROOT
ATOM      1  C   UNL d   1      25.487 -14.427  -3.395  0.00  0.00     0.256 C 
ATOM      2  O   UNL d   1      24.383 -14.075  -3.816  0.00  0.00    -0.267 OA
ATOM      3  N   UNL d   1      26.677 -14.097  -4.034  0.00  0.00    -0.322 N 
ATOM      4  H   UNL d   1      27.516 -14.628  -3.865  0.00  0.00     0.169 HD
ENDROOT
BRANCH   3   5
ATOM      5  C   UNL d   1      26.764 -13.066  -5.002  0.00  0.00     0.050 A 
ATOM      6  C   UNL d   1      25.924 -11.949  -4.817  0.00  0.00     0.030 A 
ATOM      7  C   UNL d   1      25.904 -10.900  -5.741  0.00  0.00     0.002 A 
ATOM      8  C   UNL d   1      26.748 -10.938  -6.843  0.00  0.00     0.001 A 
ATOM      9  C   UNL d   1      27.575 -12.046  -7.047  0.00  0.00     0.019 A 
ATOM     10  C   UNL d   1      27.593 -13.130  -6.147  0.00  0.00     0.058 A 
BRANCH  10  11
ATOM     11  C   UNL d   1      28.380 -14.365  -6.500  0.00  0.00     0.251 C 
ATOM     12  N   UNL d   1      29.127 -14.365  -7.645  0.00  0.00    -0.366 N 
ATOM     13  H   UNL d   1      29.046 -13.700  -8.395  0.00  0.00     0.159 HD
ATOM     14  H   UNL d   1      29.664 -15.205  -7.807  0.00  0.00     0.159 HD
ATOM     15  O   UNL d   1      28.351 -15.413  -5.857  0.00  0.00    -0.268 OA
ENDBRANCH  10  11
ENDBRANCH   3   5
BRANCH   1  16
ATOM     16  C   UNL d   1      25.544 -15.315  -2.190  0.00  0.00     0.033 A 
ATOM     17  C   UNL d   1      26.644 -15.391  -1.333  0.00  0.00     0.017 A 
ATOM     18  C   UNL d   1      26.674 -16.347  -0.308  0.00  0.00     0.009 A 
ATOM     19  C   UNL d   1      25.599 -17.226  -0.102  0.00  0.00    -0.045 A 
ATOM     20  C   UNL d   1      25.699 -18.267   0.977  0.00  0.00     0.049 C 
ATOM     21  C   UNL d   1      24.472 -17.105  -0.925  0.00  0.00     0.017 A 
ATOM     22  C   UNL d   1      24.441 -16.153  -1.951  0.00  0.00     0.036 A 
ATOM     23 BR   UNL d   1      22.962 -18.243  -0.729  0.00  0.00    -0.051 Br
ENDBRANCH   1  16
TORSDOF 3
ENDMDL
MODEL 2
REMARK VINA RESULT:    -7.535      4.428      6.632
REMARK INTER + INTRA:          -9.012
REMARK INTER:                  -8.429
REMARK INTRA:                  -0.582
REMARK CONF_INDEPENDENT:        0.895
REMARK UNBOUND:                -0.582
REMARK  3 active torsions:
REMARK  status: ('A' for Active; 'I' for Inactive)
REMARK    1  A    between atoms: C_5  and  C_6 
REMARK       I    between atoms: C_6  and  N_8 
REMARK    2  A    between atoms: N_8  and  C_9 
REMARK    3  A    between atoms: C_14  and  C_15 
REMARK       I    between atoms: C_15  and  N_16 
ROOT
ATOM      1  C   UNL d   1      22.734 -17.488  -0.611  0.00  0.00     0.256 C 
ATOM      2  O   UNL d   1      22.703 -16.453   0.056  0.00  0.00    -0.267 OA
ATOM      3  N   UNL d   1      23.724 -17.749  -1.551  0.00  0.00    -0.322 N 
ATOM      4  H   UNL d   1      23.575 -18.426  -2.283  0.00  0.00     0.169 HD
ENDROOT
BRANCH   3   5
ATOM      5  C   UNL d   1      24.950 -17.037  -1.587  0.00  0.00     0.050 A 
ATOM      6  C   UNL d   1      25.157 -16.186  -2.692  0.00  0.00     0.030 A 
ATOM      7  C   UNL d   1      26.352 -15.476  -2.840  0.00  0.00     0.002 A 
ATOM      8  C   UNL d   1      27.340 -15.581  -1.871  0.00  0.00     0.001 A 
ATOM      9  C   UNL d   1      27.154 -16.433  -0.779  0.00  0.00     0.019 A 
ATOM     10  C   UNL d   1      25.971 -17.183  -0.619  0.00  0.00     0.058 A 
BRANCH  10  11
ATOM     11  C   UNL d   1      25.891 -18.203   0.486  0.00  0.00     0.251 C 
ATOM     12  N   UNL d   1      27.039 -18.822   0.895  0.00  0.00    -0.366 N 
ATOM     13  H   UNL d   1      27.912 -18.825   0.396  0.00  0.00     0.159 HD
ATOM     14  H   UNL d   1      26.928 -19.464   1.667  0.00  0.00     0.159 HD
ATOM     15  O   UNL d   1      24.843 -18.572   1.014  0.00  0.00    -0.268 OA
ENDBRANCH  10  11
ENDBRANCH   3   5
BRANCH   1  16
ATOM     16  C   UNL d   1      21.613 -18.470  -0.461  0.00  0.00     0.033 A 
ATOM     17  C   UNL d   1      20.798 -18.886  -1.516  0.00  0.00     0.017 A 
ATOM     18  C   UNL d   1      19.684 -19.700  -1.269  0.00  0.00     0.009 A 
ATOM     19  C   UNL d   1      19.376 -20.135   0.029  0.00  0.00    -0.045 A 
ATOM     20  C   UNL d   1      18.143 -20.964   0.252  0.00  0.00     0.049 C 
ATOM     21  C   UNL d   1      20.230 -19.765   1.076  0.00  0.00     0.017 A 
ATOM     22  C   UNL d   1      21.341 -18.950   0.832  0.00  0.00     0.036 A 
ATOM     23 BR   UNL d   1      19.905 -20.303   2.871  0.00  0.00    -0.051 Br
ENDBRANCH   1  16
TORSDOF 3
ENDMDL
MODEL 3
REMARK VINA RESULT:    -7.339      4.211      6.649
REMARK INTER + INTRA:          -9.396
REMARK INTER:                  -8.234
REMARK INTRA:                  -1.162
REMARK CONF_INDEPENDENT:        0.895
REMARK UNBOUND:                -1.162
REMARK  3 active torsions:
REMARK  status: ('A' for Active; 'I' for Inactive)
REMARK    1  A    between atoms: C_5  and  C_6 
REMARK       I    between atoms: C_6  and  N_8 
REMARK    2  A    between atoms: N_8  and  C_9 
REMARK    3  A    between atoms: C_14  and  C_15 
REMARK       I    between atoms: C_15  and  N_16 
ROOT
ATOM      1  C   UNL d   1      22.921 -17.737  -0.258  0.00  0.00     0.256 C 
ATOM      2  O   UNL d   1      22.803 -16.600   0.201  0.00  0.00    -0.267 OA
ATOM      3  N   UNL d   1      24.097 -18.197  -0.839  0.00  0.00    -0.322 N 
ATOM      4  H   UNL d   1      24.087 -18.987  -1.466  0.00  0.00     0.169 HD
ENDROOT
BRANCH   3   5
ATOM      5  C   UNL d   1      25.345 -17.551  -0.654  0.00  0.00     0.050 A 
ATOM      6  C   UNL d   1      26.160 -18.033   0.390  0.00  0.00     0.030 A 
ATOM      7  C   UNL d   1      27.389 -17.434   0.681  0.00  0.00     0.002 A 
ATOM      8  C   UNL d   1      27.833 -16.367  -0.089  0.00  0.00     0.001 A 
ATOM      9  C   UNL d   1      27.028 -15.869  -1.117  0.00  0.00     0.019 A 
ATOM     10  C   UNL d   1      25.772 -16.436  -1.413  0.00  0.00     0.058 A 
BRANCH  10  11
ATOM     11  C   UNL d   1      24.880 -15.759  -2.420  0.00  0.00     0.251 C 
ATOM     12  N   UNL d   1      23.652 -15.315  -2.019  0.00  0.00    -0.366 N 
ATOM     13  H   UNL d   1      23.185 -15.575  -1.168  0.00  0.00     0.159 HD
ATOM     14  H   UNL d   1      23.118 -14.833  -2.729  0.00  0.00     0.159 HD
ATOM     15  O   UNL d   1      25.155 -15.631  -3.613  0.00  0.00    -0.268 OA
ENDBRANCH  10  11
ENDBRANCH   3   5
BRANCH   1  16
ATOM     16  C   UNL d   1      21.721 -18.634  -0.264  0.00  0.00     0.033 A 
ATOM     17  C   UNL d   1      20.990 -18.947  -1.412  0.00  0.00     0.017 A 
ATOM     18  C   UNL d   1      19.800 -19.680  -1.312  0.00  0.00     0.009 A 
ATOM     19  C   UNL d   1      19.329 -20.138  -0.072  0.00  0.00    -0.045 A 
ATOM     20  C   UNL d   1      18.022 -20.876  -0.009  0.00  0.00     0.049 C 
ATOM     21  C   UNL d   1      20.097 -19.874   1.070  0.00  0.00     0.017 A 
ATOM     22  C   UNL d   1      21.284 -19.139   0.973  0.00  0.00     0.036 A 
ATOM     23 BR   UNL d   1      19.551 -20.450   2.798  0.00  0.00    -0.051 Br
ENDBRANCH   1  16
TORSDOF 3
ENDMDL
MODEL 4
REMARK VINA RESULT:    -7.098      1.408      2.492
REMARK INTER + INTRA:          -9.068
REMARK INTER:                  -7.993
REMARK INTRA:                  -1.076
REMARK CONF_INDEPENDENT:        0.895
REMARK UNBOUND:                -1.076
REMARK  3 active torsions:
REMARK  status: ('A' for Active; 'I' for Inactive)
REMARK    1  A    between atoms: C_5  and  C_6 
REMARK       I    between atoms: C_6  and  N_8 
REMARK    2  A    between atoms: N_8  and  C_9 
REMARK    3  A    between atoms: C_14  and  C_15 
REMARK       I    between atoms: C_15  and  N_16 
ROOT
ATOM      1  C   UNL d   1      26.419 -15.200  -4.001  0.00  0.00     0.256 C 
ATOM      2  O   UNL d   1      25.406 -15.190  -4.703  0.00  0.00    -0.267 OA
ATOM      3  N   UNL d   1      27.639 -14.692  -4.430  0.00  0.00    -0.322 N 
ATOM      4  H   UNL d   1      28.499 -14.975  -3.988  0.00  0.00     0.169 HD
ENDROOT
BRANCH   3   5
ATOM      5  C   UNL d   1      27.755 -13.823  -5.544  0.00  0.00     0.050 A 
ATOM      6  C   UNL d   1      28.689 -14.184  -6.536  0.00  0.00     0.030 A 
ATOM      7  C   UNL d   1      28.909 -13.370  -7.650  0.00  0.00     0.002 A 
ATOM      8  C   UNL d   1      28.173 -12.203  -7.805  0.00  0.00     0.001 A 
ATOM      9  C   UNL d   1      27.254 -11.825  -6.822  0.00  0.00     0.019 A 
ATOM     10  C   UNL d   1      27.035 -12.612  -5.674  0.00  0.00     0.058 A 
BRANCH  10  11
ATOM     11  C   UNL d   1      26.155 -12.078  -4.575  0.00  0.00     0.251 C 
ATOM     12  N   UNL d   1      24.930 -12.648  -4.375  0.00  0.00    -0.366 N 
ATOM     13  H   UNL d   1      24.455 -13.256  -5.021  0.00  0.00     0.159 HD
ATOM     14  H   UNL d   1      24.404 -12.273  -3.597  0.00  0.00     0.159 HD
ATOM     15  O   UNL d   1      26.438 -11.108  -3.871  0.00  0.00    -0.268 OA
ENDBRANCH  10  11
ENDBRANCH   3   5
BRANCH   1  16
ATOM     16  C   UNL d   1      26.351 -15.862  -2.658  0.00  0.00     0.033 A 
ATOM     17  C   UNL d   1      27.451 -16.013  -1.811  0.00  0.00     0.017 A 
ATOM     18  C   UNL d   1      27.336 -16.765  -0.634  0.00  0.00     0.009 A 
ATOM     19  C   UNL d   1      26.119 -17.360  -0.267  0.00  0.00    -0.045 A 
ATOM     20  C   UNL d   1      26.058 -18.200   0.978  0.00  0.00     0.049 C 
ATOM     21  C   UNL d   1      25.004 -17.156  -1.089  0.00  0.00     0.017 A 
ATOM     22  C   UNL d   1      25.117 -16.407  -2.266  0.00  0.00     0.036 A 
ATOM     23 BR   UNL d   1      23.308 -17.914  -0.682  0.00  0.00    -0.051 Br
ENDBRANCH   1  16
TORSDOF 3
ENDMDL
MODEL 5
REMARK VINA RESULT:    -7.021      2.976      6.884
REMARK INTER + INTRA:          -8.740
REMARK INTER:                  -7.916
REMARK INTRA:                  -0.824
REMARK CONF_INDEPENDENT:        0.895
REMARK UNBOUND:                -0.824
REMARK  3 active torsions:
REMARK  status: ('A' for Active; 'I' for Inactive)
REMARK    1  A    between atoms: C_5  and  C_6 
REMARK       I    between atoms: C_6  and  N_8 
REMARK    2  A    between atoms: N_8  and  C_9 
REMARK    3  A    between atoms: C_14  and  C_15 
REMARK       I    between atoms: C_15  and  N_16 
ROOT
ATOM      1  C   UNL d   1      25.067 -14.562  -3.082  0.00  0.00     0.256 C 
ATOM      2  O   UNL d   1      23.841 -14.450  -3.132  0.00  0.00    -0.267 OA
ATOM      3  N   UNL d   1      25.715 -15.328  -2.119  0.00  0.00    -0.322 N 
ATOM      4  H   UNL d   1      26.687 -15.170  -1.903  0.00  0.00     0.169 HD
ENDROOT
BRANCH   3   5
ATOM      5  C   UNL d   1      25.044 -16.305  -1.342  0.00  0.00     0.050 A 
ATOM      6  C   UNL d   1      23.639 -16.208  -1.276  0.00  0.00     0.030 A 
ATOM      7  C   UNL d   1      22.891 -17.097  -0.499  0.00  0.00     0.002 A 
ATOM      8  C   UNL d   1      23.534 -18.115   0.193  0.00  0.00     0.001 A 
ATOM      9  C   UNL d   1      24.927 -18.214   0.148  0.00  0.00     0.019 A 
ATOM     10  C   UNL d   1      25.708 -17.312  -0.603  0.00  0.00     0.058 A 
BRANCH  10  11
ATOM     11  C   UNL d   1      27.208 -17.366  -0.485  0.00  0.00     0.251 C 
ATOM     12  N   UNL d   1      27.777 -18.382   0.230  0.00  0.00    -0.366 N 
ATOM     13  H   UNL d   1      27.293 -18.990   0.868  0.00  0.00     0.159 HD
ATOM     14  H   UNL d   1      28.788 -18.388   0.238  0.00  0.00     0.159 HD
ATOM     15  O   UNL d   1      27.970 -16.514  -0.941  0.00  0.00    -0.268 OA
ENDBRANCH  10  11
ENDBRANCH   3   5
BRANCH   1  16
ATOM     16  C   UNL d   1      25.898 -13.775  -4.049  0.00  0.00     0.033 A 
ATOM     17  C   UNL d   1      25.636 -12.449  -4.397  0.00  0.00     0.017 A 
ATOM     18  C   UNL d   1      26.376 -11.827  -5.412  0.00  0.00     0.009 A 
ATOM     19  C   UNL d   1      27.407 -12.506  -6.081  0.00  0.00    -0.045 A 
ATOM     20  C   UNL d   1      28.138 -11.815  -7.197  0.00  0.00     0.049 C 
ATOM     21  C   UNL d   1      27.706 -13.816  -5.686  0.00  0.00     0.017 A 
ATOM     22  C   UNL d   1      26.966 -14.440  -4.675  0.00  0.00     0.036 A 
ATOM     23 BR   UNL d   1      29.084 -14.824  -6.524  0.00  0.00    -0.051 Br
ENDBRANCH   1  16
TORSDOF 3
ENDMDL
MODEL 6
REMARK VINA RESULT:    -6.900      3.110      6.957
REMARK INTER + INTRA:          -8.570
REMARK INTER:                  -7.795
REMARK INTRA:                  -0.775
REMARK CONF_INDEPENDENT:        0.895
REMARK UNBOUND:                -0.775
REMARK  3 active torsions:
REMARK  status: ('A' for Active; 'I' for Inactive)
REMARK    1  A    between atoms: C_5  and  C_6 
REMARK       I    between atoms: C_6  and  N_8 
REMARK    2  A    between atoms: N_8  and  C_9 
REMARK    3  A    between atoms: C_14  and  C_15 
REMARK       I    between atoms: C_15  and  N_16 
ROOT
ATOM      1  C   UNL d   1      25.174 -14.805  -3.197  0.00  0.00     0.256 C 
ATOM      2  O   UNL d   1      24.007 -14.449  -3.028  0.00  0.00    -0.267 OA
ATOM      3  N   UNL d   1      25.810 -15.721  -2.368  0.00  0.00    -0.322 N 
ATOM      4  H   UNL d   1      26.816 -15.769  -2.328  0.00  0.00     0.169 HD
ENDROOT
BRANCH   3   5
ATOM      5  C   UNL d   1      25.101 -16.574  -1.485  0.00  0.00     0.050 A 
ATOM      6  C   UNL d   1      23.695 -16.470  -1.497  0.00  0.00     0.030 A 
ATOM      7  C   UNL d   1      22.909 -17.237  -0.631  0.00  0.00     0.002 A 
ATOM      8  C   UNL d   1      23.515 -18.141   0.230  0.00  0.00     0.001 A 
ATOM      9  C   UNL d   1      24.908 -18.243   0.262  0.00  0.00     0.019 A 
ATOM     10  C   UNL d   1      25.726 -17.461  -0.578  0.00  0.00     0.058 A 
BRANCH  10  11
ATOM     11  C   UNL d   1      27.220 -17.496  -0.388  0.00  0.00     0.251 C 
ATOM     12  N   UNL d   1      27.781 -18.579   0.228  0.00  0.00    -0.366 N 
ATOM     13  H   UNL d   1      27.283 -19.272   0.761  0.00  0.00     0.159 HD
ATOM     14  H   UNL d   1      28.789 -18.563   0.290  0.00  0.00     0.159 HD
ATOM     15  O   UNL d   1      27.979 -16.577  -0.694  0.00  0.00    -0.268 OA
ENDBRANCH  10  11
ENDBRANCH   3   5
BRANCH   1  16
ATOM     16  C   UNL d   1      25.966 -14.163  -4.295  0.00  0.00     0.033 A 
ATOM     17  C   UNL d   1      27.001 -14.801  -4.982  0.00  0.00     0.017 A 
ATOM     18  C   UNL d   1      27.784 -14.087  -5.898  0.00  0.00     0.009 A 
ATOM     19  C   UNL d   1      27.536 -12.732  -6.167  0.00  0.00    -0.045 A 
ATOM     20  C   UNL d   1      28.434 -11.995  -7.120  0.00  0.00     0.049 C 
ATOM     21  C   UNL d   1      26.458 -12.112  -5.521  0.00  0.00     0.017 A 
ATOM     22  C   UNL d   1      25.677 -12.822  -4.603  0.00  0.00     0.036 A 
ATOM     23 BR   UNL d   1      26.033 -10.282  -5.815  0.00  0.00    -0.051 Br
ENDBRANCH   1  16
TORSDOF 3
ENDMDL
MODEL 7
REMARK VINA RESULT:    -6.804      2.114      3.308
REMARK INTER + INTRA:          -8.455
REMARK INTER:                  -7.699
REMARK INTRA:                  -0.756
REMARK CONF_INDEPENDENT:        0.895
REMARK UNBOUND:                -0.756
REMARK  3 active torsions:
REMARK  status: ('A' for Active; 'I' for Inactive)
REMARK    1  A    between atoms: C_5  and  C_6 
REMARK       I    between atoms: C_6  and  N_8 
REMARK    2  A    between atoms: N_8  and  C_9 
REMARK    3  A    between atoms: C_14  and  C_15 
REMARK       I    between atoms: C_15  and  N_16 
ROOT
ATOM      1  C   UNL d   1      25.509 -13.786  -3.495  0.00  0.00     0.256 C 
ATOM      2  O   UNL d   1      24.790 -14.122  -4.437  0.00  0.00    -0.267 OA
ATOM      3  N   UNL d   1      26.218 -12.591  -3.477  0.00  0.00    -0.322 N 
ATOM      4  H   UNL d   1      27.012 -12.472  -2.868  0.00  0.00     0.169 HD
ENDROOT
BRANCH   3   5
ATOM      5  C   UNL d   1      25.923 -11.514  -4.351  0.00  0.00     0.050 A 
ATOM      6  C   UNL d   1      25.871 -11.811  -5.728  0.00  0.00     0.030 A 
ATOM      7  C   UNL d   1      25.632 -10.809  -6.673  0.00  0.00     0.002 A 
ATOM      8  C   UNL d   1      25.406  -9.506  -6.252  0.00  0.00     0.001 A 
ATOM      9  C   UNL d   1      25.470  -9.195  -4.891  0.00  0.00     0.019 A 
ATOM     10  C   UNL d   1      25.739 -10.180  -3.919  0.00  0.00     0.058 A 
BRANCH  10  11
ATOM     11  C   UNL d   1      25.954  -9.760  -2.489  0.00  0.00     0.251 C 
ATOM     12  N   UNL d   1      25.266  -8.683  -2.007  0.00  0.00    -0.366 N 
ATOM     13  H   UNL d   1      24.780  -8.002  -2.566  0.00  0.00     0.159 HD
ATOM     14  H   UNL d   1      25.422  -8.476  -1.030  0.00  0.00     0.159 HD
ATOM     15  O   UNL d   1      26.765 -10.287  -1.727  0.00  0.00    -0.268 OA
ENDBRANCH  10  11
ENDBRANCH   3   5
BRANCH   1  16
ATOM     16  C   UNL d   1      25.690 -14.742  -2.356  0.00  0.00     0.033 A 
ATOM     17  C   UNL d   1      26.882 -14.886  -1.644  0.00  0.00     0.017 A 
ATOM     18  C   UNL d   1      27.013 -15.899  -0.685  0.00  0.00     0.009 A 
ATOM     19  C   UNL d   1      25.951 -16.771  -0.398  0.00  0.00    -0.045 A 
ATOM     20  C   UNL d   1      26.156 -17.874   0.602  0.00  0.00     0.049 C 
ATOM     21  C   UNL d   1      24.737 -16.585  -1.072  0.00  0.00     0.017 A 
ATOM     22  C   UNL d   1      24.605 -15.576  -2.032  0.00  0.00     0.036 A 
ATOM     23 BR   UNL d   1      23.235 -17.708  -0.756  0.00  0.00    -0.051 Br
ENDBRANCH   1  16
TORSDOF 3
ENDMDL
MODEL 8
REMARK VINA RESULT:    -6.517      3.293      6.993
REMARK INTER + INTRA:          -7.937
REMARK INTER:                  -7.412
REMARK INTRA:                  -0.525
REMARK CONF_INDEPENDENT:        0.895
REMARK UNBOUND:                -0.525
REMARK  3 active torsions:
REMARK  status: ('A' for Active; 'I' for Inactive)
REMARK    1  A    between atoms: C_5  and  C_6 
REMARK       I    between atoms: C_6  and  N_8 
REMARK    2  A    between atoms: N_8  and  C_9 
REMARK    3  A    between atoms: C_14  and  C_15 
REMARK       I    between atoms: C_15  and  N_16 
ROOT
ATOM      1  C   UNL d   1      27.925 -15.136  -4.938  0.00  0.00     0.256 C 
ATOM      2  O   UNL d   1      26.911 -15.575  -5.485  0.00  0.00    -0.267 OA
ATOM      3  N   UNL d   1      27.986 -14.857  -3.578  0.00  0.00    -0.322 N 
ATOM      4  H   UNL d   1      28.687 -14.232  -3.211  0.00  0.00     0.169 HD
ENDROOT
BRANCH   3   5
ATOM      5  C   UNL d   1      27.040 -15.362  -2.651  0.00  0.00     0.050 A 
ATOM      6  C   UNL d   1      27.496 -16.348  -1.753  0.00  0.00     0.030 A 
ATOM      7  C   UNL d   1      26.628 -16.939  -0.830  0.00  0.00     0.002 A 
ATOM      8  C   UNL d   1      25.303 -16.528  -0.771  0.00  0.00     0.001 A 
ATOM      9  C   UNL d   1      24.835 -15.562  -1.665  0.00  0.00     0.019 A 
ATOM     10  C   UNL d   1      25.681 -14.971  -2.625  0.00  0.00     0.058 A 
BRANCH  10  11
ATOM     11  C   UNL d   1      25.086 -14.058  -3.665  0.00  0.00     0.251 C 
ATOM     12  N   UNL d   1      25.196 -12.707  -3.496  0.00  0.00    -0.366 N 
ATOM     13  H   UNL d   1      25.451 -12.243  -2.641  0.00  0.00     0.159 HD
ATOM     14  H   UNL d   1      24.814 -12.148  -4.247  0.00  0.00     0.159 HD
ATOM     15  O   UNL d   1      24.443 -14.446  -4.640  0.00  0.00    -0.268 OA
ENDBRANCH  10  11
ENDBRANCH   3   5
BRANCH   1  16
ATOM     16  C   UNL d   1      29.114 -14.812  -5.790  0.00  0.00     0.033 A 
ATOM     17  C   UNL d   1      29.368 -13.545  -6.319  0.00  0.00     0.017 A 
ATOM     18  C   UNL d   1      30.426 -13.356  -7.220  0.00  0.00     0.009 A 
ATOM     19  C   UNL d   1      31.264 -14.419  -7.590  0.00  0.00    -0.045 A 
ATOM     20  C   UNL d   1      32.353 -14.179  -8.597  0.00  0.00     0.049 C 
ATOM     21  C   UNL d   1      31.042 -15.675  -7.010  0.00  0.00     0.017 A 
ATOM     22  C   UNL d   1      29.985 -15.866  -6.113  0.00  0.00     0.036 A 
ATOM     23 BR   UNL d   1      32.121 -17.181  -7.440  0.00  0.00    -0.051 Br
ENDBRANCH   1  16
TORSDOF 3
ENDMDL
MODEL 9
REMARK VINA RESULT:    -6.407      3.047      7.021
REMARK INTER + INTRA:          -8.049
REMARK INTER:                  -7.302
REMARK INTRA:                  -0.747
REMARK CONF_INDEPENDENT:        0.895
REMARK UNBOUND:                -0.747
REMARK  3 active torsions:
REMARK  status: ('A' for Active; 'I' for Inactive)
REMARK    1  A    between atoms: C_5  and  C_6 
REMARK       I    between atoms: C_6  and  N_8 
REMARK    2  A    between atoms: N_8  and  C_9 
REMARK    3  A    between atoms: C_14  and  C_15 
REMARK       I    between atoms: C_15  and  N_16 
ROOT
ATOM      1  C   UNL d   1      25.681 -14.622  -3.553  0.00  0.00     0.256 C 
ATOM      2  O   UNL d   1      25.314 -15.573  -4.244  0.00  0.00    -0.267 OA
ATOM      3  N   UNL d   1      25.659 -14.647  -2.163  0.00  0.00    -0.322 N 
ATOM      4  H   UNL d   1      25.665 -13.791  -1.632  0.00  0.00     0.169 HD
ENDROOT
BRANCH   3   5
ATOM      5  C   UNL d   1      25.549 -15.851  -1.422  0.00  0.00     0.050 A 
ATOM      6  C   UNL d   1      24.395 -16.628  -1.643  0.00  0.00     0.030 A 
ATOM      7  C   UNL d   1      24.173 -17.809  -0.928  0.00  0.00     0.002 A 
ATOM      8  C   UNL d   1      25.119 -18.246  -0.011  0.00  0.00     0.001 A 
ATOM      9  C   UNL d   1      26.262 -17.477   0.229  0.00  0.00     0.019 A 
ATOM     10  C   UNL d   1      26.495 -16.267  -0.456  0.00  0.00     0.058 A 
BRANCH  10  11
ATOM     11  C   UNL d   1      27.657 -15.402  -0.043  0.00  0.00     0.251 C 
ATOM     12  N   UNL d   1      28.712 -15.981   0.603  0.00  0.00    -0.366 N 
ATOM     13  H   UNL d   1      28.711 -16.895   1.024  0.00  0.00     0.159 HD
ATOM     14  H   UNL d   1      29.479 -15.358   0.818  0.00  0.00     0.159 HD
ATOM     15  O   UNL d   1      27.699 -14.181  -0.191  0.00  0.00    -0.268 OA
ENDBRANCH  10  11
ENDBRANCH   3   5
BRANCH   1  16
ATOM     16  C   UNL d   1      26.092 -13.355  -4.239  0.00  0.00     0.033 A 
ATOM     17  C   UNL d   1      25.574 -12.097  -3.923  0.00  0.00     0.017 A 
ATOM     18  C   UNL d   1      25.906 -10.982  -4.703  0.00  0.00     0.009 A 
ATOM     19  C   UNL d   1      26.778 -11.093  -5.797  0.00  0.00    -0.045 A 
ATOM     20  C   UNL d   1      27.064  -9.879  -6.635  0.00  0.00     0.049 C 
ATOM     21  C   UNL d   1      27.342 -12.345  -6.074  0.00  0.00     0.017 A 
ATOM     22  C   UNL d   1      27.010 -13.461  -5.298  0.00  0.00     0.036 A 
ATOM     23 BR   UNL d   1      28.537 -12.604  -7.530  0.00  0.00    -0.051 Br
ENDBRANCH   1  16
TORSDOF 3
ENDMDL
