MODEL 1
REMARK VINA RESULT:    -8.693      0.000      0.000
REMARK INTER + INTRA:         -13.468
REMARK INTER:                 -11.079
REMARK INTRA:                  -2.389
REMARK CONF_INDEPENDENT:        2.386
REMARK UNBOUND:                -2.389
REMARK  8 active torsions:
REMARK  status: ('A' for Active; 'I' for Inactive)
REMARK    1  A    between atoms: CB_2  and  CA_4 
REMARK    2  A    between atoms: CA_4  and  N_5 
REMARK    3  A    between atoms: CA_4  and  C_31 
REMARK       I    between atoms: N_5  and  C_6 
REMARK    4  A    between atoms: C_6  and  C_8 
REMARK    5  A    between atoms: C_8  and  C_9 
REMARK    6  A    between atoms: C_8  and  N_19 
REMARK    7  A    between atoms: C_9  and  C_10 
REMARK    8  A    between atoms: C_29  and  O_30 
ROOT
ATOM      1  C   UNK d   0      28.033 -13.529   1.456  0.00  0.00     0.187 C 
ENDROOT
BRANCH   1   2
ATOM      2  C   UNK d   0      27.862 -12.073   0.977  0.00  0.00     0.241 C 
ATOM      3  N   VAL d   1      27.377 -11.116   1.864  0.00  0.00    -0.344 N 
ATOM      4  H   VAL d   1      26.860 -11.390   2.693  0.00  0.00     0.163 HD
ATOM      5  O   UNK d   0      28.133 -11.785  -0.184  0.00  0.00    -0.271 OA
BRANCH   3   6
ATOM      6  CA  VAL d   1      27.097  -9.714   1.378  0.00  0.00     0.189 C 
BRANCH   6   7
ATOM      7  CB  VAL d   1      28.439  -8.971   1.476  0.00  0.00     0.010 C 
ATOM      8  CG1 VAL d   1      29.368  -9.597   2.511  0.00  0.00     0.012 C 
ATOM      9  CG2 VAL d   1      29.204  -8.912   0.170  0.00  0.00     0.012 C 
ENDBRANCH   6   7
BRANCH   6  10
ATOM     10  C   VAL d   1      25.918  -8.937   2.124  0.00  0.00     0.197 C 
ATOM     11  O   VAL d   1      25.491  -7.886   1.568  0.00  0.00    -0.646 OA
ATOM     12  OXT VAL d   1      25.531  -9.420   3.228  0.00  0.00    -0.646 OA
ENDBRANCH   6  10
ENDBRANCH   3   6
ENDBRANCH   1   2
BRANCH   1  13
ATOM     13  C   UNK d   0      27.029 -13.661   2.644  0.00  0.00     0.076 C 
BRANCH  13  14
ATOM     14  C   UNK d   0      27.634 -13.947   3.993  0.00  0.00    -0.028 C 
ATOM     15  C   UNK d   0      28.211 -15.122   4.404  0.00  0.00     0.096 C 
ATOM     16  N   UNK d   0      28.328 -15.111   5.765  0.00  0.00    -0.365 N 
ATOM     17  C   UNK d   0      28.414 -13.798   6.137  0.00  0.00     0.042 A 
ATOM     18  H   UNK d   0      28.530 -15.950   6.311  0.00  0.00     0.165 HD
ATOM     19  C   UNK d   0      28.872 -13.227   7.321  0.00  0.00     0.030 A 
ATOM     20  C   UNK d   0      27.991 -13.047   5.031  0.00  0.00    -0.002 A 
ATOM     21  C   UNK d   0      28.951 -11.834   7.347  0.00  0.00     0.002 A 
ATOM     22  C   UNK d   0      28.563 -11.059   6.251  0.00  0.00     0.001 A 
ATOM     23  C   UNK d   0      28.060 -11.650   5.094  0.00  0.00     0.014 A 
ENDBRANCH  13  14
ENDBRANCH   1  13
BRANCH   1  24
ATOM     24  N   UNK d   0      27.787 -14.583   0.364  0.00  0.00    -0.295 N 
ATOM     25  C   UNK d   0      26.560 -14.590  -0.337  0.00  0.00     0.259 C 
ATOM     26  O   UNK d   0      26.026 -13.613  -0.814  0.00  0.00    -0.267 OA
ATOM     27  C   UNK d   0      25.894 -15.932  -0.472  0.00  0.00     0.053 A 
ATOM     28  C   UNK d   0      24.598 -16.051  -0.979  0.00  0.00     0.019 A 
ATOM     29  C   UNK d   0      26.571 -17.057   0.019  0.00  0.00     0.027 A 
ATOM     30  C   UNK d   0      23.979 -17.305  -0.994  0.00  0.00     0.001 A 
ATOM     31  C   UNK d   0      24.657 -18.430  -0.517  0.00  0.00     0.002 A 
ATOM     32  C   UNK d   0      25.948 -18.305  -0.006  0.00  0.00     0.024 A 
ATOM     33  N   UNK d   0      27.797 -16.879   0.648  0.00  0.00    -0.248 NA
ATOM     34  C   UNK d   0      28.535 -15.793   0.093  0.00  0.00     0.308 C 
ATOM     35  H   UNK d   0      28.374 -17.685   0.843  0.00  0.00     0.132 HD
BRANCH  34  36
ATOM     36  O   UNK d   0      29.802 -15.970   0.606  0.00  0.00    -0.363 OA
ATOM     37  H   UNK d   0      29.657 -16.594   1.316  0.00  0.00     0.213 HD
ENDBRANCH  34  36
ENDBRANCH   1  24
TORSDOF 8
ENDMDL
MODEL 2
REMARK VINA RESULT:    -7.799      2.967      4.691
REMARK INTER + INTRA:         -12.888
REMARK INTER:                 -10.185
REMARK INTRA:                  -2.703
REMARK CONF_INDEPENDENT:        2.386
REMARK UNBOUND:                -2.703
REMARK  8 active torsions:
REMARK  status: ('A' for Active; 'I' for Inactive)
REMARK    1  A    between atoms: CB_2  and  CA_4 
REMARK    2  A    between atoms: CA_4  and  N_5 
REMARK    3  A    between atoms: CA_4  and  C_31 
REMARK       I    between atoms: N_5  and  C_6 
REMARK    4  A    between atoms: C_6  and  C_8 
REMARK    5  A    between atoms: C_8  and  C_9 
REMARK    6  A    between atoms: C_8  and  N_19 
REMARK    7  A    between atoms: C_9  and  C_10 
REMARK    8  A    between atoms: C_29  and  O_30 
ROOT
ATOM      1  C   UNK d   0      27.911 -14.418  -1.130  0.00  0.00     0.187 C 
ENDROOT
BRANCH   1   2
ATOM      2  C   UNK d   0      27.958 -13.503  -2.371  0.00  0.00     0.241 C 
ATOM      3  N   VAL d   1      27.531 -13.999  -3.600  0.00  0.00    -0.344 N 
ATOM      4  H   VAL d   1      27.480 -14.998  -3.768  0.00  0.00     0.163 HD
ATOM      5  O   UNK d   0      28.393 -12.361  -2.261  0.00  0.00    -0.271 OA
BRANCH   3   6
ATOM      6  CA  VAL d   1      27.679 -13.153  -4.843  0.00  0.00     0.189 C 
BRANCH   6   7
ATOM      7  CB  VAL d   1      26.394 -12.312  -4.919  0.00  0.00     0.010 C 
ATOM      8  CG1 VAL d   1      25.155 -13.120  -4.551  0.00  0.00     0.012 C 
ATOM      9  CG2 VAL d   1      26.409 -11.088  -4.026  0.00  0.00     0.012 C 
ENDBRANCH   6   7
BRANCH   6  10
ATOM     10  C   VAL d   1      27.965 -13.947  -6.199  0.00  0.00     0.197 C 
ATOM     11  O   VAL d   1      28.320 -13.257  -7.196  0.00  0.00    -0.646 OA
ATOM     12  OXT VAL d   1      27.780 -15.200  -6.172  0.00  0.00    -0.646 OA
ENDBRANCH   6  10
ENDBRANCH   3   6
ENDBRANCH   1   2
BRANCH   1  13
ATOM     13  C   UNK d   0      27.100 -13.594  -0.080  0.00  0.00     0.076 C 
BRANCH  13  14
ATOM     14  C   UNK d   0      27.503 -13.777   1.359  0.00  0.00    -0.028 C 
ATOM     15  C   UNK d   0      28.215 -14.825   1.888  0.00  0.00     0.096 C 
ATOM     16  N   UNK d   0      28.088 -14.811   3.248  0.00  0.00    -0.365 N 
ATOM     17  C   UNK d   0      27.852 -13.511   3.603  0.00  0.00     0.042 A 
ATOM     18  H   UNK d   0      28.348 -15.602   3.837  0.00  0.00     0.165 HD
ATOM     19  C   UNK d   0      27.977 -12.880   4.838  0.00  0.00     0.030 A 
ATOM     20  C   UNK d   0      27.492 -12.840   2.426  0.00  0.00    -0.002 A 
ATOM     21  C   UNK d   0      27.780 -11.499   4.849  0.00  0.00     0.002 A 
ATOM     22  C   UNK d   0      27.448 -10.797   3.687  0.00  0.00     0.001 A 
ATOM     23  C   UNK d   0      27.279 -11.458   2.472  0.00  0.00     0.014 A 
ENDBRANCH  13  14
ENDBRANCH   1  13
BRANCH   1  24
ATOM     24  N   UNK d   0      27.291 -15.800  -1.391  0.00  0.00    -0.295 N 
ATOM     25  C   UNK d   0      25.974 -15.892  -1.897  0.00  0.00     0.259 C 
ATOM     26  O   UNK d   0      25.540 -15.248  -2.826  0.00  0.00    -0.267 OA
ATOM     27  C   UNK d   0      25.072 -16.869  -1.193  0.00  0.00     0.053 A 
ATOM     28  C   UNK d   0      23.705 -16.926  -1.473  0.00  0.00     0.019 A 
ATOM     29  C   UNK d   0      25.622 -17.658  -0.174  0.00  0.00     0.027 A 
ATOM     30  C   UNK d   0      22.887 -17.777  -0.725  0.00  0.00     0.001 A 
ATOM     31  C   UNK d   0      23.434 -18.575   0.283  0.00  0.00     0.002 A 
ATOM     32  C   UNK d   0      24.798 -18.509   0.563  0.00  0.00     0.024 A 
ATOM     33  N   UNK d   0      26.955 -17.470   0.174  0.00  0.00    -0.248 NA
ATOM     34  C   UNK d   0      27.756 -17.096  -0.944  0.00  0.00     0.308 C 
ATOM     35  H   UNK d   0      27.409 -18.144   0.774  0.00  0.00     0.132 HD
BRANCH  34  36
ATOM     36  O   UNK d   0      29.045 -17.265  -0.486  0.00  0.00    -0.363 OA
ATOM     37  H   UNK d   0      28.934 -17.883   0.235  0.00  0.00     0.213 HD
ENDBRANCH  34  36
ENDBRANCH   1  24
TORSDOF 8
ENDMDL
MODEL 3
REMARK VINA RESULT:    -7.442      5.603      8.509
REMARK INTER + INTRA:         -12.671
REMARK INTER:                  -9.828
REMARK INTRA:                  -2.843
REMARK CONF_INDEPENDENT:        2.386
REMARK UNBOUND:                -2.843
REMARK  8 active torsions:
REMARK  status: ('A' for Active; 'I' for Inactive)
REMARK    1  A    between atoms: CB_2  and  CA_4 
REMARK    2  A    between atoms: CA_4  and  N_5 
REMARK    3  A    between atoms: CA_4  and  C_31 
REMARK       I    between atoms: N_5  and  C_6 
REMARK    4  A    between atoms: C_6  and  C_8 
REMARK    5  A    between atoms: C_8  and  C_9 
REMARK    6  A    between atoms: C_8  and  N_19 
REMARK    7  A    between atoms: C_9  and  C_10 
REMARK    8  A    between atoms: C_29  and  O_30 
ROOT
ATOM      1  C   UNK d   0      26.750 -15.573  -3.482  0.00  0.00     0.187 C 
ENDROOT
BRANCH   1   2
ATOM      2  C   UNK d   0      28.280 -15.662  -3.307  0.00  0.00     0.241 C 
ATOM      3  N   VAL d   1      29.053 -16.201  -4.331  0.00  0.00    -0.344 N 
ATOM      4  H   VAL d   1      28.636 -16.800  -5.037  0.00  0.00     0.163 HD
ATOM      5  O   UNK d   0      28.790 -15.277  -2.260  0.00  0.00    -0.271 OA
BRANCH   3   6
ATOM      6  CA  VAL d   1      30.537 -16.399  -4.128  0.00  0.00     0.189 C 
BRANCH   6   7
ATOM      7  CB  VAL d   1      31.211 -15.260  -4.911  0.00  0.00     0.010 C 
ATOM      8  CG1 VAL d   1      30.867 -15.300  -6.395  0.00  0.00     0.012 C 
ATOM      9  CG2 VAL d   1      30.853 -13.876  -4.408  0.00  0.00     0.012 C 
ENDBRANCH   6   7
BRANCH   6  10
ATOM     10  C   VAL d   1      31.113 -17.833  -4.529  0.00  0.00     0.197 C 
ATOM     11  O   VAL d   1      30.307 -18.634  -5.081  0.00  0.00    -0.646 OA
ATOM     12  OXT VAL d   1      32.322 -18.063  -4.229  0.00  0.00    -0.646 OA
ENDBRANCH   6  10
ENDBRANCH   3   6
ENDBRANCH   1   2
BRANCH   1  13
ATOM     13  C   UNK d   0      26.233 -15.102  -2.085  0.00  0.00     0.076 C 
BRANCH  13  14
ATOM     14  C   UNK d   0      25.847 -16.192  -1.121  0.00  0.00    -0.028 C 
ATOM     15  C   UNK d   0      26.609 -16.691  -0.094  0.00  0.00     0.096 C 
ATOM     16  N   UNK d   0      26.071 -17.874   0.328  0.00  0.00    -0.365 N 
ATOM     17  C   UNK d   0      24.736 -17.819   0.039  0.00  0.00     0.042 A 
ATOM     18  H   UNK d   0      26.574 -18.528   0.928  0.00  0.00     0.165 HD
ATOM     19  C   UNK d   0      23.677 -18.575   0.535  0.00  0.00     0.030 A 
ATOM     20  C   UNK d   0      24.571 -16.759  -0.864  0.00  0.00    -0.002 A 
ATOM     21  C   UNK d   0      22.399 -18.189   0.132  0.00  0.00     0.002 A 
ATOM     22  C   UNK d   0      22.200 -17.119  -0.745  0.00  0.00     0.001 A 
ATOM     23  C   UNK d   0      23.278 -16.409  -1.269  0.00  0.00     0.014 A 
ENDBRANCH  13  14
ENDBRANCH   1  13
BRANCH   1  24
ATOM     24  N   UNK d   0      26.300 -14.638  -4.616  0.00  0.00    -0.295 N 
ATOM     25  C   UNK d   0      27.210 -14.295  -5.642  0.00  0.00     0.259 C 
ATOM     26  O   UNK d   0      27.917 -15.079  -6.235  0.00  0.00    -0.267 OA
ATOM     27  C   UNK d   0      27.283 -12.832  -5.986  0.00  0.00     0.053 A 
ATOM     28  C   UNK d   0      28.265 -12.338  -6.848  0.00  0.00     0.019 A 
ATOM     29  C   UNK d   0      26.399 -11.958  -5.341  0.00  0.00     0.027 A 
ATOM     30  C   UNK d   0      28.359 -10.959  -7.062  0.00  0.00     0.001 A 
ATOM     31  C   UNK d   0      27.470 -10.086  -6.430  0.00  0.00     0.002 A 
ATOM     32  C   UNK d   0      26.496 -10.584  -5.565  0.00  0.00     0.024 A 
ATOM     33  N   UNK d   0      25.532 -12.468  -4.381  0.00  0.00    -0.248 NA
ATOM     34  C   UNK d   0      25.121 -13.800  -4.680  0.00  0.00     0.308 C 
ATOM     35  H   UNK d   0      24.775 -11.892  -4.041  0.00  0.00     0.132 HD
BRANCH  34  36
ATOM     36  O   UNK d   0      24.059 -14.009  -3.827  0.00  0.00    -0.363 OA
ATOM     37  H   UNK d   0      23.305 -13.971  -4.415  0.00  0.00     0.213 HD
ENDBRANCH  34  36
ENDBRANCH   1  24
TORSDOF 8
ENDMDL
MODEL 4
REMARK VINA RESULT:    -7.117      2.953      5.498
REMARK INTER + INTRA:         -13.171
REMARK INTER:                  -9.503
REMARK INTRA:                  -3.668
REMARK CONF_INDEPENDENT:        2.386
REMARK UNBOUND:                -3.668
REMARK  8 active torsions:
REMARK  status: ('A' for Active; 'I' for Inactive)
REMARK    1  A    between atoms: CB_2  and  CA_4 
REMARK    2  A    between atoms: CA_4  and  N_5 
REMARK    3  A    between atoms: CA_4  and  C_31 
REMARK       I    between atoms: N_5  and  C_6 
REMARK    4  A    between atoms: C_6  and  C_8 
REMARK    5  A    between atoms: C_8  and  C_9 
REMARK    6  A    between atoms: C_8  and  N_19 
REMARK    7  A    between atoms: C_9  and  C_10 
REMARK    8  A    between atoms: C_29  and  O_30 
ROOT
ATOM      1  C   UNK d   0      28.247 -16.659  -1.142  0.00  0.00     0.187 C 
ENDROOT
BRANCH   1   2
ATOM      2  C   UNK d   0      28.262 -15.832  -2.444  0.00  0.00     0.241 C 
ATOM      3  N   VAL d   1      27.174 -15.018  -2.746  0.00  0.00    -0.344 N 
ATOM      4  H   VAL d   1      26.270 -15.176  -2.313  0.00  0.00     0.163 HD
ATOM      5  O   UNK d   0      29.221 -15.921  -3.203  0.00  0.00    -0.271 OA
BRANCH   3   6
ATOM      6  CA  VAL d   1      27.125 -14.291  -4.069  0.00  0.00     0.189 C 
BRANCH   6   7
ATOM      7  CB  VAL d   1      26.046 -13.208  -3.900  0.00  0.00     0.010 C 
ATOM      8  CG1 VAL d   1      24.666 -13.805  -3.648  0.00  0.00     0.012 C 
ATOM      9  CG2 VAL d   1      26.324 -12.237  -2.771  0.00  0.00     0.012 C 
ENDBRANCH   6   7
BRANCH   6  10
ATOM     10  C   VAL d   1      26.874 -15.200  -5.358  0.00  0.00     0.197 C 
ATOM     11  O   VAL d   1      25.804 -15.870  -5.380  0.00  0.00    -0.646 OA
ATOM     12  OXT VAL d   1      27.786 -15.200  -6.238  0.00  0.00    -0.646 OA
ENDBRANCH   6  10
ENDBRANCH   3   6
ENDBRANCH   1   2
BRANCH   1  13
ATOM     13  C   UNK d   0      29.473 -16.124  -0.335  0.00  0.00     0.076 C 
BRANCH  13  14
ATOM     14  C   UNK d   0      29.368 -14.707   0.163  0.00  0.00    -0.028 C 
ATOM     15  C   UNK d   0      29.532 -13.561  -0.574  0.00  0.00     0.096 C 
ATOM     16  N   UNK d   0      29.700 -12.504   0.275  0.00  0.00    -0.365 N 
ATOM     17  C   UNK d   0      29.063 -12.835   1.439  0.00  0.00     0.042 A 
ATOM     18  H   UNK d   0      30.046 -11.594  -0.034  0.00  0.00     0.165 HD
ATOM     19  C   UNK d   0      28.635 -12.028   2.490  0.00  0.00     0.030 A 
ATOM     20  C   UNK d   0      28.836 -14.217   1.385  0.00  0.00    -0.002 A 
ATOM     21  C   UNK d   0      27.896 -12.658   3.492  0.00  0.00     0.002 A 
ATOM     22  C   UNK d   0      27.628 -14.029   3.452  0.00  0.00     0.001 A 
ATOM     23  C   UNK d   0      28.111 -14.826   2.415  0.00  0.00     0.014 A 
ENDBRANCH  13  14
ENDBRANCH   1  13
BRANCH   1  24
ATOM     24  N   UNK d   0      26.936 -16.557  -0.347  0.00  0.00    -0.295 N 
ATOM     25  C   UNK d   0      26.273 -17.735   0.064  0.00  0.00     0.259 C 
ATOM     26  O   UNK d   0      26.807 -18.685   0.593  0.00  0.00    -0.267 OA
ATOM     27  C   UNK d   0      24.792 -17.778  -0.202  0.00  0.00     0.053 A 
ATOM     28  C   UNK d   0      24.055 -18.948  -0.013  0.00  0.00     0.019 A 
ATOM     29  C   UNK d   0      24.187 -16.636  -0.742  0.00  0.00     0.027 A 
ATOM     30  C   UNK d   0      22.703 -18.972  -0.367  0.00  0.00     0.001 A 
ATOM     31  C   UNK d   0      22.092 -17.830  -0.893  0.00  0.00     0.002 A 
ATOM     32  C   UNK d   0      22.835 -16.666  -1.087  0.00  0.00     0.024 A 
ATOM     33  N   UNK d   0      24.981 -15.538  -1.051  0.00  0.00    -0.248 NA
ATOM     34  C   UNK d   0      26.083 -15.401  -0.157  0.00  0.00     0.308 C 
ATOM     35  H   UNK d   0      24.542 -14.655  -1.269  0.00  0.00     0.132 HD
BRANCH  34  36
ATOM     36  O   UNK d   0      26.550 -14.130  -0.414  0.00  0.00    -0.363 OA
ATOM     37  H   UNK d   0      26.791 -13.814   0.457  0.00  0.00     0.213 HD
ENDBRANCH  34  36
ENDBRANCH   1  24
TORSDOF 8
ENDMDL
MODEL 5
REMARK VINA RESULT:    -7.043      3.019      5.043
REMARK INTER + INTRA:         -13.400
REMARK INTER:                  -9.429
REMARK INTRA:                  -3.971
REMARK CONF_INDEPENDENT:        2.386
REMARK UNBOUND:                -3.971
REMARK  8 active torsions:
REMARK  status: ('A' for Active; 'I' for Inactive)
REMARK    1  A    between atoms: CB_2  and  CA_4 
REMARK    2  A    between atoms: CA_4  and  N_5 
REMARK    3  A    between atoms: CA_4  and  C_31 
REMARK       I    between atoms: N_5  and  C_6 
REMARK    4  A    between atoms: C_6  and  C_8 
REMARK    5  A    between atoms: C_8  and  C_9 
REMARK    6  A    between atoms: C_8  and  N_19 
REMARK    7  A    between atoms: C_9  and  C_10 
REMARK    8  A    between atoms: C_29  and  O_30 
ROOT
ATOM      1  C   UNK d   0      28.763 -15.724  -0.461  0.00  0.00     0.187 C 
ENDROOT
BRANCH   1   2
ATOM      2  C   UNK d   0      28.866 -15.641  -1.998  0.00  0.00     0.241 C 
ATOM      3  N   VAL d   1      27.947 -14.866  -2.700  0.00  0.00    -0.344 N 
ATOM      4  H   VAL d   1      27.057 -14.611  -2.285  0.00  0.00     0.163 HD
ATOM      5  O   UNK d   0      29.740 -16.275  -2.578  0.00  0.00    -0.271 OA
BRANCH   3   6
ATOM      6  CA  VAL d   1      27.965 -14.866  -4.211  0.00  0.00     0.189 C 
BRANCH   6   7
ATOM      7  CB  VAL d   1      28.510 -13.486  -4.613  0.00  0.00     0.010 C 
ATOM      8  CG1 VAL d   1      28.741 -13.373  -6.115  0.00  0.00     0.012 C 
ATOM      9  CG2 VAL d   1      27.612 -12.333  -4.212  0.00  0.00     0.012 C 
ENDBRANCH   6   7
BRANCH   6  10
ATOM     10  C   VAL d   1      26.578 -15.202  -4.928  0.00  0.00     0.197 C 
ATOM     11  O   VAL d   1      26.638 -15.575  -6.133  0.00  0.00    -0.646 OA
ATOM     12  OXT VAL d   1      25.529 -15.035  -4.238  0.00  0.00    -0.646 OA
ENDBRANCH   6  10
ENDBRANCH   3   6
ENDBRANCH   1   2
BRANCH   1  13
ATOM     13  C   UNK d   0      29.564 -14.482   0.043  0.00  0.00     0.076 C 
BRANCH  13  14
ATOM     14  C   UNK d   0      29.881 -14.451   1.515  0.00  0.00    -0.028 C 
ATOM     15  C   UNK d   0      31.122 -14.335   2.088  0.00  0.00     0.096 C 
ATOM     16  N   UNK d   0      31.041 -14.684   3.406  0.00  0.00    -0.365 N 
ATOM     17  C   UNK d   0      29.756 -14.429   3.798  0.00  0.00     0.042 A 
ATOM     18  H   UNK d   0      31.863 -14.878   3.980  0.00  0.00     0.165 HD
ATOM     19  C   UNK d   0      29.217 -14.280   5.073  0.00  0.00     0.030 A 
ATOM     20  C   UNK d   0      29.010 -14.269   2.621  0.00  0.00    -0.002 A 
ATOM     21  C   UNK d   0      27.878 -13.895   5.138  0.00  0.00     0.002 A 
ATOM     22  C   UNK d   0      27.115 -13.699   3.983  0.00  0.00     0.001 A 
ATOM     23  C   UNK d   0      27.662 -13.904   2.718  0.00  0.00     0.014 A 
ENDBRANCH  13  14
ENDBRANCH   1  13
BRANCH   1  24
ATOM     24  N   UNK d   0      27.322 -15.745   0.073  0.00  0.00    -0.295 N 
ATOM     25  C   UNK d   0      26.775 -16.952   0.564  0.00  0.00     0.259 C 
ATOM     26  O   UNK d   0      27.332 -17.707   1.330  0.00  0.00    -0.267 OA
ATOM     27  C   UNK d   0      25.398 -17.295   0.064  0.00  0.00     0.053 A 
ATOM     28  C   UNK d   0      24.820 -18.539   0.326  0.00  0.00     0.019 A 
ATOM     29  C   UNK d   0      24.745 -16.368  -0.759  0.00  0.00     0.027 A 
ATOM     30  C   UNK d   0      23.582 -18.854  -0.242  0.00  0.00     0.001 A 
ATOM     31  C   UNK d   0      22.922 -17.926  -1.052  0.00  0.00     0.002 A 
ATOM     32  C   UNK d   0      23.507 -16.687  -1.315  0.00  0.00     0.024 A 
ATOM     33  N   UNK d   0      25.412 -15.201  -1.115  0.00  0.00    -0.248 NA
ATOM     34  C   UNK d   0      26.287 -14.745  -0.086  0.00  0.00     0.308 C 
ATOM     35  H   UNK d   0      24.898 -14.451  -1.553  0.00  0.00     0.132 HD
BRANCH  34  36
ATOM     36  O   UNK d   0      26.599 -13.460  -0.476  0.00  0.00    -0.363 OA
ATOM     37  H   UNK d   0      27.215 -13.179   0.200  0.00  0.00     0.213 HD
ENDBRANCH  34  36
ENDBRANCH   1  24
TORSDOF 8
ENDMDL
MODEL 6
REMARK VINA RESULT:    -6.876      4.680      6.860
REMARK INTER + INTRA:         -12.823
REMARK INTER:                  -9.262
REMARK INTRA:                  -3.561
REMARK CONF_INDEPENDENT:        2.386
REMARK UNBOUND:                -3.561
REMARK  8 active torsions:
REMARK  status: ('A' for Active; 'I' for Inactive)
REMARK    1  A    between atoms: CB_2  and  CA_4 
REMARK    2  A    between atoms: CA_4  and  N_5 
REMARK    3  A    between atoms: CA_4  and  C_31 
REMARK       I    between atoms: N_5  and  C_6 
REMARK    4  A    between atoms: C_6  and  C_8 
REMARK    5  A    between atoms: C_8  and  C_9 
REMARK    6  A    between atoms: C_8  and  N_19 
REMARK    7  A    between atoms: C_9  and  C_10 
REMARK    8  A    between atoms: C_29  and  O_30 
ROOT
ATOM      1  C   UNK d   0      27.209 -14.607  -1.256  0.00  0.00     0.187 C 
ENDROOT
BRANCH   1   2
ATOM      2  C   UNK d   0      27.173 -13.076  -1.444  0.00  0.00     0.241 C 
ATOM      3  N   VAL d   1      26.554 -12.543  -2.571  0.00  0.00    -0.344 N 
ATOM      4  H   VAL d   1      26.402 -13.111  -3.398  0.00  0.00     0.163 HD
ATOM      5  O   UNK d   0      27.709 -12.354  -0.610  0.00  0.00    -0.271 OA
BRANCH   3   6
ATOM      6  CA  VAL d   1      26.611 -11.055  -2.826  0.00  0.00     0.189 C 
BRANCH   6   7
ATOM      7  CB  VAL d   1      25.575 -10.790  -3.930  0.00  0.00     0.010 C 
ATOM      8  CG1 VAL d   1      25.380  -9.301  -4.191  0.00  0.00     0.012 C 
ATOM      9  CG2 VAL d   1      25.916 -11.435  -5.258  0.00  0.00     0.012 C 
ENDBRANCH   6   7
BRANCH   6  10
ATOM     10  C   VAL d   1      28.049 -10.462  -3.189  0.00  0.00     0.197 C 
ATOM     11  O   VAL d   1      28.223  -9.229  -2.976  0.00  0.00    -0.646 OA
ATOM     12  OXT VAL d   1      28.885 -11.269  -3.692  0.00  0.00    -0.646 OA
ENDBRANCH   6  10
ENDBRANCH   3   6
ENDBRANCH   1   2
BRANCH   1  13
ATOM     13  C   UNK d   0      25.911 -14.923  -0.447  0.00  0.00     0.076 C 
BRANCH  13  14
ATOM     14  C   UNK d   0      25.544 -16.378  -0.327  0.00  0.00    -0.028 C 
ATOM     15  C   UNK d   0      26.286 -17.368   0.267  0.00  0.00     0.096 C 
ATOM     16  N   UNK d   0      25.797 -18.585  -0.117  0.00  0.00    -0.365 N 
ATOM     17  C   UNK d   0      24.475 -18.397  -0.411  0.00  0.00     0.042 A 
ATOM     18  H   UNK d   0      26.309 -19.457   0.023  0.00  0.00     0.165 HD
ATOM     19  C   UNK d   0      23.439 -19.321  -0.522  0.00  0.00     0.030 A 
ATOM     20  C   UNK d   0      24.291 -17.013  -0.537  0.00  0.00    -0.002 A 
ATOM     21  C   UNK d   0      22.160 -18.797  -0.712  0.00  0.00     0.002 A 
ATOM     22  C   UNK d   0      21.941 -17.421  -0.813  0.00  0.00     0.001 A 
ATOM     23  C   UNK d   0      23.000 -16.517  -0.750  0.00  0.00     0.014 A 
ENDBRANCH  13  14
ENDBRANCH   1  13
BRANCH   1  24
ATOM     24  N   UNK d   0      27.285 -15.401  -2.570  0.00  0.00    -0.295 N 
ATOM     25  C   UNK d   0      28.480 -16.074  -2.913  0.00  0.00     0.259 C 
ATOM     26  O   UNK d   0      29.121 -16.776  -2.163  0.00  0.00    -0.267 OA
ATOM     27  C   UNK d   0      28.964 -15.867  -4.322  0.00  0.00     0.053 A 
ATOM     28  C   UNK d   0      30.218 -16.323  -4.733  0.00  0.00     0.019 A 
ATOM     29  C   UNK d   0      28.163 -15.114  -5.190  0.00  0.00     0.027 A 
ATOM     30  C   UNK d   0      30.669 -16.022  -6.022  0.00  0.00     0.001 A 
ATOM     31  C   UNK d   0      29.867 -15.283  -6.894  0.00  0.00     0.002 A 
ATOM     32  C   UNK d   0      28.618 -14.823  -6.477  0.00  0.00     0.024 A 
ATOM     33  N   UNK d   0      26.988 -14.553  -4.703  0.00  0.00    -0.248 NA
ATOM     34  C   UNK d   0      26.380 -15.364  -3.700  0.00  0.00     0.308 C 
ATOM     35  H   UNK d   0      26.318 -14.165  -5.351  0.00  0.00     0.132 HD
BRANCH  34  36
ATOM     36  O   UNK d   0      25.116 -14.829  -3.575  0.00  0.00    -0.363 OA
ATOM     37  H   UNK d   0      24.743 -15.334  -2.854  0.00  0.00     0.213 HD
ENDBRANCH  34  36
ENDBRANCH   1  24
TORSDOF 8
ENDMDL
MODEL 7
REMARK VINA RESULT:    -6.727      1.712      6.607
REMARK INTER + INTRA:         -12.831
REMARK INTER:                  -9.113
REMARK INTRA:                  -3.717
REMARK CONF_INDEPENDENT:        2.386
REMARK UNBOUND:                -3.717
REMARK  8 active torsions:
REMARK  status: ('A' for Active; 'I' for Inactive)
REMARK    1  A    between atoms: CB_2  and  CA_4 
REMARK    2  A    between atoms: CA_4  and  N_5 
REMARK    3  A    between atoms: CA_4  and  C_31 
REMARK       I    between atoms: N_5  and  C_6 
REMARK    4  A    between atoms: C_6  and  C_8 
REMARK    5  A    between atoms: C_8  and  C_9 
REMARK    6  A    between atoms: C_8  and  N_19 
REMARK    7  A    between atoms: C_9  and  C_10 
REMARK    8  A    between atoms: C_29  and  O_30 
ROOT
ATOM      1  C   UNK d   0      27.557 -14.000   2.724  0.00  0.00     0.187 C 
ENDROOT
BRANCH   1   2
ATOM      2  C   UNK d   0      26.769 -12.804   2.149  0.00  0.00     0.241 C 
ATOM      3  N   VAL d   1      27.336 -11.534   2.186  0.00  0.00    -0.344 N 
ATOM      4  H   VAL d   1      28.089 -11.319   2.831  0.00  0.00     0.163 HD
ATOM      5  O   UNK d   0      25.647 -12.988   1.689  0.00  0.00    -0.271 OA
BRANCH   3   6
ATOM      6  CA  VAL d   1      26.531 -10.339   1.732  0.00  0.00     0.189 C 
BRANCH   6   7
ATOM      7  CB  VAL d   1      27.276  -9.787   0.506  0.00  0.00     0.010 C 
ATOM      8  CG1 VAL d   1      28.680  -9.305   0.855  0.00  0.00     0.012 C 
ATOM      9  CG2 VAL d   1      27.417 -10.785  -0.626  0.00  0.00     0.012 C 
ENDBRANCH   6   7
BRANCH   6  10
ATOM     10  C   VAL d   1      26.263  -9.215   2.835  0.00  0.00     0.197 C 
ATOM     11  O   VAL d   1      26.757  -9.416   3.980  0.00  0.00    -0.646 OA
ATOM     12  OXT VAL d   1      25.549  -8.231   2.480  0.00  0.00    -0.646 OA
ENDBRANCH   6  10
ENDBRANCH   3   6
ENDBRANCH   1   2
BRANCH   1  13
ATOM     13  C   UNK d   0      28.175 -14.689   1.467  0.00  0.00     0.076 C 
BRANCH  13  14
ATOM     14  C   UNK d   0      27.243 -14.902   0.303  0.00  0.00    -0.028 C 
ATOM     15  C   UNK d   0      27.215 -14.191  -0.870  0.00  0.00     0.096 C 
ATOM     16  N   UNK d   0      26.040 -14.445  -1.518  0.00  0.00    -0.365 N 
ATOM     17  C   UNK d   0      25.636 -15.689  -1.119  0.00  0.00     0.042 A 
ATOM     18  H   UNK d   0      25.702 -13.876  -2.296  0.00  0.00     0.165 HD
ATOM     19  C   UNK d   0      24.720 -16.565  -1.696  0.00  0.00     0.030 A 
ATOM     20  C   UNK d   0      26.389 -16.001   0.021  0.00  0.00    -0.002 A 
ATOM     21  C   UNK d   0      24.619 -17.827  -1.112  0.00  0.00     0.002 A 
ATOM     22  C   UNK d   0      25.377 -18.179   0.008  0.00  0.00     0.001 A 
ATOM     23  C   UNK d   0      26.250 -17.268   0.599  0.00  0.00     0.014 A 
ENDBRANCH  13  14
ENDBRANCH   1  13
BRANCH   1  24
ATOM     24  N   UNK d   0      28.623 -13.610   3.759  0.00  0.00    -0.295 N 
ATOM     25  C   UNK d   0      28.488 -14.040   5.099  0.00  0.00     0.259 C 
ATOM     26  O   UNK d   0      28.213 -15.169   5.442  0.00  0.00    -0.267 OA
ATOM     27  C   UNK d   0      28.701 -12.983   6.148  0.00  0.00     0.053 A 
ATOM     28  C   UNK d   0      28.420 -13.229   7.494  0.00  0.00     0.019 A 
ATOM     29  C   UNK d   0      29.095 -11.706   5.727  0.00  0.00     0.027 A 
ATOM     30  C   UNK d   0      28.536 -12.189   8.420  0.00  0.00     0.001 A 
ATOM     31  C   UNK d   0      28.942 -10.918   8.006  0.00  0.00     0.002 A 
ATOM     32  C   UNK d   0      29.214 -10.676   6.660  0.00  0.00     0.024 A 
ATOM     33  N   UNK d   0      29.225 -11.459   4.365  0.00  0.00    -0.248 NA
ATOM     34  C   UNK d   0      29.665 -12.610   3.649  0.00  0.00     0.308 C 
ATOM     35  H   UNK d   0      29.676 -10.610   4.057  0.00  0.00     0.132 HD
BRANCH  34  36
ATOM     36  O   UNK d   0      30.031 -12.104   2.420  0.00  0.00    -0.363 OA
ATOM     37  H   UNK d   0      30.521 -12.828   2.031  0.00  0.00     0.213 HD
ENDBRANCH  34  36
ENDBRANCH   1  24
TORSDOF 8
ENDMDL
MODEL 8
REMARK VINA RESULT:    -6.408      5.387      8.765
REMARK INTER + INTRA:         -12.719
REMARK INTER:                  -8.794
REMARK INTRA:                  -3.925
REMARK CONF_INDEPENDENT:        2.386
REMARK UNBOUND:                -3.925
REMARK  8 active torsions:
REMARK  status: ('A' for Active; 'I' for Inactive)
REMARK    1  A    between atoms: CB_2  and  CA_4 
REMARK    2  A    between atoms: CA_4  and  N_5 
REMARK    3  A    between atoms: CA_4  and  C_31 
REMARK       I    between atoms: N_5  and  C_6 
REMARK    4  A    between atoms: C_6  and  C_8 
REMARK    5  A    between atoms: C_8  and  C_9 
REMARK    6  A    between atoms: C_8  and  N_19 
REMARK    7  A    between atoms: C_9  and  C_10 
REMARK    8  A    between atoms: C_29  and  O_30 
ROOT
ATOM      1  C   UNK d   0      25.592 -13.648  -4.743  0.00  0.00     0.187 C 
ENDROOT
BRANCH   1   2
ATOM      2  C   UNK d   0      26.529 -14.844  -5.010  0.00  0.00     0.241 C 
ATOM      3  N   VAL d   1      27.906 -14.641  -5.020  0.00  0.00    -0.344 N 
ATOM      4  H   VAL d   1      28.294 -13.714  -5.160  0.00  0.00     0.163 HD
ATOM      5  O   UNK d   0      26.047 -15.950  -5.231  0.00  0.00    -0.271 OA
BRANCH   3   6
ATOM      6  CA  VAL d   1      28.830 -15.777  -5.392  0.00  0.00     0.189 C 
BRANCH   6   7
ATOM      7  CB  VAL d   1      29.384 -16.305  -4.059  0.00  0.00     0.010 C 
ATOM      8  CG1 VAL d   1      30.107 -17.637  -4.224  0.00  0.00     0.012 C 
ATOM      9  CG2 VAL d   1      30.350 -15.356  -3.378  0.00  0.00     0.012 C 
ENDBRANCH   6   7
BRANCH   6  10
ATOM     10  C   VAL d   1      29.989 -15.424  -6.433  0.00  0.00     0.197 C 
ATOM     11  O   VAL d   1      30.128 -14.206  -6.735  0.00  0.00    -0.646 OA
ATOM     12  OXT VAL d   1      30.650 -16.400  -6.897  0.00  0.00    -0.646 OA
ENDBRANCH   6  10
ENDBRANCH   3   6
ENDBRANCH   1   2
BRANCH   1  13
ATOM     13  C   UNK d   0      25.034 -13.913  -3.309  0.00  0.00     0.076 C 
BRANCH  13  14
ATOM     14  C   UNK d   0      25.905 -14.743  -2.404  0.00  0.00    -0.028 C 
ATOM     15  C   UNK d   0      27.105 -14.373  -1.849  0.00  0.00     0.096 C 
ATOM     16  N   UNK d   0      27.744 -15.487  -1.382  0.00  0.00    -0.365 N 
ATOM     17  C   UNK d   0      26.769 -16.399  -1.085  0.00  0.00     0.042 A 
ATOM     18  H   UNK d   0      28.731 -15.491  -1.123  0.00  0.00     0.165 HD
ATOM     19  C   UNK d   0      26.818 -17.538  -0.286  0.00  0.00     0.030 A 
ATOM     20  C   UNK d   0      25.600 -15.944  -1.710  0.00  0.00    -0.002 A 
ATOM     21  C   UNK d   0      25.607 -18.200  -0.077  0.00  0.00     0.002 A 
ATOM     22  C   UNK d   0      24.419 -17.754  -0.664  0.00  0.00     0.001 A 
ATOM     23  C   UNK d   0      24.404 -16.640  -1.501  0.00  0.00     0.014 A 
ENDBRANCH  13  14
ENDBRANCH   1  13
BRANCH   1  24
ATOM     24  N   UNK d   0      26.274 -12.276  -4.860  0.00  0.00    -0.295 N 
ATOM     25  C   UNK d   0      25.915 -11.238  -3.971  0.00  0.00     0.259 C 
ATOM     26  O   UNK d   0      25.807 -11.357  -2.770  0.00  0.00    -0.267 OA
ATOM     27  C   UNK d   0      25.645  -9.900  -4.605  0.00  0.00     0.053 A 
ATOM     28  C   UNK d   0      25.108  -8.843  -3.867  0.00  0.00     0.019 A 
ATOM     29  C   UNK d   0      25.854  -9.770  -5.984  0.00  0.00     0.027 A 
ATOM     30  C   UNK d   0      24.780  -7.650  -4.517  0.00  0.00     0.001 A 
ATOM     31  C   UNK d   0      25.000  -7.512  -5.890  0.00  0.00     0.002 A 
ATOM     32  C   UNK d   0      25.530  -8.573  -6.623  0.00  0.00     0.024 A 
ATOM     33  N   UNK d   0      26.252 -10.886  -6.710  0.00  0.00    -0.248 NA
ATOM     34  C   UNK d   0      27.081 -11.759  -5.946  0.00  0.00     0.308 C 
ATOM     35  H   UNK d   0      26.577 -10.770  -7.659  0.00  0.00     0.132 HD
BRANCH  34  36
ATOM     36  O   UNK d   0      27.616 -12.606  -6.893  0.00  0.00    -0.363 OA
ATOM     37  H   UNK d   0      28.467 -12.830  -6.518  0.00  0.00     0.213 HD
ENDBRANCH  34  36
ENDBRANCH   1  24
TORSDOF 8
ENDMDL
MODEL 9
REMARK VINA RESULT:    -6.142      3.699      5.961
REMARK INTER + INTRA:         -12.621
REMARK INTER:                  -8.529
REMARK INTRA:                  -4.092
REMARK CONF_INDEPENDENT:        2.386
REMARK UNBOUND:                -4.092
REMARK  8 active torsions:
REMARK  status: ('A' for Active; 'I' for Inactive)
REMARK    1  A    between atoms: CB_2  and  CA_4 
REMARK    2  A    between atoms: CA_4  and  N_5 
REMARK    3  A    between atoms: CA_4  and  C_31 
REMARK       I    between atoms: N_5  and  C_6 
REMARK    4  A    between atoms: C_6  and  C_8 
REMARK    5  A    between atoms: C_8  and  C_9 
REMARK    6  A    between atoms: C_8  and  N_19 
REMARK    7  A    between atoms: C_9  and  C_10 
REMARK    8  A    between atoms: C_29  and  O_30 
ROOT
ATOM      1  C   UNK d   0      28.311 -17.011  -1.080  0.00  0.00     0.187 C 
ENDROOT
BRANCH   1   2
ATOM      2  C   UNK d   0      28.340 -16.158  -2.366  0.00  0.00     0.241 C 
ATOM      3  N   VAL d   1      27.388 -15.158  -2.540  0.00  0.00    -0.344 N 
ATOM      4  H   VAL d   1      26.519 -15.169  -2.017  0.00  0.00     0.163 HD
ATOM      5  O   UNK d   0      29.186 -16.390  -3.223  0.00  0.00    -0.271 OA
BRANCH   3   6
ATOM      6  CA  VAL d   1      27.334 -14.392  -3.842  0.00  0.00     0.189 C 
BRANCH   6   7
ATOM      7  CB  VAL d   1      26.617 -13.074  -3.510  0.00  0.00     0.010 C 
ATOM      8  CG1 VAL d   1      25.153 -13.291  -3.143  0.00  0.00     0.012 C 
ATOM      9  CG2 VAL d   1      27.251 -12.301  -2.370  0.00  0.00     0.012 C 
ENDBRANCH   6   7
BRANCH   6  10
ATOM     10  C   VAL d   1      26.662 -15.154  -5.074  0.00  0.00     0.197 C 
ATOM     11  O   VAL d   1      25.531 -15.676  -4.869  0.00  0.00    -0.646 OA
ATOM     12  OXT VAL d   1      27.335 -15.200  -6.146  0.00  0.00    -0.646 OA
ENDBRANCH   6  10
ENDBRANCH   3   6
ENDBRANCH   1   2
BRANCH   1  13
ATOM     13  C   UNK d   0      29.578 -16.554  -0.291  0.00  0.00     0.076 C 
BRANCH  13  14
ATOM     14  C   UNK d   0      29.615 -15.107   0.121  0.00  0.00    -0.028 C 
ATOM     15  C   UNK d   0      29.565 -14.613   1.400  0.00  0.00     0.096 C 
ATOM     16  N   UNK d   0      29.280 -13.277   1.353  0.00  0.00    -0.365 N 
ATOM     17  C   UNK d   0      29.739 -12.824   0.147  0.00  0.00     0.042 A 
ATOM     18  H   UNK d   0      28.986 -12.744   2.173  0.00  0.00     0.165 HD
ATOM     19  C   UNK d   0      30.013 -11.527  -0.280  0.00  0.00     0.030 A 
ATOM     20  C   UNK d   0      29.966 -13.961  -0.641  0.00  0.00    -0.002 A 
ATOM     21  C   UNK d   0      30.596 -11.402  -1.541  0.00  0.00     0.002 A 
ATOM     22  C   UNK d   0      30.861 -12.518  -2.339  0.00  0.00     0.001 A 
ATOM     23  C   UNK d   0      30.531 -13.803  -1.911  0.00  0.00     0.014 A 
ENDBRANCH  13  14
ENDBRANCH   1  13
BRANCH   1  24
ATOM     24  N   UNK d   0      27.023 -16.861  -0.255  0.00  0.00    -0.295 N 
ATOM     25  C   UNK d   0      26.238 -18.001   0.031  0.00  0.00     0.259 C 
ATOM     26  O   UNK d   0      26.669 -19.057   0.438  0.00  0.00    -0.267 OA
ATOM     27  C   UNK d   0      24.761 -17.852  -0.211  0.00  0.00     0.053 A 
ATOM     28  C   UNK d   0      23.900 -18.951  -0.143  0.00  0.00     0.019 A 
ATOM     29  C   UNK d   0      24.280 -16.597  -0.605  0.00  0.00     0.027 A 
ATOM     30  C   UNK d   0      22.552 -18.787  -0.473  0.00  0.00     0.001 A 
ATOM     31  C   UNK d   0      22.067 -17.533  -0.853  0.00  0.00     0.002 A 
ATOM     32  C   UNK d   0      22.931 -16.442  -0.926  0.00  0.00     0.024 A 
ATOM     33  N   UNK d   0      25.187 -15.563  -0.802  0.00  0.00    -0.248 NA
ATOM     34  C   UNK d   0      26.303 -15.650   0.081  0.00  0.00     0.308 C 
ATOM     35  H   UNK d   0      24.846 -14.618  -0.909  0.00  0.00     0.132 HD
BRANCH  34  36
ATOM     36  O   UNK d   0      26.904 -14.415  -0.037  0.00  0.00    -0.363 OA
ATOM     37  H   UNK d   0      26.503 -13.916   0.674  0.00  0.00     0.213 HD
ENDBRANCH  34  36
ENDBRANCH   1  24
TORSDOF 8
ENDMDL
