MODEL 1
REMARK VINA RESULT:   -28.944      0.000      0.000
REMARK INTER + INTRA:         -30.531
REMARK INTER:                 -29.839
REMARK INTRA:                  -0.692
REMARK CONF_INDEPENDENT:        0.895
REMARK UNBOUND:                -0.692
REMARK  3 active torsions:
REMARK  status: ('A' for Active; 'I' for Inactive)
REMARK    1  A    between atoms: C_6  and  C_7 
REMARK       I    between atoms: C_7  and  N_9 
REMARK    2  A    between atoms: N_9  and  N_10 
REMARK       I    between atoms: N_10  and  C_11 
REMARK    3  A    between atoms: C_11  and  C_13 
ROOT
ATOM      1  N   UNL d   1      25.201 -18.369   0.176  0.00  0.00    -0.261 N 
ATOM      2  C   UNL d   1      25.705 -17.394  -0.695  0.00  0.00     0.294 C 
ATOM      3  O   UNL d   1      25.001 -16.954  -1.610  0.00  0.00    -0.264 OA
ATOM      4  H   UNL d   1      25.699 -18.685   1.004  0.00  0.00     0.190 HD
ENDROOT
BRANCH   1   5
ATOM      5  N   UNL d   1      23.879 -18.871   0.006  0.00  0.00    -0.263 N 
ATOM      6  C   UNL d   1      22.782 -18.016   0.021  0.00  0.00     0.273 C 
ATOM      7  O   UNL d   1      22.927 -16.799   0.176  0.00  0.00    -0.266 OA
ATOM      8  H   UNL d   1      23.811 -19.874  -0.115  0.00  0.00     0.190 HD
BRANCH   6   9
ATOM      9  C   UNL d   1      21.448 -18.610  -0.146  0.00  0.00     0.076 A 
ATOM     10  C   UNL d   1      20.733 -18.764  -1.369  0.00  0.00     0.157 A 
ATOM     11  N   UNL d   1      19.530 -19.325  -1.216  0.00  0.00    -0.186 NA
ATOM     12  N   UNL d   1      19.452 -19.542   0.100  0.00  0.00    -0.282 N 
ATOM     13  C   UNL d   1      20.571 -19.149   0.790  0.00  0.00     0.041 A 
ATOM     14  H   UNL d   1      18.602 -19.964   0.465  0.00  0.00     0.189 HD
ATOM     15  C   UNL d   1      20.653 -19.332   2.254  0.00  0.00     0.071 C 
ENDBRANCH   6   9
ENDBRANCH   1   5
BRANCH   2  16
ATOM     16  C   UNL d   1      27.094 -16.990  -0.461  0.00  0.00     0.152 A 
ATOM     17  O   UNL d   1      28.131 -17.861  -0.739  0.00  0.00    -0.304 OA
ATOM     18  C   UNL d   1      29.306 -17.239  -0.399  0.00  0.00     0.087 A 
ATOM     19  C   UNL d   1      30.602 -17.757  -0.522  0.00  0.00     0.038 A 
ATOM     20  C   UNL d   1      29.040 -15.977   0.116  0.00  0.00     0.007 A 
ATOM     21  C   UNL d   1      31.663 -16.942  -0.091  0.00  0.00     0.003 A 
ATOM     22  C   UNL d   1      31.428 -15.672   0.432  0.00  0.00     0.001 A 
ATOM     23  C   UNL d   1      30.122 -15.179   0.543  0.00  0.00     0.015 A 
ATOM     24  C   UNL d   1      27.620 -15.828   0.094  0.00  0.00    -0.009 A 
ATOM     25  C   UNL d   1      26.848 -14.687   0.637  0.00  0.00     0.052 C 
ENDBRANCH   2  16
TORSDOF 3
ENDMDL
MODEL 2
REMARK VINA RESULT:   -28.691      1.670      1.730
REMARK INTER + INTRA:         -30.743
REMARK INTER:                 -29.586
REMARK INTRA:                  -1.157
REMARK CONF_INDEPENDENT:        0.895
REMARK UNBOUND:                -1.157
REMARK  3 active torsions:
REMARK  status: ('A' for Active; 'I' for Inactive)
REMARK    1  A    between atoms: C_6  and  C_7 
REMARK       I    between atoms: C_7  and  N_9 
REMARK    2  A    between atoms: N_9  and  N_10 
REMARK       I    between atoms: N_10  and  C_11 
REMARK    3  A    between atoms: C_11  and  C_13 
ROOT
ATOM      1  N   UNL d   1      24.975 -17.572  -1.079  0.00  0.00    -0.261 N 
ATOM      2  C   UNL d   1      25.486 -16.605  -1.954  0.00  0.00     0.294 C 
ATOM      3  O   UNL d   1      24.750 -16.074  -2.792  0.00  0.00    -0.264 OA
ATOM      4  H   UNL d   1      25.509 -17.959  -0.305  0.00  0.00     0.190 HD
ENDROOT
BRANCH   1   5
ATOM      5  N   UNL d   1      23.607 -17.962  -1.156  0.00  0.00    -0.263 N 
ATOM      6  C   UNL d   1      22.942 -18.463  -0.041  0.00  0.00     0.273 C 
ATOM      7  O   UNL d   1      23.520 -18.575   1.045  0.00  0.00    -0.266 OA
ATOM      8  H   UNL d   1      23.179 -17.855  -2.067  0.00  0.00     0.190 HD
BRANCH   6   9
ATOM      9  C   UNL d   1      21.536 -18.859  -0.202  0.00  0.00     0.076 A 
ATOM     10  C   UNL d   1      20.816 -18.955  -1.428  0.00  0.00     0.157 A 
ATOM     11  N   UNL d   1      19.542 -19.325  -1.270  0.00  0.00    -0.186 NA
ATOM     12  N   UNL d   1      19.422 -19.474   0.053  0.00  0.00    -0.282 N 
ATOM     13  C   UNL d   1      20.582 -19.223   0.742  0.00  0.00     0.041 A 
ATOM     14  H   UNL d   1      18.516 -19.750   0.423  0.00  0.00     0.189 HD
ATOM     15  C   UNL d   1      20.625 -19.356   2.212  0.00  0.00     0.071 C 
ENDBRANCH   6   9
ENDBRANCH   1   5
BRANCH   2  16
ATOM     16  C   UNL d   1      26.917 -16.320  -1.822  0.00  0.00     0.152 A 
ATOM     17  O   UNL d   1      27.673 -16.008  -2.936  0.00  0.00    -0.304 OA
ATOM     18  C   UNL d   1      28.969 -15.822  -2.528  0.00  0.00     0.087 A 
ATOM     19  C   UNL d   1      30.068 -15.484  -3.329  0.00  0.00     0.038 A 
ATOM     20  C   UNL d   1      29.066 -16.030  -1.158  0.00  0.00     0.007 A 
ATOM     21  C   UNL d   1      31.314 -15.361  -2.692  0.00  0.00     0.003 A 
ATOM     22  C   UNL d   1      31.444 -15.566  -1.319  0.00  0.00     0.001 A 
ATOM     23  C   UNL d   1      30.330 -15.902  -0.542  0.00  0.00     0.015 A 
ATOM     24  C   UNL d   1      27.754 -16.370  -0.712  0.00  0.00    -0.009 A 
ATOM     25  C   UNL d   1      27.370 -16.779   0.659  0.00  0.00     0.052 C 
ENDBRANCH   2  16
TORSDOF 3
ENDMDL
MODEL 3
REMARK VINA RESULT:   -28.594      1.662      1.718
REMARK INTER + INTRA:         -30.940
REMARK INTER:                 -29.489
REMARK INTRA:                  -1.451
REMARK CONF_INDEPENDENT:        0.895
REMARK UNBOUND:                -1.451
REMARK  3 active torsions:
REMARK  status: ('A' for Active; 'I' for Inactive)
REMARK    1  A    between atoms: C_6  and  C_7 
REMARK       I    between atoms: C_7  and  N_9 
REMARK    2  A    between atoms: N_9  and  N_10 
REMARK       I    between atoms: N_10  and  C_11 
REMARK    3  A    between atoms: C_11  and  C_13 
ROOT
ATOM      1  N   UNL d   1      24.993 -17.646  -1.152  0.00  0.00    -0.261 N 
ATOM      2  C   UNL d   1      25.488 -16.636  -1.987  0.00  0.00     0.294 C 
ATOM      3  O   UNL d   1      24.734 -16.054  -2.774  0.00  0.00    -0.264 OA
ATOM      4  H   UNL d   1      25.546 -18.079  -0.417  0.00  0.00     0.190 HD
ENDROOT
BRANCH   1   5
ATOM      5  N   UNL d   1      23.621 -18.022  -1.213  0.00  0.00    -0.263 N 
ATOM      6  C   UNL d   1      22.956 -18.485  -0.082  0.00  0.00     0.273 C 
ATOM      7  O   UNL d   1      23.538 -18.575   1.005  0.00  0.00    -0.266 OA
ATOM      8  H   UNL d   1      23.189 -17.933  -2.125  0.00  0.00     0.190 HD
BRANCH   6   9
ATOM      9  C   UNL d   1      21.545 -18.868  -0.226  0.00  0.00     0.076 A 
ATOM     10  C   UNL d   1      20.812 -18.970  -1.444  0.00  0.00     0.157 A 
ATOM     11  N   UNL d   1      19.535 -19.325  -1.270  0.00  0.00    -0.186 NA
ATOM     12  N   UNL d   1      19.427 -19.460   0.056  0.00  0.00    -0.282 N 
ATOM     13  C   UNL d   1      20.596 -19.214   0.731  0.00  0.00     0.041 A 
ATOM     14  H   UNL d   1      18.522 -19.723   0.437  0.00  0.00     0.189 HD
ATOM     15  C   UNL d   1      20.652 -19.333   2.202  0.00  0.00     0.071 C 
ENDBRANCH   6   9
ENDBRANCH   1   5
BRANCH   2  16
ATOM     16  C   UNL d   1      26.925 -16.368  -1.879  0.00  0.00     0.152 A 
ATOM     17  O   UNL d   1      27.662 -16.922  -0.850  0.00  0.00    -0.304 OA
ATOM     18  C   UNL d   1      28.957 -16.484  -0.975  0.00  0.00     0.087 A 
ATOM     19  C   UNL d   1      30.041 -16.806  -0.149  0.00  0.00     0.038 A 
ATOM     20  C   UNL d   1      29.062 -15.633  -2.067  0.00  0.00     0.007 A 
ATOM     21  C   UNL d   1      31.281 -16.222  -0.461  0.00  0.00     0.003 A 
ATOM     22  C   UNL d   1      31.419 -15.361  -1.549  0.00  0.00     0.001 A 
ATOM     23  C   UNL d   1      30.318 -15.057  -2.357  0.00  0.00     0.015 A 
ATOM     24  C   UNL d   1      27.754 -15.543  -2.632  0.00  0.00    -0.009 A 
ATOM     25  C   UNL d   1      27.340 -14.673  -3.756  0.00  0.00     0.052 C 
ENDBRANCH   2  16
TORSDOF 3
ENDMDL
