MODEL 1
REMARK VINA RESULT:    -9.803      0.000      0.000
REMARK INTER + INTRA:         -14.375
REMARK INTER:                 -12.488
REMARK INTRA:                  -1.887
REMARK CONF_INDEPENDENT:        2.685
REMARK UNBOUND:                -1.887
REMARK  9 active torsions:
REMARK  status: ('A' for Active; 'I' for Inactive)
REMARK    1  A    between atoms: C_2  and  N_3 
REMARK    2  A    between atoms: N_6  and  C_7 
REMARK    3  A    between atoms: C_10  and  C_11 
REMARK    4  A    between atoms: C_11  and  O_13 
REMARK    5  A    between atoms: C_16  and  N_17 
REMARK    6  A    between atoms: N_17  and  C_18 
REMARK    7  A    between atoms: C_18  and  N_20 
REMARK       I    between atoms: N_20  and  C_21 
REMARK    8  A    between atoms: C_21  and  C_23 
REMARK    9  A    between atoms: C_26  and  C_27 
ROOT
ATOM      1  C   UNL d   1      29.164 -15.027  -3.569  0.00  0.00     0.052 A 
ATOM      2  C   UNL d   1      30.506 -14.626  -3.823  0.00  0.00     0.032 A 
ATOM      3  C   UNL d   1      30.950 -14.119  -5.063  0.00  0.00     0.020 A 
ATOM      4  C   UNL d   1      30.084 -14.046  -6.153  0.00  0.00     0.041 A 
ATOM      5  C   UNL d   1      28.753 -14.479  -5.957  0.00  0.00     0.043 A 
ATOM      6  C   UNL d   1      28.275 -15.024  -4.702  0.00  0.00     0.042 A 
ENDROOT
BRANCH   6   7
ATOM      7  N   UNL d   1      26.871 -15.553  -4.722  0.00  0.00    -0.234 NA
ATOM      8  H   UNL d   1      26.479 -15.265  -5.619  0.00  0.00     0.136 HD
BRANCH   7   9
ATOM      9  C   UNL d   1      25.909 -15.267  -3.743  0.00  0.00     0.157 C 
ATOM     10  S   UNL d   1      24.896 -13.952  -3.959  0.00  0.00    -0.046 SA
BRANCH   9  11
ATOM     11  N   UNL d   1      25.618 -16.341  -2.776  0.00  0.00    -0.304 N 
ATOM     12  C   UNL d   1      25.234 -16.304  -1.354  0.00  0.00     0.257 C 
ATOM     13  O   UNL d   1      25.869 -15.870  -0.390  0.00  0.00    -0.267 OA
ATOM     14  H   UNL d   1      24.972 -16.959  -3.241  0.00  0.00     0.171 HD
BRANCH  12  15
ATOM     15  C   UNL d   1      24.196 -17.063  -0.706  0.00  0.00     0.032 C 
ATOM     16  C   UNL d   1      24.378 -18.472  -0.494  0.00  0.00     0.017 C 
ATOM     17  C   UNL d   1      23.296 -19.322  -0.430  0.00  0.00     0.008 C 
ATOM     18  C   UNL d   1      22.033 -18.745  -0.458  0.00  0.00    -0.055 C 
ATOM     19  C   UNL d   1      21.885 -17.371  -0.757  0.00  0.00     0.008 C 
ATOM     20  C   UNL d   1      22.956 -16.528  -0.898  0.00  0.00     0.017 C 
BRANCH  18  21
ATOM     21  C   UNL d   1      20.848 -19.593  -0.060  0.00  0.00     0.010 C 
ATOM     22  C   UNL d   1      20.542 -19.335   1.423  0.00  0.00     0.015 C 
ATOM     23  C   UNL d   1      19.625 -19.231  -0.898  0.00  0.00     0.015 C 
ENDBRANCH  18  21
ENDBRANCH  12  15
ENDBRANCH   9  11
ENDBRANCH   7   9
ENDBRANCH   6   7
BRANCH   1  24
ATOM     24  N   UNL d   1      28.853 -15.370  -2.254  0.00  0.00    -0.376 N 
ATOM     25  C   UNL d   1      28.772 -14.396  -1.199  0.00  0.00     0.150 C 
ATOM     26  C   UNL d   1      29.766 -14.782  -0.116  0.00  0.00     0.254 C 
ATOM     27  N   UNL d   1      30.090 -16.236   0.343  0.00  0.00    -0.068 N 
ATOM     28  C   UNL d   1      29.811 -17.224  -0.796  0.00  0.00     0.254 C 
ATOM     29  H   UNL d   1      29.460 -16.362   1.137  0.00  0.00     0.280 HD
ATOM     30  C   UNL d   1      28.676 -16.756  -1.750  0.00  0.00     0.150 C 
BRANCH  27  31
ATOM     31  C   UNL d   1      31.546 -16.584   0.926  0.00  0.00     0.230 C 
ATOM     32  C   UNL d   1      32.429 -17.239  -0.121  0.00  0.00     0.034 C 
ENDBRANCH  27  31
ENDBRANCH   1  24
BRANCH   4  33
ATOM     33  C   UNL d   1      30.652 -13.600  -7.477  0.00  0.00     0.293 C 
ATOM     34  O   UNL d   1      30.060 -12.792  -8.213  0.00  0.00    -0.259 OA
BRANCH  33  35
ATOM     35  O   UNL d   1      31.873 -14.119  -7.744  0.00  0.00    -0.323 OA
ATOM     36  C   UNL d   1      31.881 -15.534  -8.029  0.00  0.00     0.213 C 
ENDBRANCH  33  35
ENDBRANCH   4  33
TORSDOF 9
ENDMDL
MODEL 2
REMARK VINA RESULT:    -9.750      2.158      8.567
REMARK INTER + INTRA:         -14.508
REMARK INTER:                 -12.435
REMARK INTRA:                  -2.074
REMARK CONF_INDEPENDENT:        2.685
REMARK UNBOUND:                -2.074
REMARK  9 active torsions:
REMARK  status: ('A' for Active; 'I' for Inactive)
REMARK    1  A    between atoms: C_2  and  N_3 
REMARK    2  A    between atoms: N_6  and  C_7 
REMARK    3  A    between atoms: C_10  and  C_11 
REMARK    4  A    between atoms: C_11  and  O_13 
REMARK    5  A    between atoms: C_16  and  N_17 
REMARK    6  A    between atoms: N_17  and  C_18 
REMARK    7  A    between atoms: C_18  and  N_20 
REMARK       I    between atoms: N_20  and  C_21 
REMARK    8  A    between atoms: C_21  and  C_23 
REMARK    9  A    between atoms: C_26  and  C_27 
ROOT
ATOM      1  C   UNL d   1      25.675 -17.138  -0.033  0.00  0.00     0.052 A 
ATOM      2  C   UNL d   1      24.965 -18.202   0.593  0.00  0.00     0.032 A 
ATOM      3  C   UNL d   1      23.651 -18.577   0.246  0.00  0.00     0.020 A 
ATOM      4  C   UNL d   1      22.936 -17.859  -0.713  0.00  0.00     0.041 A 
ATOM      5  C   UNL d   1      23.588 -16.764  -1.326  0.00  0.00     0.043 A 
ATOM      6  C   UNL d   1      24.928 -16.343  -0.973  0.00  0.00     0.042 A 
ENDROOT
BRANCH   6   7
ATOM      7  N   UNL d   1      25.404 -15.083  -1.635  0.00  0.00    -0.234 NA
ATOM      8  H   UNL d   1      24.807 -14.338  -1.272  0.00  0.00     0.136 HD
BRANCH   7   9
ATOM      9  C   UNL d   1      25.485 -14.905  -3.023  0.00  0.00     0.157 C 
ATOM     10  S   UNL d   1      24.576 -13.698  -3.742  0.00  0.00    -0.046 SA
BRANCH   9  11
ATOM     11  N   UNL d   1      26.625 -15.550  -3.701  0.00  0.00    -0.304 N 
ATOM     12  C   UNL d   1      27.199 -15.366  -5.045  0.00  0.00     0.257 C 
ATOM     13  O   UNL d   1      26.678 -15.567  -6.145  0.00  0.00    -0.267 OA
ATOM     14  H   UNL d   1      27.389 -15.511  -3.044  0.00  0.00     0.171 HD
BRANCH  12  15
ATOM     15  C   UNL d   1      28.591 -15.242  -5.395  0.00  0.00     0.032 C 
ATOM     16  C   UNL d   1      28.966 -14.436  -6.523  0.00  0.00     0.017 C 
ATOM     17  C   UNL d   1      30.113 -14.710  -7.235  0.00  0.00     0.008 C 
ATOM     18  C   UNL d   1      30.941 -15.712  -6.745  0.00  0.00    -0.055 C 
ATOM     19  C   UNL d   1      30.502 -16.543  -5.689  0.00  0.00     0.008 C 
ATOM     20  C   UNL d   1      29.327 -16.327  -5.020  0.00  0.00     0.017 C 
BRANCH  18  21
ATOM     21  C   UNL d   1      32.344 -15.815  -7.294  0.00  0.00     0.010 C 
ATOM     22  C   UNL d   1      32.433 -17.077  -8.165  0.00  0.00     0.015 C 
ATOM     23  C   UNL d   1      32.679 -14.592  -8.142  0.00  0.00     0.015 C 
ENDBRANCH  18  21
ENDBRANCH  12  15
ENDBRANCH   9  11
ENDBRANCH   7   9
ENDBRANCH   6   7
BRANCH   1  24
ATOM     24  N   UNL d   1      27.014 -16.986   0.324  0.00  0.00    -0.376 N 
ATOM     25  C   UNL d   1      27.474 -15.912   1.162  0.00  0.00     0.150 C 
ATOM     26  C   UNL d   1      28.521 -15.121   0.394  0.00  0.00     0.254 C 
ATOM     27  N   UNL d   1      29.591 -15.724  -0.564  0.00  0.00    -0.068 N 
ATOM     28  C   UNL d   1      29.096 -17.055  -1.140  0.00  0.00     0.254 C 
ATOM     29  H   UNL d   1      30.399 -15.837   0.051  0.00  0.00     0.280 HD
ATOM     30  C   UNL d   1      28.136 -17.818  -0.185  0.00  0.00     0.150 C 
BRANCH  27  31
ATOM     31  C   UNL d   1      30.144 -14.851  -1.795  0.00  0.00     0.230 C 
ATOM     32  C   UNL d   1      29.084 -13.906  -2.335  0.00  0.00     0.034 C 
ENDBRANCH  27  31
ENDBRANCH   1  24
BRANCH   4  33
ATOM     33  C   UNL d   1      21.499 -18.244  -0.956  0.00  0.00     0.293 C 
ATOM     34  O   UNL d   1      20.633 -17.408  -1.270  0.00  0.00    -0.259 OA
BRANCH  33  35
ATOM     35  O   UNL d   1      21.269 -19.573  -0.854  0.00  0.00    -0.323 OA
ATOM     36  C   UNL d   1      20.213 -19.938   0.060  0.00  0.00     0.213 C 
ENDBRANCH  33  35
ENDBRANCH   4  33
TORSDOF 9
ENDMDL
MODEL 3
REMARK VINA RESULT:    -9.573      4.169      6.274
REMARK INTER + INTRA:         -13.950
REMARK INTER:                 -12.258
REMARK INTRA:                  -1.692
REMARK CONF_INDEPENDENT:        2.685
REMARK UNBOUND:                -1.692
REMARK  9 active torsions:
REMARK  status: ('A' for Active; 'I' for Inactive)
REMARK    1  A    between atoms: C_2  and  N_3 
REMARK    2  A    between atoms: N_6  and  C_7 
REMARK    3  A    between atoms: C_10  and  C_11 
REMARK    4  A    between atoms: C_11  and  O_13 
REMARK    5  A    between atoms: C_16  and  N_17 
REMARK    6  A    between atoms: N_17  and  C_18 
REMARK    7  A    between atoms: C_18  and  N_20 
REMARK       I    between atoms: N_20  and  C_21 
REMARK    8  A    between atoms: C_21  and  C_23 
REMARK    9  A    between atoms: C_26  and  C_27 
ROOT
ATOM      1  C   UNL d   1      28.031 -12.415   2.461  0.00  0.00     0.052 A 
ATOM      2  C   UNL d   1      28.565 -11.308   3.179  0.00  0.00     0.032 A 
ATOM      3  C   UNL d   1      27.968 -10.031   3.208  0.00  0.00     0.020 A 
ATOM      4  C   UNL d   1      26.823  -9.764   2.457  0.00  0.00     0.041 A 
ATOM      5  C   UNL d   1      26.286 -10.823   1.690  0.00  0.00     0.043 A 
ATOM      6  C   UNL d   1      26.891 -12.138   1.625  0.00  0.00     0.042 A 
ENDROOT
BRANCH   6   7
ATOM      7  N   UNL d   1      26.255 -13.093   0.658  0.00  0.00    -0.234 NA
ATOM      8  H   UNL d   1      26.301 -14.010   1.104  0.00  0.00     0.136 HD
BRANCH   7   9
ATOM      9  C   UNL d   1      26.669 -13.261  -0.670  0.00  0.00     0.157 C 
ATOM     10  S   UNL d   1      27.979 -12.382  -1.230  0.00  0.00    -0.046 SA
BRANCH   9  11
ATOM     11  N   UNL d   1      26.156 -14.453  -1.371  0.00  0.00    -0.304 N 
ATOM     12  C   UNL d   1      26.122 -15.876  -0.992  0.00  0.00     0.257 C 
ATOM     13  O   UNL d   1      27.063 -16.644  -0.775  0.00  0.00    -0.267 OA
ATOM     14  H   UNL d   1      25.230 -14.207  -1.684  0.00  0.00     0.171 HD
BRANCH  12  15
ATOM     15  C   UNL d   1      25.016 -16.790  -1.115  0.00  0.00     0.032 C 
ATOM     16  C   UNL d   1      23.685 -16.272  -1.263  0.00  0.00     0.017 C 
ATOM     17  C   UNL d   1      22.595 -16.992  -0.827  0.00  0.00     0.008 C 
ATOM     18  C   UNL d   1      22.830 -18.278  -0.356  0.00  0.00    -0.055 C 
ATOM     19  C   UNL d   1      24.155 -18.724  -0.140  0.00  0.00     0.008 C 
ATOM     20  C   UNL d   1      25.249 -17.984  -0.500  0.00  0.00     0.017 C 
BRANCH  18  21
ATOM     21  C   UNL d   1      21.652 -19.206  -0.186  0.00  0.00     0.010 C 
ATOM     22  C   UNL d   1      21.027 -18.951   1.194  0.00  0.00     0.015 C 
ATOM     23  C   UNL d   1      20.607 -18.950  -1.268  0.00  0.00     0.015 C 
ENDBRANCH  18  21
ENDBRANCH  12  15
ENDBRANCH   9  11
ENDBRANCH   7   9
ENDBRANCH   6   7
BRANCH   1  24
ATOM     24  N   UNL d   1      28.660 -13.644   2.649  0.00  0.00    -0.376 N 
ATOM     25  C   UNL d   1      29.585 -13.883   3.723  0.00  0.00     0.150 C 
ATOM     26  C   UNL d   1      30.915 -14.311   3.121  0.00  0.00     0.254 C 
ATOM     27  N   UNL d   1      31.093 -15.224   1.872  0.00  0.00    -0.068 N 
ATOM     28  C   UNL d   1      29.865 -15.120   0.961  0.00  0.00     0.254 C 
ATOM     29  H   UNL d   1      31.198 -16.150   2.288  0.00  0.00     0.280 HD
ATOM     30  C   UNL d   1      28.552 -14.810   1.733  0.00  0.00     0.150 C 
BRANCH  27  31
ATOM     31  C   UNL d   1      32.391 -15.056   0.939  0.00  0.00     0.230 C 
ATOM     32  C   UNL d   1      33.616 -14.662   1.746  0.00  0.00     0.034 C 
ENDBRANCH  27  31
ENDBRANCH   1  24
BRANCH   4  33
ATOM     33  C   UNL d   1      26.301  -8.349   2.445  0.00  0.00     0.293 C 
ATOM     34  O   UNL d   1      26.771  -7.463   3.180  0.00  0.00    -0.259 OA
BRANCH  33  35
ATOM     35  O   UNL d   1      25.327  -8.139   1.529  0.00  0.00    -0.323 OA
ATOM     36  C   UNL d   1      25.770  -7.517   0.304  0.00  0.00     0.213 C 
ENDBRANCH  33  35
ENDBRANCH   4  33
TORSDOF 9
ENDMDL
MODEL 4
REMARK VINA RESULT:    -9.509      3.296      4.010
REMARK INTER + INTRA:         -14.076
REMARK INTER:                 -12.193
REMARK INTRA:                  -1.883
REMARK CONF_INDEPENDENT:        2.685
REMARK UNBOUND:                -1.883
REMARK  9 active torsions:
REMARK  status: ('A' for Active; 'I' for Inactive)
REMARK    1  A    between atoms: C_2  and  N_3 
REMARK    2  A    between atoms: N_6  and  C_7 
REMARK    3  A    between atoms: C_10  and  C_11 
REMARK    4  A    between atoms: C_11  and  O_13 
REMARK    5  A    between atoms: C_16  and  N_17 
REMARK    6  A    between atoms: N_17  and  C_18 
REMARK    7  A    between atoms: C_18  and  N_20 
REMARK       I    between atoms: N_20  and  C_21 
REMARK    8  A    between atoms: C_21  and  C_23 
REMARK    9  A    between atoms: C_26  and  C_27 
ROOT
ATOM      1  C   UNL d   1      27.147 -12.869  -1.497  0.00  0.00     0.052 A 
ATOM      2  C   UNL d   1      27.948 -11.697  -1.399  0.00  0.00     0.032 A 
ATOM      3  C   UNL d   1      27.698 -10.515  -2.126  0.00  0.00     0.020 A 
ATOM      4  C   UNL d   1      26.658 -10.457  -3.054  0.00  0.00     0.041 A 
ATOM      5  C   UNL d   1      25.866 -11.616  -3.217  0.00  0.00     0.043 A 
ATOM      6  C   UNL d   1      26.114 -12.851  -2.501  0.00  0.00     0.042 A 
ENDROOT
BRANCH   6   7
ATOM      7  N   UNL d   1      25.253 -14.013  -2.900  0.00  0.00    -0.234 NA
ATOM      8  H   UNL d   1      24.690 -14.236  -2.078  0.00  0.00     0.136 HD
BRANCH   7   9
ATOM      9  C   UNL d   1      25.749 -15.225  -3.399  0.00  0.00     0.157 C 
ATOM     10  S   UNL d   1      26.981 -15.194  -4.530  0.00  0.00    -0.046 SA
BRANCH   9  11
ATOM     11  N   UNL d   1      25.404 -16.439  -2.635  0.00  0.00    -0.304 N 
ATOM     12  C   UNL d   1      25.175 -16.661  -1.197  0.00  0.00     0.257 C 
ATOM     13  O   UNL d   1      25.961 -16.524  -0.256  0.00  0.00    -0.267 OA
ATOM     14  H   UNL d   1      24.630 -16.859  -3.127  0.00  0.00     0.171 HD
BRANCH  12  15
ATOM     15  C   UNL d   1      24.108 -17.408  -0.584  0.00  0.00     0.032 C 
ATOM     16  C   UNL d   1      24.195 -18.840  -0.519  0.00  0.00     0.017 C 
ATOM     17  C   UNL d   1      23.056 -19.616  -0.494  0.00  0.00     0.008 C 
ATOM     18  C   UNL d   1      21.838 -18.954  -0.411  0.00  0.00    -0.055 C 
ATOM     19  C   UNL d   1      21.781 -17.550  -0.567  0.00  0.00     0.008 C 
ATOM     20  C   UNL d   1      22.904 -16.773  -0.669  0.00  0.00     0.017 C 
BRANCH  18  21
ATOM     21  C   UNL d   1      20.610 -19.754  -0.050  0.00  0.00     0.010 C 
ATOM     22  C   UNL d   1      20.295 -19.516   1.435  0.00  0.00     0.015 C 
ATOM     23  C   UNL d   1      19.418 -19.316  -0.895  0.00  0.00     0.015 C 
ENDBRANCH  18  21
ENDBRANCH  12  15
ENDBRANCH   9  11
ENDBRANCH   7   9
ENDBRANCH   6   7
BRANCH   1  24
ATOM     24  N   UNL d   1      27.441 -13.902  -0.608  0.00  0.00    -0.376 N 
ATOM     25  C   UNL d   1      26.850 -13.990   0.699  0.00  0.00     0.150 C 
ATOM     26  C   UNL d   1      27.968 -13.994   1.730  0.00  0.00     0.254 C 
ATOM     27  N   UNL d   1      29.344 -14.706   1.572  0.00  0.00    -0.068 N 
ATOM     28  C   UNL d   1      29.702 -14.844   0.088  0.00  0.00     0.254 C 
ATOM     29  H   UNL d   1      29.179 -15.607   2.023  0.00  0.00     0.280 HD
ATOM     30  C   UNL d   1      28.456 -14.964  -0.835  0.00  0.00     0.150 C 
BRANCH  27  31
ATOM     31  C   UNL d   1      30.639 -14.116   2.319  0.00  0.00     0.230 C 
ATOM     32  C   UNL d   1      30.341 -13.759   3.764  0.00  0.00     0.034 C 
ENDBRANCH  27  31
ENDBRANCH   1  24
BRANCH   4  33
ATOM     33  C   UNL d   1      26.515  -9.201  -3.876  0.00  0.00     0.293 C 
ATOM     34  O   UNL d   1      27.496  -8.612  -4.361  0.00  0.00    -0.259 OA
BRANCH  33  35
ATOM     35  O   UNL d   1      25.229  -8.826  -4.072  0.00  0.00    -0.323 OA
ATOM     36  C   UNL d   1      25.052  -7.446  -4.458  0.00  0.00     0.213 C 
ENDBRANCH  33  35
ENDBRANCH   4  33
TORSDOF 9
ENDMDL
MODEL 5
REMARK VINA RESULT:    -9.491      2.806      4.429
REMARK INTER + INTRA:         -13.828
REMARK INTER:                 -12.176
REMARK INTRA:                  -1.652
REMARK CONF_INDEPENDENT:        2.685
REMARK UNBOUND:                -1.652
REMARK  9 active torsions:
REMARK  status: ('A' for Active; 'I' for Inactive)
REMARK    1  A    between atoms: C_2  and  N_3 
REMARK    2  A    between atoms: N_6  and  C_7 
REMARK    3  A    between atoms: C_10  and  C_11 
REMARK    4  A    between atoms: C_11  and  O_13 
REMARK    5  A    between atoms: C_16  and  N_17 
REMARK    6  A    between atoms: N_17  and  C_18 
REMARK    7  A    between atoms: C_18  and  N_20 
REMARK       I    between atoms: N_20  and  C_21 
REMARK    8  A    between atoms: C_21  and  C_23 
REMARK    9  A    between atoms: C_26  and  C_27 
ROOT
ATOM      1  C   UNL d   1      28.292 -15.143  -5.039  0.00  0.00     0.052 A 
ATOM      2  C   UNL d   1      29.090 -15.566  -6.139  0.00  0.00     0.032 A 
ATOM      3  C   UNL d   1      30.098 -16.548  -6.043  0.00  0.00     0.020 A 
ATOM      4  C   UNL d   1      30.416 -17.123  -4.814  0.00  0.00     0.041 A 
ATOM      5  C   UNL d   1      29.679 -16.696  -3.685  0.00  0.00     0.043 A 
ATOM      6  C   UNL d   1      28.655 -15.674  -3.750  0.00  0.00     0.042 A 
ENDROOT
BRANCH   6   7
ATOM      7  N   UNL d   1      28.073 -15.259  -2.431  0.00  0.00    -0.234 NA
ATOM      8  H   UNL d   1      28.684 -14.521  -2.079  0.00  0.00     0.136 HD
BRANCH   7   9
ATOM      9  C   UNL d   1      27.834 -16.137  -1.364  0.00  0.00     0.157 C 
ATOM     10  S   UNL d   1      29.135 -16.872  -0.611  0.00  0.00    -0.046 SA
BRANCH   9  11
ATOM     11  N   UNL d   1      26.494 -16.076  -0.753  0.00  0.00    -0.304 N 
ATOM     12  C   UNL d   1      25.152 -16.339  -1.301  0.00  0.00     0.257 C 
ATOM     13  O   UNL d   1      24.556 -15.752  -2.207  0.00  0.00    -0.267 OA
ATOM     14  H   UNL d   1      26.566 -16.588   0.113  0.00  0.00     0.171 HD
BRANCH  12  15
ATOM     15  C   UNL d   1      24.092 -17.104  -0.697  0.00  0.00     0.032 C 
ATOM     16  C   UNL d   1      24.255 -18.521  -0.523  0.00  0.00     0.017 C 
ATOM     17  C   UNL d   1      23.162 -19.360  -0.505  0.00  0.00     0.008 C 
ATOM     18  C   UNL d   1      21.906 -18.768  -0.540  0.00  0.00    -0.055 C 
ATOM     19  C   UNL d   1      21.780 -17.383  -0.801  0.00  0.00     0.008 C 
ATOM     20  C   UNL d   1      22.863 -16.550  -0.896  0.00  0.00     0.017 C 
BRANCH  18  21
ATOM     21  C   UNL d   1      20.705 -19.613  -0.191  0.00  0.00     0.010 C 
ATOM     22  C   UNL d   1      20.494 -19.553   1.329  0.00  0.00     0.015 C 
ATOM     23  C   UNL d   1      19.458 -19.087  -0.895  0.00  0.00     0.015 C 
ENDBRANCH  18  21
ENDBRANCH  12  15
ENDBRANCH   9  11
ENDBRANCH   7   9
ENDBRANCH   6   7
BRANCH   1  24
ATOM     24  N   UNL d   1      27.245 -14.269  -5.326  0.00  0.00    -0.376 N 
ATOM     25  C   UNL d   1      27.415 -13.099  -6.143  0.00  0.00     0.150 C 
ATOM     26  C   UNL d   1      27.014 -11.882  -5.325  0.00  0.00     0.254 C 
ATOM     27  N   UNL d   1      25.832 -11.820  -4.312  0.00  0.00    -0.068 N 
ATOM     28  C   UNL d   1      25.537 -13.218  -3.757  0.00  0.00     0.254 C 
ATOM     29  H   UNL d   1      25.069 -11.454  -4.883  0.00  0.00     0.280 HD
ATOM     30  C   UNL d   1      25.874 -14.359  -4.758  0.00  0.00     0.150 C 
BRANCH  27  31
ATOM     31  C   UNL d   1      25.908 -10.819  -3.056  0.00  0.00     0.230 C 
ATOM     32  C   UNL d   1      26.517  -9.482  -3.440  0.00  0.00     0.034 C 
ENDBRANCH  27  31
ENDBRANCH   1  24
BRANCH   4  33
ATOM     33  C   UNL d   1      31.578 -18.083  -4.763  0.00  0.00     0.293 C 
ATOM     34  O   UNL d   1      32.659 -17.845  -5.328  0.00  0.00    -0.259 OA
BRANCH  33  35
ATOM     35  O   UNL d   1      31.341 -19.180  -4.006  0.00  0.00    -0.323 OA
ATOM     36  C   UNL d   1      30.768 -20.297  -4.719  0.00  0.00     0.213 C 
ENDBRANCH  33  35
ENDBRANCH   4  33
TORSDOF 9
ENDMDL
MODEL 6
REMARK VINA RESULT:    -9.484      1.574      2.069
REMARK INTER + INTRA:         -13.706
REMARK INTER:                 -12.168
REMARK INTRA:                  -1.538
REMARK CONF_INDEPENDENT:        2.685
REMARK UNBOUND:                -1.538
REMARK  9 active torsions:
REMARK  status: ('A' for Active; 'I' for Inactive)
REMARK    1  A    between atoms: C_2  and  N_3 
REMARK    2  A    between atoms: N_6  and  C_7 
REMARK    3  A    between atoms: C_10  and  C_11 
REMARK    4  A    between atoms: C_11  and  O_13 
REMARK    5  A    between atoms: C_16  and  N_17 
REMARK    6  A    between atoms: N_17  and  C_18 
REMARK    7  A    between atoms: C_18  and  N_20 
REMARK       I    between atoms: N_20  and  C_21 
REMARK    8  A    between atoms: C_21  and  C_23 
REMARK    9  A    between atoms: C_26  and  C_27 
ROOT
ATOM      1  C   UNL d   1      29.497 -16.201  -1.958  0.00  0.00     0.052 A 
ATOM      2  C   UNL d   1      30.422 -16.967  -2.723  0.00  0.00     0.032 A 
ATOM      3  C   UNL d   1      30.586 -16.832  -4.117  0.00  0.00     0.020 A 
ATOM      4  C   UNL d   1      29.779 -15.960  -4.848  0.00  0.00     0.041 A 
ATOM      5  C   UNL d   1      28.814 -15.214  -4.133  0.00  0.00     0.043 A 
ATOM      6  C   UNL d   1      28.608 -15.348  -2.706  0.00  0.00     0.042 A 
ENDROOT
BRANCH   6   7
ATOM      7  N   UNL d   1      27.452 -14.573  -2.145  0.00  0.00    -0.234 NA
ATOM      8  H   UNL d   1      27.530 -14.656  -1.130  0.00  0.00     0.136 HD
BRANCH   7   9
ATOM      9  C   UNL d   1      26.111 -14.811  -2.475  0.00  0.00     0.157 C 
ATOM     10  S   UNL d   1      25.368 -13.831  -3.609  0.00  0.00    -0.046 SA
BRANCH   9  11
ATOM     11  N   UNL d   1      25.558 -16.117  -2.071  0.00  0.00    -0.304 N 
ATOM     12  C   UNL d   1      25.233 -16.678  -0.749  0.00  0.00     0.257 C 
ATOM     13  O   UNL d   1      25.986 -16.919   0.199  0.00  0.00    -0.267 OA
ATOM     14  H   UNL d   1      24.756 -16.268  -2.663  0.00  0.00     0.171 HD
BRANCH  12  15
ATOM     15  C   UNL d   1      24.041 -17.391  -0.368  0.00  0.00     0.032 C 
ATOM     16  C   UNL d   1      24.091 -18.818  -0.210  0.00  0.00     0.017 C 
ATOM     17  C   UNL d   1      22.969 -19.591  -0.414  0.00  0.00     0.008 C 
ATOM     18  C   UNL d   1      21.775 -18.925  -0.657  0.00  0.00    -0.055 C 
ATOM     19  C   UNL d   1      21.774 -17.530  -0.895  0.00  0.00     0.008 C 
ATOM     20  C   UNL d   1      22.900 -16.761  -0.768  0.00  0.00     0.017 C 
BRANCH  18  21
ATOM     21  C   UNL d   1      20.485 -19.703  -0.555  0.00  0.00     0.010 C 
ATOM     22  C   UNL d   1      20.341 -20.218   0.885  0.00  0.00     0.015 C 
ATOM     23  C   UNL d   1      19.294 -18.813  -0.895  0.00  0.00     0.015 C 
ENDBRANCH  18  21
ENDBRANCH  12  15
ENDBRANCH   9  11
ENDBRANCH   7   9
ENDBRANCH   6   7
BRANCH   1  24
ATOM     24  N   UNL d   1      29.556 -16.350  -0.574  0.00  0.00    -0.376 N 
ATOM     25  C   UNL d   1      28.552 -15.816   0.305  0.00  0.00     0.150 C 
ATOM     26  C   UNL d   1      29.227 -14.865   1.280  0.00  0.00     0.254 C 
ATOM     27  N   UNL d   1      30.632 -15.069   1.921  0.00  0.00    -0.068 N 
ATOM     28  C   UNL d   1      31.504 -15.946   1.015  0.00  0.00     0.254 C 
ATOM     29  H   UNL d   1      30.407 -15.520   2.809  0.00  0.00     0.280 HD
ATOM     30  C   UNL d   1      30.684 -16.964   0.174  0.00  0.00     0.150 C 
BRANCH  27  31
ATOM     31  C   UNL d   1      31.515 -13.791   2.334  0.00  0.00     0.230 C 
ATOM     32  C   UNL d   1      31.516 -12.732   1.245  0.00  0.00     0.034 C 
ENDBRANCH  27  31
ENDBRANCH   1  24
BRANCH   4  33
ATOM     33  C   UNL d   1      29.932 -15.947  -6.347  0.00  0.00     0.293 C 
ATOM     34  O   UNL d   1      29.082 -15.433  -7.095  0.00  0.00    -0.259 OA
BRANCH  33  35
ATOM     35  O   UNL d   1      31.092 -16.493  -6.779  0.00  0.00    -0.323 OA
ATOM     36  C   UNL d   1      30.951 -17.749  -7.476  0.00  0.00     0.213 C 
ENDBRANCH  33  35
ENDBRANCH   4  33
TORSDOF 9
ENDMDL
MODEL 7
REMARK VINA RESULT:    -8.533      2.988      4.331
REMARK INTER + INTRA:         -14.016
REMARK INTER:                 -11.218
REMARK INTRA:                  -2.799
REMARK CONF_INDEPENDENT:        2.685
REMARK UNBOUND:                -2.799
REMARK  9 active torsions:
REMARK  status: ('A' for Active; 'I' for Inactive)
REMARK    1  A    between atoms: C_2  and  N_3 
REMARK    2  A    between atoms: N_6  and  C_7 
REMARK    3  A    between atoms: C_10  and  C_11 
REMARK    4  A    between atoms: C_11  and  O_13 
REMARK    5  A    between atoms: C_16  and  N_17 
REMARK    6  A    between atoms: N_17  and  C_18 
REMARK    7  A    between atoms: C_18  and  N_20 
REMARK       I    between atoms: N_20  and  C_21 
REMARK    8  A    between atoms: C_21  and  C_23 
REMARK    9  A    between atoms: C_26  and  C_27 
ROOT
ATOM      1  C   UNL d   1      29.105 -13.903  -1.235  0.00  0.00     0.052 A 
ATOM      2  C   UNL d   1      27.982 -13.123  -1.630  0.00  0.00     0.032 A 
ATOM      3  C   UNL d   1      27.048 -13.532  -2.604  0.00  0.00     0.020 A 
ATOM      4  C   UNL d   1      27.221 -14.730  -3.297  0.00  0.00     0.041 A 
ATOM      5  C   UNL d   1      28.351 -15.514  -2.969  0.00  0.00     0.043 A 
ATOM      6  C   UNL d   1      29.337 -15.108  -1.989  0.00  0.00     0.042 A 
ENDROOT
BRANCH   6   7
ATOM      7  N   UNL d   1      30.534 -16.006  -1.869  0.00  0.00    -0.234 NA
ATOM      8  H   UNL d   1      30.656 -16.429  -2.789  0.00  0.00     0.136 HD
BRANCH   7   9
ATOM      9  C   UNL d   1      30.655 -17.034  -0.924  0.00  0.00     0.157 C 
ATOM     10  S   UNL d   1      32.183 -17.534  -0.459  0.00  0.00    -0.046 SA
BRANCH   9  11
ATOM     11  N   UNL d   1      29.445 -17.354  -0.145  0.00  0.00    -0.304 N 
ATOM     12  C   UNL d   1      28.336 -16.512   0.336  0.00  0.00     0.257 C 
ATOM     13  O   UNL d   1      28.367 -15.570   1.131  0.00  0.00    -0.267 OA
ATOM     14  H   UNL d   1      29.033 -18.155  -0.599  0.00  0.00     0.171 HD
BRANCH  12  15
ATOM     15  C   UNL d   1      26.926 -16.795   0.266  0.00  0.00     0.032 C 
ATOM     16  C   UNL d   1      26.467 -18.144   0.442  0.00  0.00     0.017 C 
ATOM     17  C   UNL d   1      25.299 -18.575  -0.148  0.00  0.00     0.008 C 
ATOM     18  C   UNL d   1      24.533 -17.624  -0.810  0.00  0.00    -0.055 C 
ATOM     19  C   UNL d   1      25.053 -16.329  -1.042  0.00  0.00     0.008 C 
ATOM     20  C   UNL d   1      26.250 -15.912  -0.524  0.00  0.00     0.017 C 
BRANCH  18  21
ATOM     21  C   UNL d   1      23.111 -17.975  -1.175  0.00  0.00     0.010 C 
ATOM     22  C   UNL d   1      22.740 -19.291  -0.475  0.00  0.00     0.015 C 
ATOM     23  C   UNL d   1      22.155 -16.875  -0.722  0.00  0.00     0.015 C 
ENDBRANCH  18  21
ENDBRANCH  12  15
ENDBRANCH   9  11
ENDBRANCH   7   9
ENDBRANCH   6   7
BRANCH   1  24
ATOM     24  N   UNL d   1      29.851 -13.425  -0.159  0.00  0.00    -0.376 N 
ATOM     25  C   UNL d   1      31.082 -14.037   0.262  0.00  0.00     0.150 C 
ATOM     26  C   UNL d   1      30.933 -14.461   1.714  0.00  0.00     0.254 C 
ATOM     27  N   UNL d   1      30.173 -13.666   2.818  0.00  0.00    -0.068 N 
ATOM     28  C   UNL d   1      29.087 -12.788   2.185  0.00  0.00     0.254 C 
ATOM     29  H   UNL d   1      30.919 -13.119   3.250  0.00  0.00     0.280 HD
ATOM     30  C   UNL d   1      29.439 -12.320   0.745  0.00  0.00     0.150 C 
BRANCH  27  31
ATOM     31  C   UNL d   1      29.492 -14.452   4.043  0.00  0.00     0.230 C 
ATOM     32  C   UNL d   1      28.072 -13.978   4.296  0.00  0.00     0.034 C 
ENDBRANCH  27  31
ENDBRANCH   1  24
BRANCH   4  33
ATOM     33  C   UNL d   1      26.248 -15.052  -4.403  0.00  0.00     0.293 C 
ATOM     34  O   UNL d   1      25.033 -14.806  -4.309  0.00  0.00    -0.259 OA
BRANCH  33  35
ATOM     35  O   UNL d   1      26.835 -15.575  -5.505  0.00  0.00    -0.323 OA
ATOM     36  C   UNL d   1      27.800 -14.713  -6.145  0.00  0.00     0.213 C 
ENDBRANCH  33  35
ENDBRANCH   4  33
TORSDOF 9
ENDMDL
MODEL 8
REMARK VINA RESULT:    -8.368      3.314      7.338
REMARK INTER + INTRA:         -13.663
REMARK INTER:                 -11.053
REMARK INTRA:                  -2.610
REMARK CONF_INDEPENDENT:        2.685
REMARK UNBOUND:                -2.610
REMARK  9 active torsions:
REMARK  status: ('A' for Active; 'I' for Inactive)
REMARK    1  A    between atoms: C_2  and  N_3 
REMARK    2  A    between atoms: N_6  and  C_7 
REMARK    3  A    between atoms: C_10  and  C_11 
REMARK    4  A    between atoms: C_11  and  O_13 
REMARK    5  A    between atoms: C_16  and  N_17 
REMARK    6  A    between atoms: N_17  and  C_18 
REMARK    7  A    between atoms: C_18  and  N_20 
REMARK       I    between atoms: N_20  and  C_21 
REMARK    8  A    between atoms: C_21  and  C_23 
REMARK    9  A    between atoms: C_26  and  C_27 
ROOT
ATOM      1  C   UNL d   1      26.562 -17.079  -1.235  0.00  0.00     0.052 A 
ATOM      2  C   UNL d   1      26.008 -18.011  -0.313  0.00  0.00     0.032 A 
ATOM      3  C   UNL d   1      24.635 -18.327  -0.248  0.00  0.00     0.020 A 
ATOM      4  C   UNL d   1      23.715 -17.671  -1.065  0.00  0.00     0.041 A 
ATOM      5  C   UNL d   1      24.217 -16.702  -1.964  0.00  0.00     0.043 A 
ATOM      6  C   UNL d   1      25.618 -16.342  -2.037  0.00  0.00     0.042 A 
ENDROOT
BRANCH   6   7
ATOM      7  N   UNL d   1      25.944 -15.202  -2.956  0.00  0.00    -0.234 NA
ATOM      8  H   UNL d   1      26.693 -15.540  -3.561  0.00  0.00     0.136 HD
BRANCH   7   9
ATOM      9  C   UNL d   1      26.314 -13.921  -2.521  0.00  0.00     0.157 C 
ATOM     10  S   UNL d   1      25.607 -12.585  -3.238  0.00  0.00    -0.046 SA
BRANCH   9  11
ATOM     11  N   UNL d   1      27.023 -13.847  -1.231  0.00  0.00    -0.304 N 
ATOM     12  C   UNL d   1      27.001 -12.840  -0.156  0.00  0.00     0.257 C 
ATOM     13  O   UNL d   1      27.344 -11.655  -0.195  0.00  0.00    -0.267 OA
ATOM     14  H   UNL d   1      26.894 -14.747  -0.796  0.00  0.00     0.171 HD
BRANCH  12  15
ATOM     15  C   UNL d   1      26.904 -13.073   1.262  0.00  0.00     0.032 C 
ATOM     16  C   UNL d   1      26.932 -11.956   2.165  0.00  0.00     0.017 C 
ATOM     17  C   UNL d   1      27.405 -12.100   3.451  0.00  0.00     0.008 C 
ATOM     18  C   UNL d   1      27.734 -13.384   3.867  0.00  0.00    -0.055 C 
ATOM     19  C   UNL d   1      27.781 -14.444   2.931  0.00  0.00     0.008 C 
ATOM     20  C   UNL d   1      27.384 -14.295   1.629  0.00  0.00     0.017 C 
BRANCH  18  21
ATOM     21  C   UNL d   1      27.933 -13.631   5.343  0.00  0.00     0.010 C 
ATOM     22  C   UNL d   1      28.886 -14.825   5.511  0.00  0.00     0.015 C 
ATOM     23  C   UNL d   1      28.540 -12.403   6.015  0.00  0.00     0.015 C 
ENDBRANCH  18  21
ENDBRANCH  12  15
ENDBRANCH   9  11
ENDBRANCH   7   9
ENDBRANCH   6   7
BRANCH   1  24
ATOM     24  N   UNL d   1      27.952 -16.984  -1.270  0.00  0.00    -0.376 N 
ATOM     25  C   UNL d   1      28.779 -17.328  -0.145  0.00  0.00     0.150 C 
ATOM     26  C   UNL d   1      29.603 -16.107   0.232  0.00  0.00     0.254 C 
ATOM     27  N   UNL d   1      30.229 -15.091  -0.769  0.00  0.00    -0.068 N 
ATOM     28  C   UNL d   1      29.424 -15.069  -2.074  0.00  0.00     0.254 C 
ATOM     29  H   UNL d   1      31.174 -15.457  -0.895  0.00  0.00     0.280 HD
ATOM     30  C   UNL d   1      28.745 -16.429  -2.398  0.00  0.00     0.150 C 
BRANCH  27  31
ATOM     31  C   UNL d   1      30.449 -13.562  -0.323  0.00  0.00     0.230 C 
ATOM     32  C   UNL d   1      30.942 -13.460   1.110  0.00  0.00     0.034 C 
ENDBRANCH  27  31
ENDBRANCH   1  24
BRANCH   4  33
ATOM     33  C   UNL d   1      22.252 -17.976  -0.866  0.00  0.00     0.293 C 
ATOM     34  O   UNL d   1      21.381 -17.089  -0.894  0.00  0.00    -0.259 OA
BRANCH  33  35
ATOM     35  O   UNL d   1      21.989 -19.294  -0.713  0.00  0.00    -0.323 OA
ATOM     36  C   UNL d   1      20.595 -19.617  -0.521  0.00  0.00     0.213 C 
ENDBRANCH  33  35
ENDBRANCH   4  33
TORSDOF 9
ENDMDL
