MODEL 1
REMARK VINA RESULT:    -8.666      0.000      0.000
REMARK INTER + INTRA:         -14.196
REMARK INTER:                 -11.649
REMARK INTRA:                  -2.546
REMARK CONF_INDEPENDENT:        2.983
REMARK UNBOUND:                -2.546
REMARK  10 active torsions:
REMARK  status: ('A' for Active; 'I' for Inactive)
REMARK    1  A    between atoms: C_2  and  O_3 
REMARK    2  A    between atoms: O_3  and  C_4 
REMARK    3  A    between atoms: C_4  and  C_6 
REMARK    4  A    between atoms: C_9  and  N_10 
REMARK    5  A    between atoms: N_13  and  C_14 
REMARK    6  A    between atoms: C_18  and  N_19 
REMARK    7  A    between atoms: N_19  and  C_20 
REMARK    8  A    between atoms: C_20  and  N_22 
REMARK       I    between atoms: N_22  and  C_23 
REMARK    9  A    between atoms: C_23  and  C_25 
REMARK   10  A    between atoms: C_31  and  O_32 
ROOT
ATOM      1  C   UNL d   1      23.598 -17.498  -0.906  0.00  0.00     0.041 A 
ATOM      2  C   UNL d   1      24.594 -18.046  -0.136  0.00  0.00     0.020 A 
ATOM      3  C   UNL d   1      25.902 -17.495  -0.204  0.00  0.00     0.033 A 
ATOM      4  C   UNL d   1      26.276 -16.385  -1.042  0.00  0.00     0.057 A 
ATOM      5  C   UNL d   1      25.206 -15.759  -1.748  0.00  0.00     0.062 A 
ATOM      6  C   UNL d   1      23.951 -16.388  -1.647  0.00  0.00     0.049 A 
ENDROOT
BRANCH   5   7
ATOM      7  N   UNL d   1      25.290 -14.525  -2.530  0.00  0.00    -0.331 N 
ATOM      8  H   UNL d   1      25.043 -13.708  -2.007  0.00  0.00     0.168 HD
BRANCH   7   9
ATOM      9  C   UNL d   1      25.652 -14.375  -3.918  0.00  0.00     0.179 C 
ATOM     10  S   UNL d   1      25.865 -15.592  -5.070  0.00  0.00    -0.040 SA
BRANCH   9  11
ATOM     11  N   UNL d   1      25.911 -13.046  -4.317  0.00  0.00    -0.299 N 
ATOM     12  C   UNL d   1      26.140 -12.005  -3.389  0.00  0.00     0.260 C 
ATOM     13  O   UNL d   1      26.504 -12.132  -2.221  0.00  0.00    -0.267 OA
ATOM     14  H   UNL d   1      25.817 -12.777  -5.284  0.00  0.00     0.171 HD
BRANCH  12  15
ATOM     15  C   UNL d   1      25.979 -10.595  -3.744  0.00  0.00     0.066 A 
ATOM     16  C   UNL d   1      25.951  -9.765  -2.593  0.00  0.00     0.020 A 
ATOM     17  C   UNL d   1      25.528  -8.448  -2.657  0.00  0.00     0.002 A 
ATOM     18  C   UNL d   1      25.193  -7.917  -3.891  0.00  0.00     0.009 A 
ATOM     19  C   UNL d   1      25.181  -8.729  -5.041  0.00  0.00    -0.028 A 
ATOM     20  C   UNL d   1      24.715  -8.127  -6.338  0.00  0.00     0.051 C 
ATOM     21  C   UNL d   1      25.538 -10.099  -4.978  0.00  0.00     0.089 A 
BRANCH  21  22
ATOM     22  O   UNL d   1      25.324 -10.752  -6.167  0.00  0.00    -0.354 OA
ATOM     23  C   UNL d   1      26.365 -10.863  -7.111  0.00  0.00     0.210 C 
ENDBRANCH  21  22
ENDBRANCH  12  15
ENDBRANCH   9  11
ENDBRANCH   7   9
ENDBRANCH   5   7
BRANCH   4  24
ATOM     24  N   UNL d   1      27.633 -16.065  -1.108  0.00  0.00    -0.376 N 
ATOM     25  C   UNL d   1      28.289 -15.245  -2.123  0.00  0.00     0.150 C 
ATOM     26  C   UNL d   1      29.272 -16.115  -2.953  0.00  0.00     0.254 C 
ATOM     27  N   UNL d   1      30.263 -16.913  -2.072  0.00  0.00    -0.068 N 
ATOM     28  C   UNL d   1      29.533 -17.615  -0.891  0.00  0.00     0.254 C 
ATOM     29  H   UNL d   1      30.924 -16.234  -1.671  0.00  0.00     0.280 HD
ATOM     30  C   UNL d   1      28.586 -16.646  -0.138  0.00  0.00     0.150 C 
BRANCH  27  31
ATOM     31  C   UNL d   1      31.077 -17.887  -2.922  0.00  0.00     0.230 C 
ATOM     32  C   UNL d   1      30.764 -17.753  -4.403  0.00  0.00     0.034 C 
ENDBRANCH  27  31
ENDBRANCH   4  24
BRANCH   1  33
ATOM     33  C   UNL d   1      22.143 -17.858  -0.885  0.00  0.00     0.293 C 
ATOM     34  O   UNL d   1      21.256 -17.004  -0.895  0.00  0.00    -0.259 OA
BRANCH  33  35
ATOM     35  O   UNL d   1      21.947 -19.211  -0.913  0.00  0.00    -0.318 OA
BRANCH  35  36
ATOM     36  C   UNL d   1      20.860 -19.710  -0.096  0.00  0.00     0.174 C 
ATOM     37  C   UNL d   1      19.506 -19.426  -0.742  0.00  0.00     0.034 C 
ENDBRANCH  35  36
ENDBRANCH  33  35
ENDBRANCH   1  33
TORSDOF 10
ENDMDL
MODEL 2
REMARK VINA RESULT:    -8.664      3.122      5.080
REMARK INTER + INTRA:         -13.681
REMARK INTER:                 -11.647
REMARK INTRA:                  -2.034
REMARK CONF_INDEPENDENT:        2.983
REMARK UNBOUND:                -2.034
REMARK  10 active torsions:
REMARK  status: ('A' for Active; 'I' for Inactive)
REMARK    1  A    between atoms: C_2  and  O_3 
REMARK    2  A    between atoms: O_3  and  C_4 
REMARK    3  A    between atoms: C_4  and  C_6 
REMARK    4  A    between atoms: C_9  and  N_10 
REMARK    5  A    between atoms: N_13  and  C_14 
REMARK    6  A    between atoms: C_18  and  N_19 
REMARK    7  A    between atoms: N_19  and  C_20 
REMARK    8  A    between atoms: C_20  and  N_22 
REMARK       I    between atoms: N_22  and  C_23 
REMARK    9  A    between atoms: C_23  and  C_25 
REMARK   10  A    between atoms: C_31  and  O_32 
ROOT
ATOM      1  C   UNL d   1      24.455 -17.902  -0.881  0.00  0.00     0.041 A 
ATOM      2  C   UNL d   1      25.290 -17.868   0.207  0.00  0.00     0.020 A 
ATOM      3  C   UNL d   1      26.468 -17.075   0.150  0.00  0.00     0.033 A 
ATOM      4  C   UNL d   1      26.867 -16.291  -0.991  0.00  0.00     0.057 A 
ATOM      5  C   UNL d   1      25.933 -16.250  -2.067  0.00  0.00     0.062 A 
ATOM      6  C   UNL d   1      24.810 -17.089  -1.939  0.00  0.00     0.049 A 
ENDROOT
BRANCH   5   7
ATOM      7  N   UNL d   1      26.022 -15.407  -3.260  0.00  0.00    -0.331 N 
ATOM      8  H   UNL d   1      25.739 -15.876  -4.098  0.00  0.00     0.168 HD
BRANCH   7   9
ATOM      9  C   UNL d   1      26.477 -14.042  -3.352  0.00  0.00     0.179 C 
ATOM     10  S   UNL d   1      25.826 -12.680  -2.592  0.00  0.00    -0.040 SA
BRANCH   9  11
ATOM     11  N   UNL d   1      27.559 -13.841  -4.237  0.00  0.00    -0.299 N 
ATOM     12  C   UNL d   1      27.871 -14.750  -5.273  0.00  0.00     0.260 C 
ATOM     13  O   UNL d   1      27.110 -15.574  -5.778  0.00  0.00    -0.267 OA
ATOM     14  H   UNL d   1      28.219 -13.097  -4.074  0.00  0.00     0.171 HD
BRANCH  12  15
ATOM     15  C   UNL d   1      29.192 -14.795  -5.898  0.00  0.00     0.066 A 
ATOM     16  C   UNL d   1      29.495 -13.584  -6.574  0.00  0.00     0.020 A 
ATOM     17  C   UNL d   1      30.549 -13.494  -7.467  0.00  0.00     0.002 A 
ATOM     18  C   UNL d   1      31.365 -14.598  -7.646  0.00  0.00     0.009 A 
ATOM     19  C   UNL d   1      31.067 -15.819  -7.012  0.00  0.00    -0.028 A 
ATOM     20  C   UNL d   1      31.929 -17.014  -7.317  0.00  0.00     0.051 C 
ATOM     21  C   UNL d   1      29.947 -15.949  -6.154  0.00  0.00     0.089 A 
BRANCH  21  22
ATOM     22  O   UNL d   1      29.741 -17.245  -5.751  0.00  0.00    -0.354 OA
ATOM     23  C   UNL d   1      30.307 -17.711  -4.548  0.00  0.00     0.210 C 
ENDBRANCH  21  22
ENDBRANCH  12  15
ENDBRANCH   9  11
ENDBRANCH   7   9
ENDBRANCH   5   7
BRANCH   4  24
ATOM     24  N   UNL d   1      28.127 -15.692  -0.943  0.00  0.00    -0.376 N 
ATOM     25  C   UNL d   1      29.408 -16.326  -1.246  0.00  0.00     0.150 C 
ATOM     26  C   UNL d   1      30.278 -16.407   0.037  0.00  0.00     0.254 C 
ATOM     27  N   UNL d   1      30.422 -15.042   0.755  0.00  0.00    -0.068 N 
ATOM     28  C   UNL d   1      29.048 -14.322   0.883  0.00  0.00     0.254 C 
ATOM     29  H   UNL d   1      31.028 -14.454   0.167  0.00  0.00     0.280 HD
ATOM     30  C   UNL d   1      28.277 -14.303  -0.462  0.00  0.00     0.150 C 
BRANCH  27  31
ATOM     31  C   UNL d   1      31.124 -15.212   2.101  0.00  0.00     0.230 C 
ATOM     32  C   UNL d   1      30.612 -14.231   3.142  0.00  0.00     0.034 C 
ENDBRANCH  27  31
ENDBRANCH   4  24
BRANCH   1  33
ATOM     33  C   UNL d   1      23.120 -18.577  -0.970  0.00  0.00     0.293 C 
ATOM     34  O   UNL d   1      22.769 -19.208  -1.968  0.00  0.00    -0.259 OA
BRANCH  33  35
ATOM     35  O   UNL d   1      22.400 -18.450   0.185  0.00  0.00    -0.318 OA
BRANCH  35  36
ATOM     36  C   UNL d   1      21.217 -19.278   0.290  0.00  0.00     0.174 C 
ATOM     37  C   UNL d   1      20.210 -18.947  -0.810  0.00  0.00     0.034 C 
ENDBRANCH  35  36
ENDBRANCH  33  35
ENDBRANCH   1  33
TORSDOF 10
ENDMDL
MODEL 3
REMARK VINA RESULT:    -8.566      1.176      2.001
REMARK INTER + INTRA:         -14.097
REMARK INTER:                 -11.549
REMARK INTRA:                  -2.548
REMARK CONF_INDEPENDENT:        2.983
REMARK UNBOUND:                -2.548
REMARK  10 active torsions:
REMARK  status: ('A' for Active; 'I' for Inactive)
REMARK    1  A    between atoms: C_2  and  O_3 
REMARK    2  A    between atoms: O_3  and  C_4 
REMARK    3  A    between atoms: C_4  and  C_6 
REMARK    4  A    between atoms: C_9  and  N_10 
REMARK    5  A    between atoms: N_13  and  C_14 
REMARK    6  A    between atoms: C_18  and  N_19 
REMARK    7  A    between atoms: N_19  and  C_20 
REMARK    8  A    between atoms: C_20  and  N_22 
REMARK       I    between atoms: N_22  and  C_23 
REMARK    9  A    between atoms: C_23  and  C_25 
REMARK   10  A    between atoms: C_31  and  O_32 
ROOT
ATOM      1  C   UNL d   1      23.753 -17.453  -0.923  0.00  0.00     0.041 A 
ATOM      2  C   UNL d   1      24.752 -18.000  -0.156  0.00  0.00     0.020 A 
ATOM      3  C   UNL d   1      26.061 -17.452  -0.233  0.00  0.00     0.033 A 
ATOM      4  C   UNL d   1      26.432 -16.346  -1.076  0.00  0.00     0.057 A 
ATOM      5  C   UNL d   1      25.360 -15.720  -1.778  0.00  0.00     0.062 A 
ATOM      6  C   UNL d   1      24.104 -16.346  -1.669  0.00  0.00     0.049 A 
ENDROOT
BRANCH   5   7
ATOM      7  N   UNL d   1      25.442 -14.488  -2.565  0.00  0.00    -0.331 N 
ATOM      8  H   UNL d   1      25.249 -13.664  -2.030  0.00  0.00     0.168 HD
BRANCH   7   9
ATOM      9  C   UNL d   1      25.735 -14.347  -3.970  0.00  0.00     0.179 C 
ATOM     10  S   UNL d   1      25.927 -15.575  -5.115  0.00  0.00    -0.040 SA
BRANCH   9  11
ATOM     11  N   UNL d   1      25.940 -13.018  -4.397  0.00  0.00    -0.299 N 
ATOM     12  C   UNL d   1      26.255 -11.972  -3.501  0.00  0.00     0.260 C 
ATOM     13  O   UNL d   1      26.739 -12.092  -2.377  0.00  0.00    -0.267 OA
ATOM     14  H   UNL d   1      25.744 -12.754  -5.350  0.00  0.00     0.171 HD
BRANCH  12  15
ATOM     15  C   UNL d   1      26.046 -10.565  -3.841  0.00  0.00     0.066 A 
ATOM     16  C   UNL d   1      26.003  -9.746  -2.682  0.00  0.00     0.020 A 
ATOM     17  C   UNL d   1      25.537  -8.443  -2.731  0.00  0.00     0.002 A 
ATOM     18  C   UNL d   1      25.174  -7.912  -3.956  0.00  0.00     0.009 A 
ATOM     19  C   UNL d   1      25.178  -8.713  -5.114  0.00  0.00    -0.028 A 
ATOM     20  C   UNL d   1      24.680  -8.115  -6.401  0.00  0.00     0.051 C 
ATOM     21  C   UNL d   1      25.579 -10.071  -5.067  0.00  0.00     0.089 A 
BRANCH  21  22
ATOM     22  O   UNL d   1      25.375 -10.720  -6.260  0.00  0.00    -0.354 OA
ATOM     23  C   UNL d   1      26.430 -10.851  -7.184  0.00  0.00     0.210 C 
ENDBRANCH  21  22
ENDBRANCH  12  15
ENDBRANCH   9  11
ENDBRANCH   7   9
ENDBRANCH   5   7
BRANCH   4  24
ATOM     24  N   UNL d   1      27.790 -16.028  -1.150  0.00  0.00    -0.376 N 
ATOM     25  C   UNL d   1      28.910 -16.962  -1.068  0.00  0.00     0.150 C 
ATOM     26  C   UNL d   1      29.734 -16.690   0.220  0.00  0.00     0.254 C 
ATOM     27  N   UNL d   1      30.156 -15.207   0.364  0.00  0.00    -0.068 N 
ATOM     28  C   UNL d   1      28.964 -14.248   0.080  0.00  0.00     0.254 C 
ATOM     29  H   UNL d   1      30.877 -15.028  -0.348  0.00  0.00     0.280 HD
ATOM     30  C   UNL d   1      28.225 -14.618  -1.232  0.00  0.00     0.150 C 
BRANCH  27  31
ATOM     31  C   UNL d   1      30.797 -14.959   1.729  0.00  0.00     0.230 C 
ATOM     32  C   UNL d   1      30.075 -13.875   2.512  0.00  0.00     0.034 C 
ENDBRANCH  27  31
ENDBRANCH   4  24
BRANCH   1  33
ATOM     33  C   UNL d   1      22.297 -17.810  -0.894  0.00  0.00     0.293 C 
ATOM     34  O   UNL d   1      21.412 -16.954  -0.880  0.00  0.00    -0.259 OA
BRANCH  33  35
ATOM     35  O   UNL d   1      22.098 -19.162  -0.942  0.00  0.00    -0.318 OA
BRANCH  35  36
ATOM     36  C   UNL d   1      21.079 -19.684  -0.055  0.00  0.00     0.174 C 
ATOM     37  C   UNL d   1      19.679 -19.425  -0.607  0.00  0.00     0.034 C 
ENDBRANCH  35  36
ENDBRANCH  33  35
ENDBRANCH   1  33
TORSDOF 10
ENDMDL
MODEL 4
REMARK VINA RESULT:    -8.431      2.726      4.264
REMARK INTER + INTRA:         -13.612
REMARK INTER:                 -11.414
REMARK INTRA:                  -2.197
REMARK CONF_INDEPENDENT:        2.983
REMARK UNBOUND:                -2.197
REMARK  10 active torsions:
REMARK  status: ('A' for Active; 'I' for Inactive)
REMARK    1  A    between atoms: C_2  and  O_3 
REMARK    2  A    between atoms: O_3  and  C_4 
REMARK    3  A    between atoms: C_4  and  C_6 
REMARK    4  A    between atoms: C_9  and  N_10 
REMARK    5  A    between atoms: N_13  and  C_14 
REMARK    6  A    between atoms: C_18  and  N_19 
REMARK    7  A    between atoms: N_19  and  C_20 
REMARK    8  A    between atoms: C_20  and  N_22 
REMARK       I    between atoms: N_22  and  C_23 
REMARK    9  A    between atoms: C_23  and  C_25 
REMARK   10  A    between atoms: C_31  and  O_32 
ROOT
ATOM      1  C   UNL d   1      24.221 -17.801  -0.967  0.00  0.00     0.041 A 
ATOM      2  C   UNL d   1      25.015 -17.672   0.145  0.00  0.00     0.020 A 
ATOM      3  C   UNL d   1      26.150 -16.817   0.089  0.00  0.00     0.033 A 
ATOM      4  C   UNL d   1      26.544 -16.064  -1.073  0.00  0.00     0.057 A 
ATOM      5  C   UNL d   1      25.646 -16.123  -2.179  0.00  0.00     0.062 A 
ATOM      6  C   UNL d   1      24.566 -17.016  -2.048  0.00  0.00     0.049 A 
ENDROOT
BRANCH   5   7
ATOM      7  N   UNL d   1      25.730 -15.329  -3.406  0.00  0.00    -0.331 N 
ATOM      8  H   UNL d   1      25.463 -15.838  -4.226  0.00  0.00     0.168 HD
BRANCH   7   9
ATOM      9  C   UNL d   1      26.160 -13.960  -3.552  0.00  0.00     0.179 C 
ATOM     10  S   UNL d   1      25.569 -12.598  -2.747  0.00  0.00    -0.040 SA
BRANCH   9  11
ATOM     11  N   UNL d   1      27.152 -13.759  -4.537  0.00  0.00    -0.299 N 
ATOM     12  C   UNL d   1      27.412 -14.700  -5.558  0.00  0.00     0.260 C 
ATOM     13  O   UNL d   1      26.646 -15.575  -5.959  0.00  0.00    -0.267 OA
ATOM     14  H   UNL d   1      27.791 -12.983  -4.463  0.00  0.00     0.171 HD
BRANCH  12  15
ATOM     15  C   UNL d   1      28.675 -14.722  -6.294  0.00  0.00     0.066 A 
ATOM     16  C   UNL d   1      29.565 -15.700  -5.780  0.00  0.00     0.020 A 
ATOM     17  C   UNL d   1      30.907 -15.714  -6.123  0.00  0.00     0.002 A 
ATOM     18  C   UNL d   1      31.367 -14.790  -7.045  0.00  0.00     0.009 A 
ATOM     19  C   UNL d   1      30.511 -13.790  -7.545  0.00  0.00    -0.028 A 
ATOM     20  C   UNL d   1      31.085 -12.751  -8.469  0.00  0.00     0.051 C 
ATOM     21  C   UNL d   1      29.153 -13.716  -7.145  0.00  0.00     0.089 A 
BRANCH  21  22
ATOM     22  O   UNL d   1      28.525 -12.592  -7.624  0.00  0.00    -0.354 OA
ATOM     23  C   UNL d   1      28.052 -11.611  -6.731  0.00  0.00     0.210 C 
ENDBRANCH  21  22
ENDBRANCH  12  15
ENDBRANCH   9  11
ENDBRANCH   7   9
ENDBRANCH   5   7
BRANCH   4  24
ATOM     24  N   UNL d   1      27.767 -15.394  -1.013  0.00  0.00    -0.376 N 
ATOM     25  C   UNL d   1      28.868 -15.498  -1.967  0.00  0.00     0.150 C 
ATOM     26  C   UNL d   1      30.101 -16.153  -1.287  0.00  0.00     0.254 C 
ATOM     27  N   UNL d   1      30.499 -15.458   0.038  0.00  0.00    -0.068 N 
ATOM     28  C   UNL d   1      29.255 -15.200   0.938  0.00  0.00     0.254 C 
ATOM     29  H   UNL d   1      30.899 -14.543  -0.210  0.00  0.00     0.280 HD
ATOM     30  C   UNL d   1      28.096 -14.540   0.148  0.00  0.00     0.150 C 
BRANCH  27  31
ATOM     31  C   UNL d   1      31.590 -16.250   0.755  0.00  0.00     0.230 C 
ATOM     32  C   UNL d   1      31.907 -15.676   2.126  0.00  0.00     0.034 C 
ENDBRANCH  27  31
ENDBRANCH   4  24
BRANCH   1  33
ATOM     33  C   UNL d   1      22.928 -18.553  -1.067  0.00  0.00     0.293 C 
ATOM     34  O   UNL d   1      22.688 -19.324  -1.996  0.00  0.00    -0.259 OA
BRANCH  33  35
ATOM     35  O   UNL d   1      22.111 -18.318   0.004  0.00  0.00    -0.318 OA
BRANCH  35  36
ATOM     36  C   UNL d   1      21.070 -19.297   0.235  0.00  0.00     0.174 C 
ATOM     37  C   UNL d   1      19.864 -19.046  -0.668  0.00  0.00     0.034 C 
ENDBRANCH  35  36
ENDBRANCH  33  35
ENDBRANCH   1  33
TORSDOF 10
ENDMDL
MODEL 5
REMARK VINA RESULT:    -8.241      2.222      3.463
REMARK INTER + INTRA:         -14.511
REMARK INTER:                 -11.224
REMARK INTRA:                  -3.287
REMARK CONF_INDEPENDENT:        2.983
REMARK UNBOUND:                -3.287
REMARK  10 active torsions:
REMARK  status: ('A' for Active; 'I' for Inactive)
REMARK    1  A    between atoms: C_2  and  O_3 
REMARK    2  A    between atoms: O_3  and  C_4 
REMARK    3  A    between atoms: C_4  and  C_6 
REMARK    4  A    between atoms: C_9  and  N_10 
REMARK    5  A    between atoms: N_13  and  C_14 
REMARK    6  A    between atoms: C_18  and  N_19 
REMARK    7  A    between atoms: N_19  and  C_20 
REMARK    8  A    between atoms: C_20  and  N_22 
REMARK       I    between atoms: N_22  and  C_23 
REMARK    9  A    between atoms: C_23  and  C_25 
REMARK   10  A    between atoms: C_31  and  O_32 
ROOT
ATOM      1  C   UNL d   1      23.311 -17.847  -0.709  0.00  0.00     0.041 A 
ATOM      2  C   UNL d   1      24.107 -18.232   0.341  0.00  0.00     0.020 A 
ATOM      3  C   UNL d   1      25.468 -17.824   0.361  0.00  0.00     0.033 A 
ATOM      4  C   UNL d   1      26.095 -17.025  -0.661  0.00  0.00     0.057 A 
ATOM      5  C   UNL d   1      25.225 -16.541  -1.683  0.00  0.00     0.062 A 
ATOM      6  C   UNL d   1      23.902 -17.019  -1.642  0.00  0.00     0.049 A 
ENDROOT
BRANCH   5   7
ATOM      7  N   UNL d   1      25.574 -15.586  -2.735  0.00  0.00    -0.331 N 
ATOM      8  H   UNL d   1      25.405 -15.936  -3.658  0.00  0.00     0.168 HD
BRANCH   7   9
ATOM      9  C   UNL d   1      26.133 -14.265  -2.588  0.00  0.00     0.179 C 
ATOM     10  S   UNL d   1      26.314 -13.370  -1.166  0.00  0.00    -0.040 SA
BRANCH   9  11
ATOM     11  N   UNL d   1      26.507 -13.647  -3.801  0.00  0.00    -0.299 N 
ATOM     12  C   UNL d   1      27.072 -14.366  -4.877  0.00  0.00     0.260 C 
ATOM     13  O   UNL d   1      26.984 -15.577  -5.076  0.00  0.00    -0.267 OA
ATOM     14  H   UNL d   1      26.493 -12.643  -3.886  0.00  0.00     0.171 HD
BRANCH  12  15
ATOM     15  C   UNL d   1      27.845 -13.711  -5.932  0.00  0.00     0.066 A 
ATOM     16  C   UNL d   1      28.834 -14.575  -6.472  0.00  0.00     0.020 A 
ATOM     17  C   UNL d   1      29.860 -14.096  -7.269  0.00  0.00     0.002 A 
ATOM     18  C   UNL d   1      29.873 -12.752  -7.601  0.00  0.00     0.009 A 
ATOM     19  C   UNL d   1      28.922 -11.870  -7.052  0.00  0.00    -0.028 A 
ATOM     20  C   UNL d   1      29.040 -10.404  -7.367  0.00  0.00     0.051 C 
ATOM     21  C   UNL d   1      27.911 -12.331  -6.173  0.00  0.00     0.089 A 
BRANCH  21  22
ATOM     22  O   UNL d   1      27.177 -11.305  -5.633  0.00  0.00    -0.354 OA
ATOM     23  C   UNL d   1      25.897 -11.007  -6.140  0.00  0.00     0.210 C 
ENDBRANCH  21  22
ENDBRANCH  12  15
ENDBRANCH   9  11
ENDBRANCH   7   9
ENDBRANCH   5   7
BRANCH   4  24
ATOM     24  N   UNL d   1      27.475 -16.841  -0.569  0.00  0.00    -0.376 N 
ATOM     25  C   UNL d   1      28.215 -16.338   0.586  0.00  0.00     0.150 C 
ATOM     26  C   UNL d   1      28.858 -14.966   0.246  0.00  0.00     0.254 C 
ATOM     27  N   UNL d   1      29.697 -14.999  -1.055  0.00  0.00    -0.068 N 
ATOM     28  C   UNL d   1      28.932 -15.717  -2.204  0.00  0.00     0.254 C 
ATOM     29  H   UNL d   1      30.545 -15.547  -0.854  0.00  0.00     0.280 HD
ATOM     30  C   UNL d   1      28.341 -17.075  -1.745  0.00  0.00     0.150 C 
BRANCH  27  31
ATOM     31  C   UNL d   1      30.150 -13.592  -1.440  0.00  0.00     0.230 C 
ATOM     32  C   UNL d   1      29.641 -13.182  -2.812  0.00  0.00     0.034 C 
ENDBRANCH  27  31
ENDBRANCH   4  24
BRANCH   1  33
ATOM     33  C   UNL d   1      21.835 -18.074  -0.850  0.00  0.00     0.293 C 
ATOM     34  O   UNL d   1      21.030 -17.143  -0.896  0.00  0.00    -0.259 OA
BRANCH  33  35
ATOM     35  O   UNL d   1      21.528 -19.400  -0.974  0.00  0.00    -0.318 OA
BRANCH  35  36
ATOM     36  C   UNL d   1      20.172 -19.771  -0.628  0.00  0.00     0.174 C 
ATOM     37  C   UNL d   1      20.111 -20.428   0.749  0.00  0.00     0.034 C 
ENDBRANCH  35  36
ENDBRANCH  33  35
ENDBRANCH   1  33
TORSDOF 10
ENDMDL
MODEL 6
REMARK VINA RESULT:    -7.942      2.127      3.211
REMARK INTER + INTRA:         -13.931
REMARK INTER:                 -10.925
REMARK INTRA:                  -3.007
REMARK CONF_INDEPENDENT:        2.983
REMARK UNBOUND:                -3.007
REMARK  10 active torsions:
REMARK  status: ('A' for Active; 'I' for Inactive)
REMARK    1  A    between atoms: C_2  and  O_3 
REMARK    2  A    between atoms: O_3  and  C_4 
REMARK    3  A    between atoms: C_4  and  C_6 
REMARK    4  A    between atoms: C_9  and  N_10 
REMARK    5  A    between atoms: N_13  and  C_14 
REMARK    6  A    between atoms: C_18  and  N_19 
REMARK    7  A    between atoms: N_19  and  C_20 
REMARK    8  A    between atoms: C_20  and  N_22 
REMARK       I    between atoms: N_22  and  C_23 
REMARK    9  A    between atoms: C_23  and  C_25 
REMARK   10  A    between atoms: C_31  and  O_32 
ROOT
ATOM      1  C   UNL d   1      24.044 -18.018  -0.847  0.00  0.00     0.041 A 
ATOM      2  C   UNL d   1      24.790 -18.040   0.305  0.00  0.00     0.020 A 
ATOM      3  C   UNL d   1      26.077 -17.436   0.306  0.00  0.00     0.033 A 
ATOM      4  C   UNL d   1      26.676 -16.794  -0.835  0.00  0.00     0.057 A 
ATOM      5  C   UNL d   1      25.841 -16.682  -1.986  0.00  0.00     0.062 A 
ATOM      6  C   UNL d   1      24.597 -17.333  -1.910  0.00  0.00     0.049 A 
ENDROOT
BRANCH   5   7
ATOM      7  N   UNL d   1      26.149 -15.936  -3.208  0.00  0.00    -0.331 N 
ATOM      8  H   UNL d   1      26.955 -16.283  -3.690  0.00  0.00     0.168 HD
BRANCH   7   9
ATOM      9  C   UNL d   1      25.457 -14.794  -3.751  0.00  0.00     0.179 C 
ATOM     10  S   UNL d   1      24.028 -14.087  -3.192  0.00  0.00    -0.040 SA
BRANCH   9  11
ATOM     11  N   UNL d   1      26.034 -14.261  -4.925  0.00  0.00    -0.299 N 
ATOM     12  C   UNL d   1      27.272 -14.711  -5.434  0.00  0.00     0.260 C 
ATOM     13  O   UNL d   1      27.813 -15.790  -5.197  0.00  0.00    -0.267 OA
ATOM     14  H   UNL d   1      25.629 -13.451  -5.367  0.00  0.00     0.171 HD
BRANCH  12  15
ATOM     15  C   UNL d   1      28.072 -13.908  -6.359  0.00  0.00     0.066 A 
ATOM     16  C   UNL d   1      29.380 -14.436  -6.516  0.00  0.00     0.020 A 
ATOM     17  C   UNL d   1      30.394 -13.702  -7.107  0.00  0.00     0.002 A 
ATOM     18  C   UNL d   1      30.097 -12.451  -7.618  0.00  0.00     0.009 A 
ATOM     19  C   UNL d   1      28.816 -11.892  -7.447  0.00  0.00    -0.028 A 
ATOM     20  C   UNL d   1      28.575 -10.490  -7.935  0.00  0.00     0.051 C 
ATOM     21  C   UNL d   1      27.789 -12.600  -6.776  0.00  0.00     0.089 A 
BRANCH  21  22
ATOM     22  O   UNL d   1      26.665 -11.836  -6.582  0.00  0.00    -0.354 OA
ATOM     23  C   UNL d   1      26.487 -11.131  -5.375  0.00  0.00     0.210 C 
ENDBRANCH  21  22
ENDBRANCH  12  15
ENDBRANCH   9  11
ENDBRANCH   7   9
ENDBRANCH   5   7
BRANCH   4  24
ATOM     24  N   UNL d   1      28.005 -16.387  -0.712  0.00  0.00    -0.376 N 
ATOM     25  C   UNL d   1      28.520 -15.028  -0.853  0.00  0.00     0.150 C 
ATOM     26  C   UNL d   1      29.442 -14.936  -2.099  0.00  0.00     0.254 C 
ATOM     27  N   UNL d   1      30.550 -16.018  -2.110  0.00  0.00    -0.068 N 
ATOM     28  C   UNL d   1      29.974 -17.422  -1.766  0.00  0.00     0.254 C 
ATOM     29  H   UNL d   1      31.224 -15.768  -1.373  0.00  0.00     0.280 HD
ATOM     30  C   UNL d   1      29.076 -17.385  -0.503  0.00  0.00     0.150 C 
BRANCH  27  31
ATOM     31  C   UNL d   1      31.306 -16.002  -3.438  0.00  0.00     0.230 C 
ATOM     32  C   UNL d   1      30.756 -17.020  -4.422  0.00  0.00     0.034 C 
ENDBRANCH  27  31
ENDBRANCH   4  24
BRANCH   1  33
ATOM     33  C   UNL d   1      22.631 -18.491  -1.013  0.00  0.00     0.293 C 
ATOM     34  O   UNL d   1      22.261 -19.117  -2.007  0.00  0.00    -0.259 OA
BRANCH  33  35
ATOM     35  O   UNL d   1      21.857 -18.193   0.074  0.00  0.00    -0.318 OA
BRANCH  35  36
ATOM     36  C   UNL d   1      20.926 -19.222   0.490  0.00  0.00     0.174 C 
ATOM     37  C   UNL d   1      19.894 -19.508  -0.599  0.00  0.00     0.034 C 
ENDBRANCH  35  36
ENDBRANCH  33  35
ENDBRANCH   1  33
TORSDOF 10
ENDMDL
MODEL 7
REMARK VINA RESULT:    -7.860      1.052      1.598
REMARK INTER + INTRA:         -14.155
REMARK INTER:                 -10.843
REMARK INTRA:                  -3.311
REMARK CONF_INDEPENDENT:        2.983
REMARK UNBOUND:                -3.311
REMARK  10 active torsions:
REMARK  status: ('A' for Active; 'I' for Inactive)
REMARK    1  A    between atoms: C_2  and  O_3 
REMARK    2  A    between atoms: O_3  and  C_4 
REMARK    3  A    between atoms: C_4  and  C_6 
REMARK    4  A    between atoms: C_9  and  N_10 
REMARK    5  A    between atoms: N_13  and  C_14 
REMARK    6  A    between atoms: C_18  and  N_19 
REMARK    7  A    between atoms: N_19  and  C_20 
REMARK    8  A    between atoms: C_20  and  N_22 
REMARK       I    between atoms: N_22  and  C_23 
REMARK    9  A    between atoms: C_23  and  C_25 
REMARK   10  A    between atoms: C_31  and  O_32 
ROOT
ATOM      1  C   UNL d   1      23.479 -17.595  -0.850  0.00  0.00     0.041 A 
ATOM      2  C   UNL d   1      24.423 -18.173  -0.037  0.00  0.00     0.020 A 
ATOM      3  C   UNL d   1      25.744 -17.649  -0.032  0.00  0.00     0.033 A 
ATOM      4  C   UNL d   1      26.183 -16.539  -0.837  0.00  0.00     0.057 A 
ATOM      5  C   UNL d   1      25.164 -15.882  -1.588  0.00  0.00     0.062 A 
ATOM      6  C   UNL d   1      23.893 -16.485  -1.559  0.00  0.00     0.049 A 
ENDROOT
BRANCH   5   7
ATOM      7  N   UNL d   1      25.313 -14.642  -2.350  0.00  0.00    -0.331 N 
ATOM      8  H   UNL d   1      25.230 -13.819  -1.786  0.00  0.00     0.168 HD
BRANCH   7   9
ATOM      9  C   UNL d   1      25.533 -14.489  -3.767  0.00  0.00     0.179 C 
ATOM     10  S   UNL d   1      25.529 -15.695  -4.951  0.00  0.00    -0.040 SA
BRANCH   9  11
ATOM     11  N   UNL d   1      25.846 -13.174  -4.175  0.00  0.00    -0.299 N 
ATOM     12  C   UNL d   1      26.287 -12.183  -3.271  0.00  0.00     0.260 C 
ATOM     13  O   UNL d   1      26.796 -12.373  -2.167  0.00  0.00    -0.267 OA
ATOM     14  H   UNL d   1      25.643 -12.871  -5.115  0.00  0.00     0.171 HD
BRANCH  12  15
ATOM     15  C   UNL d   1      26.198 -10.755  -3.575  0.00  0.00     0.066 A 
ATOM     16  C   UNL d   1      26.278  -9.962  -2.400  0.00  0.00     0.020 A 
ATOM     17  C   UNL d   1      25.936  -8.621  -2.404  0.00  0.00     0.002 A 
ATOM     18  C   UNL d   1      25.576  -8.030  -3.603  0.00  0.00     0.009 A 
ATOM     19  C   UNL d   1      25.458  -8.802  -4.775  0.00  0.00    -0.028 A 
ATOM     20  C   UNL d   1      24.969  -8.131  -6.029  0.00  0.00     0.051 C 
ATOM     21  C   UNL d   1      25.731 -10.192  -4.771  0.00  0.00     0.089 A 
BRANCH  21  22
ATOM     22  O   UNL d   1      25.420 -10.792  -5.966  0.00  0.00    -0.354 OA
ATOM     23  C   UNL d   1      26.433 -11.065  -6.906  0.00  0.00     0.210 C 
ENDBRANCH  21  22
ENDBRANCH  12  15
ENDBRANCH   9  11
ENDBRANCH   7   9
ENDBRANCH   5   7
BRANCH   4  24
ATOM     24  N   UNL d   1      27.548 -16.247  -0.830  0.00  0.00    -0.376 N 
ATOM     25  C   UNL d   1      28.260 -15.425   0.145  0.00  0.00     0.150 C 
ATOM     26  C   UNL d   1      28.803 -14.141  -0.540  0.00  0.00     0.254 C 
ATOM     27  N   UNL d   1      29.630 -14.441  -1.814  0.00  0.00    -0.068 N 
ATOM     28  C   UNL d   1      28.907 -15.471  -2.730  0.00  0.00     0.254 C 
ATOM     29  H   UNL d   1      30.516 -14.864  -1.506  0.00  0.00     0.280 HD
ATOM     30  C   UNL d   1      28.417 -16.708  -1.933  0.00  0.00     0.150 C 
BRANCH  27  31
ATOM     31  C   UNL d   1      29.979 -13.147  -2.547  0.00  0.00     0.230 C 
ATOM     32  C   UNL d   1      29.359 -13.089  -3.933  0.00  0.00     0.034 C 
ENDBRANCH  27  31
ENDBRANCH   4  24
BRANCH   1  33
ATOM     33  C   UNL d   1      22.017 -17.924  -0.907  0.00  0.00     0.293 C 
ATOM     34  O   UNL d   1      21.148 -17.052  -0.896  0.00  0.00    -0.259 OA
BRANCH  33  35
ATOM     35  O   UNL d   1      21.797 -19.268  -1.028  0.00  0.00    -0.318 OA
BRANCH  35  36
ATOM     36  C   UNL d   1      20.434 -19.708  -0.813  0.00  0.00     0.174 C 
ATOM     37  C   UNL d   1      20.171 -19.997   0.663  0.00  0.00     0.034 C 
ENDBRANCH  35  36
ENDBRANCH  33  35
ENDBRANCH   1  33
TORSDOF 10
ENDMDL
MODEL 8
REMARK VINA RESULT:    -7.763      3.079      5.065
REMARK INTER + INTRA:         -14.135
REMARK INTER:                 -10.746
REMARK INTRA:                  -3.389
REMARK CONF_INDEPENDENT:        2.983
REMARK UNBOUND:                -3.389
REMARK  10 active torsions:
REMARK  status: ('A' for Active; 'I' for Inactive)
REMARK    1  A    between atoms: C_2  and  O_3 
REMARK    2  A    between atoms: O_3  and  C_4 
REMARK    3  A    between atoms: C_4  and  C_6 
REMARK    4  A    between atoms: C_9  and  N_10 
REMARK    5  A    between atoms: N_13  and  C_14 
REMARK    6  A    between atoms: C_18  and  N_19 
REMARK    7  A    between atoms: N_19  and  C_20 
REMARK    8  A    between atoms: C_20  and  N_22 
REMARK       I    between atoms: N_22  and  C_23 
REMARK    9  A    between atoms: C_23  and  C_25 
REMARK   10  A    between atoms: C_31  and  O_32 
ROOT
ATOM      1  C   UNL d   1      23.917 -17.597  -0.877  0.00  0.00     0.041 A 
ATOM      2  C   UNL d   1      24.887 -17.756   0.081  0.00  0.00     0.020 A 
ATOM      3  C   UNL d   1      26.187 -17.232  -0.158  0.00  0.00     0.033 A 
ATOM      4  C   UNL d   1      26.577 -16.538  -1.358  0.00  0.00     0.057 A 
ATOM      5  C   UNL d   1      25.528 -16.284  -2.291  0.00  0.00     0.062 A 
ATOM      6  C   UNL d   1      24.282 -16.865  -1.989  0.00  0.00     0.049 A 
ENDROOT
BRANCH   5   7
ATOM      7  N   UNL d   1      25.624 -15.464  -3.499  0.00  0.00    -0.331 N 
ATOM      8  H   UNL d   1      25.169 -15.874  -4.292  0.00  0.00     0.168 HD
BRANCH   7   9
ATOM      9  C   UNL d   1      26.294 -14.198  -3.665  0.00  0.00     0.179 C 
ATOM     10  S   UNL d   1      25.606 -12.655  -3.674  0.00  0.00    -0.040 SA
BRANCH   9  11
ATOM     11  N   UNL d   1      27.682 -14.296  -3.907  0.00  0.00    -0.299 N 
ATOM     12  C   UNL d   1      28.211 -14.960  -5.036  0.00  0.00     0.260 C 
ATOM     13  O   UNL d   1      27.621 -15.200  -6.088  0.00  0.00    -0.267 OA
ATOM     14  H   UNL d   1      28.342 -13.995  -3.208  0.00  0.00     0.171 HD
BRANCH  12  15
ATOM     15  C   UNL d   1      29.592 -15.440  -5.081  0.00  0.00     0.066 A 
ATOM     16  C   UNL d   1      29.794 -16.356  -6.147  0.00  0.00     0.020 A 
ATOM     17  C   UNL d   1      30.926 -17.151  -6.216  0.00  0.00     0.002 A 
ATOM     18  C   UNL d   1      31.911 -16.990  -5.258  0.00  0.00     0.009 A 
ATOM     19  C   UNL d   1      31.720 -16.112  -4.174  0.00  0.00    -0.028 A 
ATOM     20  C   UNL d   1      32.779 -16.048  -3.108  0.00  0.00     0.051 C 
ATOM     21  C   UNL d   1      30.533 -15.348  -4.047  0.00  0.00     0.089 A 
BRANCH  21  22
ATOM     22  O   UNL d   1      30.472 -14.667  -2.856  0.00  0.00    -0.354 OA
ATOM     23  C   UNL d   1      30.701 -13.277  -2.822  0.00  0.00     0.210 C 
ENDBRANCH  21  22
ENDBRANCH  12  15
ENDBRANCH   9  11
ENDBRANCH   7   9
ENDBRANCH   5   7
BRANCH   4  24
ATOM     24  N   UNL d   1      27.929 -16.223  -1.501  0.00  0.00    -0.376 N 
ATOM     25  C   UNL d   1      28.968 -17.075  -2.073  0.00  0.00     0.150 C 
ATOM     26  C   UNL d   1      29.996 -17.467  -0.977  0.00  0.00     0.254 C 
ATOM     27  N   UNL d   1      30.556 -16.244  -0.210  0.00  0.00    -0.068 N 
ATOM     28  C   UNL d   1      29.418 -15.270   0.212  0.00  0.00     0.254 C 
ATOM     29  H   UNL d   1      31.174 -15.738  -0.860  0.00  0.00     0.280 HD
ATOM     30  C   UNL d   1      28.462 -14.952  -0.966  0.00  0.00     0.150 C 
BRANCH  27  31
ATOM     31  C   UNL d   1      31.413 -16.694   0.971  0.00  0.00     0.230 C 
ATOM     32  C   UNL d   1      32.369 -17.813   0.591  0.00  0.00     0.034 C 
ENDBRANCH  27  31
ENDBRANCH   4  24
BRANCH   1  33
ATOM     33  C   UNL d   1      22.470 -17.970  -0.762  0.00  0.00     0.293 C 
ATOM     34  O   UNL d   1      21.567 -17.143  -0.895  0.00  0.00    -0.259 OA
BRANCH  33  35
ATOM     35  O   UNL d   1      22.298 -19.311  -0.557  0.00  0.00    -0.318 OA
BRANCH  35  36
ATOM     36  C   UNL d   1      21.062 -19.700   0.089  0.00  0.00     0.174 C 
ATOM     37  C   UNL d   1      19.888 -19.657  -0.887  0.00  0.00     0.034 C 
ENDBRANCH  35  36
ENDBRANCH  33  35
ENDBRANCH   1  33
TORSDOF 10
ENDMDL
