MODEL 1
REMARK VINA RESULT:    -8.301      0.000      0.000
REMARK INTER + INTRA:         -11.152
REMARK INTER:                  -9.793
REMARK INTRA:                  -1.359
REMARK CONF_INDEPENDENT:        1.492
REMARK UNBOUND:                -1.359
REMARK  5 active torsions:
REMARK  status: ('A' for Active; 'I' for Inactive)
REMARK       I    between atoms: C_2  and  N_3 
REMARK    1  A    between atoms: C_2  and  C_11 
REMARK    2  A    between atoms: N_3  and  C_4 
REMARK    3  A    between atoms: C_7  and  O_8 
REMARK    4  A    between atoms: C_14  and  N_15 
REMARK       I    between atoms: N_15  and  C_16 
REMARK    5  A    between atoms: C_16  and  C_18 
ROOT
ATOM      1  C   UNL d   1      24.806 -16.512  -1.504  0.00  0.00     0.032 A 
ATOM      2  C   UNL d   1      23.543 -15.953  -1.284  0.00  0.00     0.019 A 
ATOM      3  C   UNL d   1      22.539 -16.700  -0.615  0.00  0.00     0.030 A 
ATOM      4  C   UNL d   1      22.767 -18.032  -0.220  0.00  0.00     0.035 A 
ATOM      5  C   UNL d   1      24.037 -18.561  -0.457  0.00  0.00     0.030 A 
ATOM      6  C   UNL d   1      25.036 -17.824  -1.098  0.00  0.00     0.019 A 
ENDROOT
BRANCH   1   7
ATOM      7  C   UNL d   1      25.926 -15.803  -2.184  0.00  0.00     0.256 C 
ATOM      8  O   UNL d   1      26.746 -15.224  -1.476  0.00  0.00    -0.267 OA
ATOM      9  N   UNL d   1      25.888 -15.748  -3.574  0.00  0.00    -0.323 N 
ATOM     10  H   UNL d   1      25.012 -15.972  -4.030  0.00  0.00     0.169 HD
BRANCH   9  11
ATOM     11  C   UNL d   1      26.849 -15.018  -4.321  0.00  0.00     0.035 A 
ATOM     12  C   UNL d   1      28.105 -15.569  -4.602  0.00  0.00     0.032 A 
ATOM     13  C   UNL d   1      29.052 -14.864  -5.352  0.00  0.00     0.039 A 
ATOM     14  C   UNL d   1      28.749 -13.586  -5.802  0.00  0.00     0.065 A 
ATOM     15  C   UNL d   1      27.513 -13.013  -5.519  0.00  0.00     0.039 A 
ATOM     16  C   UNL d   1      26.550 -13.737  -4.800  0.00  0.00     0.032 A 
BRANCH  14  17
ATOM     17  O   UNL d   1      29.638 -12.854  -6.534  0.00  0.00    -0.361 OA
ATOM     18  H   UNL d   1      29.665 -13.204  -7.439  0.00  0.00     0.217 HD
ENDBRANCH  14  17
ENDBRANCH   9  11
ENDBRANCH   1   7
BRANCH   4  19
ATOM     19  N   UNL d   1      21.717 -18.810   0.355  0.00  0.00    -0.321 N 
ATOM     20  C   UNL d   1      20.640 -19.377  -0.341  0.00  0.00     0.279 C 
ATOM     21  O   UNL d   1      20.503 -19.327  -1.568  0.00  0.00    -0.265 OA
ATOM     22  H   UNL d   1      21.745 -18.959   1.356  0.00  0.00     0.169 HD
BRANCH  20  23
ATOM     23  C   UNL d   1      19.639 -20.054   0.459  0.00  0.00     0.142 A 
ATOM     24  C   UNL d   1      18.537 -20.826   0.135  0.00  0.00     0.045 A 
ATOM     25  C   UNL d   1      18.008 -21.320   1.355  0.00  0.00     0.027 A 
ATOM     26  C   UNL d   1      18.811 -20.823   2.354  0.00  0.00     0.143 A 
ATOM     27  O   UNL d   1      19.804 -20.068   1.823  0.00  0.00    -0.317 OA
ENDBRANCH  20  23
ENDBRANCH   4  19
TORSDOF 5
ENDMDL
MODEL 2
REMARK VINA RESULT:    -8.155      0.494      1.091
REMARK INTER + INTRA:         -10.985
REMARK INTER:                  -9.646
REMARK INTRA:                  -1.339
REMARK CONF_INDEPENDENT:        1.492
REMARK UNBOUND:                -1.339
REMARK  5 active torsions:
REMARK  status: ('A' for Active; 'I' for Inactive)
REMARK       I    between atoms: C_2  and  N_3 
REMARK    1  A    between atoms: C_2  and  C_11 
REMARK    2  A    between atoms: N_3  and  C_4 
REMARK    3  A    between atoms: C_7  and  O_8 
REMARK    4  A    between atoms: C_14  and  N_15 
REMARK       I    between atoms: N_15  and  C_16 
REMARK    5  A    between atoms: C_16  and  C_18 
ROOT
ATOM      1  C   UNL d   1      24.944 -16.567  -1.453  0.00  0.00     0.032 A 
ATOM      2  C   UNL d   1      25.183 -17.827  -0.895  0.00  0.00     0.019 A 
ATOM      3  C   UNL d   1      24.109 -18.589  -0.367  0.00  0.00     0.030 A 
ATOM      4  C   UNL d   1      22.800 -18.072  -0.332  0.00  0.00     0.035 A 
ATOM      5  C   UNL d   1      22.596 -16.810  -0.895  0.00  0.00     0.030 A 
ATOM      6  C   UNL d   1      23.646 -16.063  -1.434  0.00  0.00     0.019 A 
ENDROOT
BRANCH   1   7
ATOM      7  C   UNL d   1      26.003 -15.700  -2.042  0.00  0.00     0.256 C 
ATOM      8  O   UNL d   1      26.736 -15.090  -1.269  0.00  0.00    -0.267 OA
ATOM      9  N   UNL d   1      26.000 -15.552  -3.427  0.00  0.00    -0.323 N 
ATOM     10  H   UNL d   1      25.166 -15.834  -3.929  0.00  0.00     0.169 HD
BRANCH   9  11
ATOM     11  C   UNL d   1      26.900 -14.677  -4.087  0.00  0.00     0.035 A 
ATOM     12  C   UNL d   1      27.826 -15.169  -5.015  0.00  0.00     0.032 A 
ATOM     13  C   UNL d   1      28.705 -14.311  -5.683  0.00  0.00     0.039 A 
ATOM     14  C   UNL d   1      28.674 -12.951  -5.403  0.00  0.00     0.065 A 
ATOM     15  C   UNL d   1      27.773 -12.443  -4.473  0.00  0.00     0.039 A 
ATOM     16  C   UNL d   1      26.865 -13.300  -3.832  0.00  0.00     0.032 A 
BRANCH  14  17
ATOM     17  O   UNL d   1      29.512 -12.072  -6.024  0.00  0.00    -0.361 OA
ATOM     18  H   UNL d   1      30.353 -12.041  -5.539  0.00  0.00     0.217 HD
ENDBRANCH  14  17
ENDBRANCH   9  11
ENDBRANCH   1   7
BRANCH   4  19
ATOM     19  N   UNL d   1      21.746 -18.800   0.298  0.00  0.00    -0.321 N 
ATOM     20  C   UNL d   1      20.659 -19.399  -0.354  0.00  0.00     0.279 C 
ATOM     21  O   UNL d   1      20.513 -19.425  -1.581  0.00  0.00    -0.265 OA
ATOM     22  H   UNL d   1      21.780 -18.886   1.306  0.00  0.00     0.169 HD
BRANCH  20  23
ATOM     23  C   UNL d   1      19.657 -20.013   0.494  0.00  0.00     0.142 A 
ATOM     24  C   UNL d   1      18.568 -20.825   0.231  0.00  0.00     0.045 A 
ATOM     25  C   UNL d   1      18.030 -21.213   1.486  0.00  0.00     0.027 A 
ATOM     26  C   UNL d   1      18.816 -20.617   2.443  0.00  0.00     0.143 A 
ATOM     27  O   UNL d   1      19.807 -19.901   1.856  0.00  0.00    -0.317 OA
ENDBRANCH  20  23
ENDBRANCH   4  19
TORSDOF 5
ENDMDL
MODEL 3
REMARK VINA RESULT:    -8.100      2.901      9.995
REMARK INTER + INTRA:         -10.846
REMARK INTER:                  -9.592
REMARK INTRA:                  -1.255
REMARK CONF_INDEPENDENT:        1.492
REMARK UNBOUND:                -1.255
REMARK  5 active torsions:
REMARK  status: ('A' for Active; 'I' for Inactive)
REMARK       I    between atoms: C_2  and  N_3 
REMARK    1  A    between atoms: C_2  and  C_11 
REMARK    2  A    between atoms: N_3  and  C_4 
REMARK    3  A    between atoms: C_7  and  O_8 
REMARK    4  A    between atoms: C_14  and  N_15 
REMARK       I    between atoms: N_15  and  C_16 
REMARK    5  A    between atoms: C_16  and  C_18 
ROOT
ATOM      1  C   UNL d   1      23.699 -17.729  -0.665  0.00  0.00     0.032 A 
ATOM      2  C   UNL d   1      23.657 -16.476  -1.286  0.00  0.00     0.019 A 
ATOM      3  C   UNL d   1      24.824 -15.674  -1.352  0.00  0.00     0.030 A 
ATOM      4  C   UNL d   1      26.025 -16.085  -0.743  0.00  0.00     0.035 A 
ATOM      5  C   UNL d   1      26.032 -17.340  -0.128  0.00  0.00     0.030 A 
ATOM      6  C   UNL d   1      24.891 -18.144  -0.077  0.00  0.00     0.019 A 
ENDROOT
BRANCH   1   7
ATOM      7  C   UNL d   1      22.532 -18.648  -0.558  0.00  0.00     0.256 C 
ATOM      8  O   UNL d   1      22.247 -19.325  -1.543  0.00  0.00    -0.267 OA
ATOM      9  N   UNL d   1      21.777 -18.577   0.609  0.00  0.00    -0.323 N 
ATOM     10  H   UNL d   1      21.906 -17.769   1.205  0.00  0.00     0.169 HD
BRANCH   9  11
ATOM     11  C   UNL d   1      20.590 -19.335   0.780  0.00  0.00     0.035 A 
ATOM     12  C   UNL d   1      19.801 -19.688  -0.322  0.00  0.00     0.032 A 
ATOM     13  C   UNL d   1      18.639 -20.450  -0.164  0.00  0.00     0.039 A 
ATOM     14  C   UNL d   1      18.249 -20.841   1.110  0.00  0.00     0.065 A 
ATOM     15  C   UNL d   1      19.009 -20.488   2.219  0.00  0.00     0.039 A 
ATOM     16  C   UNL d   1      20.196 -19.757   2.056  0.00  0.00     0.032 A 
BRANCH  14  17
ATOM     17  O   UNL d   1      17.122 -21.582   1.319  0.00  0.00    -0.361 OA
ATOM     18  H   UNL d   1      17.290 -22.497   1.040  0.00  0.00     0.217 HD
ENDBRANCH  14  17
ENDBRANCH   9  11
ENDBRANCH   1   7
BRANCH   4  19
ATOM     19  N   UNL d   1      27.163 -15.223  -0.721  0.00  0.00    -0.321 N 
ATOM     20  C   UNL d   1      27.327 -14.100   0.102  0.00  0.00     0.279 C 
ATOM     21  O   UNL d   1      26.519 -13.752   0.970  0.00  0.00    -0.265 OA
ATOM     22  H   UNL d   1      27.917 -15.435  -1.363  0.00  0.00     0.169 HD
BRANCH  20  23
ATOM     23  C   UNL d   1      28.527 -13.316  -0.109  0.00  0.00     0.142 A 
ATOM     24  C   UNL d   1      29.080 -12.240   0.563  0.00  0.00     0.045 A 
ATOM     25  C   UNL d   1      30.337 -11.978  -0.042  0.00  0.00     0.027 A 
ATOM     26  C   UNL d   1      30.481 -12.904  -1.047  0.00  0.00     0.143 A 
ATOM     27  O   UNL d   1      29.401 -13.723  -1.088  0.00  0.00    -0.317 OA
ENDBRANCH  20  23
ENDBRANCH   4  19
TORSDOF 5
ENDMDL
MODEL 4
REMARK VINA RESULT:    -7.957      1.645      9.951
REMARK INTER + INTRA:         -10.044
REMARK INTER:                  -9.448
REMARK INTRA:                  -0.596
REMARK CONF_INDEPENDENT:        1.492
REMARK UNBOUND:                -0.596
REMARK  5 active torsions:
REMARK  status: ('A' for Active; 'I' for Inactive)
REMARK       I    between atoms: C_2  and  N_3 
REMARK    1  A    between atoms: C_2  and  C_11 
REMARK    2  A    between atoms: N_3  and  C_4 
REMARK    3  A    between atoms: C_7  and  O_8 
REMARK    4  A    between atoms: C_14  and  N_15 
REMARK       I    between atoms: N_15  and  C_16 
REMARK    5  A    between atoms: C_16  and  C_18 
ROOT
ATOM      1  C   UNL d   1      24.184 -17.358  -0.875  0.00  0.00     0.032 A 
ATOM      2  C   UNL d   1      25.529 -17.743  -0.893  0.00  0.00     0.019 A 
ATOM      3  C   UNL d   1      26.473 -16.997  -1.643  0.00  0.00     0.030 A 
ATOM      4  C   UNL d   1      26.073 -15.902  -2.433  0.00  0.00     0.035 A 
ATOM      5  C   UNL d   1      24.723 -15.547  -2.395  0.00  0.00     0.030 A 
ATOM      6  C   UNL d   1      23.790 -16.266  -1.643  0.00  0.00     0.019 A 
ENDROOT
BRANCH   1   7
ATOM      7  C   UNL d   1      23.123 -18.069  -0.108  0.00  0.00     0.256 C 
ATOM      8  O   UNL d   1      23.430 -18.550   0.979  0.00  0.00    -0.267 OA
ATOM      9  N   UNL d   1      21.894 -18.241  -0.740  0.00  0.00    -0.323 N 
ATOM     10  H   UNL d   1      21.855 -18.095  -1.741  0.00  0.00     0.169 HD
BRANCH   9  11
ATOM     11  C   UNL d   1      20.843 -18.985  -0.143  0.00  0.00     0.035 A 
ATOM     12  C   UNL d   1      20.888 -19.324   1.214  0.00  0.00     0.032 A 
ATOM     13  C   UNL d   1      19.849 -20.042   1.815  0.00  0.00     0.039 A 
ATOM     14  C   UNL d   1      18.766 -20.446   1.043  0.00  0.00     0.065 A 
ATOM     15  C   UNL d   1      18.710 -20.133  -0.310  0.00  0.00     0.039 A 
ATOM     16  C   UNL d   1      19.735 -19.379  -0.903  0.00  0.00     0.032 A 
BRANCH  14  17
ATOM     17  O   UNL d   1      17.729 -21.151   1.579  0.00  0.00    -0.361 OA
ATOM     18  H   UNL d   1      17.266 -20.592   2.224  0.00  0.00     0.217 HD
ENDBRANCH  14  17
ENDBRANCH   9  11
ENDBRANCH   1   7
BRANCH   4  19
ATOM     19  N   UNL d   1      27.012 -15.225  -3.268  0.00  0.00    -0.321 N 
ATOM     20  C   UNL d   1      26.980 -15.178  -4.669  0.00  0.00     0.279 C 
ATOM     21  O   UNL d   1      26.082 -15.671  -5.360  0.00  0.00    -0.265 OA
ATOM     22  H   UNL d   1      27.776 -14.743  -2.811  0.00  0.00     0.169 HD
BRANCH  20  23
ATOM     23  C   UNL d   1      28.088 -14.507  -5.318  0.00  0.00     0.142 A 
ATOM     24  C   UNL d   1      28.797 -13.356  -5.022  0.00  0.00     0.045 A 
ATOM     25  C   UNL d   1      29.858 -13.273  -5.961  0.00  0.00     0.027 A 
ATOM     26  C   UNL d   1      29.739 -14.373  -6.777  0.00  0.00     0.143 A 
ATOM     27  O   UNL d   1      28.682 -15.130  -6.390  0.00  0.00    -0.317 OA
ENDBRANCH  20  23
ENDBRANCH   4  19
TORSDOF 5
ENDMDL
MODEL 5
REMARK VINA RESULT:    -7.675      2.087     10.036
REMARK INTER + INTRA:         -10.485
REMARK INTER:                  -9.166
REMARK INTRA:                  -1.319
REMARK CONF_INDEPENDENT:        1.492
REMARK UNBOUND:                -1.319
REMARK  5 active torsions:
REMARK  status: ('A' for Active; 'I' for Inactive)
REMARK       I    between atoms: C_2  and  N_3 
REMARK    1  A    between atoms: C_2  and  C_11 
REMARK    2  A    between atoms: N_3  and  C_4 
REMARK    3  A    between atoms: C_7  and  O_8 
REMARK    4  A    between atoms: C_14  and  N_15 
REMARK       I    between atoms: N_15  and  C_16 
REMARK    5  A    between atoms: C_16  and  C_18 
ROOT
ATOM      1  C   UNL d   1      23.965 -17.832  -0.511  0.00  0.00     0.032 A 
ATOM      2  C   UNL d   1      25.236 -18.044   0.032  0.00  0.00     0.019 A 
ATOM      3  C   UNL d   1      26.254 -17.071  -0.137  0.00  0.00     0.030 A 
ATOM      4  C   UNL d   1      26.032 -15.912  -0.905  0.00  0.00     0.035 A 
ATOM      5  C   UNL d   1      24.752 -15.733  -1.436  0.00  0.00     0.030 A 
ATOM      6  C   UNL d   1      23.739 -16.677  -1.256  0.00  0.00     0.019 A 
ENDROOT
BRANCH   1   7
ATOM      7  C   UNL d   1      22.829 -18.787  -0.375  0.00  0.00     0.256 C 
ATOM      8  O   UNL d   1      22.745 -19.693  -1.200  0.00  0.00    -0.267 OA
ATOM      9  N   UNL d   1      21.879 -18.504   0.603  0.00  0.00    -0.323 N 
ATOM     10  H   UNL d   1      21.874 -17.572   0.999  0.00  0.00     0.169 HD
BRANCH   9  11
ATOM     11  C   UNL d   1      20.708 -19.290   0.757  0.00  0.00     0.035 A 
ATOM     12  C   UNL d   1      20.285 -19.702   2.026  0.00  0.00     0.032 A 
ATOM     13  C   UNL d   1      19.122 -20.462   2.190  0.00  0.00     0.039 A 
ATOM     14  C   UNL d   1      18.389 -20.834   1.070  0.00  0.00     0.065 A 
ATOM     15  C   UNL d   1      18.800 -20.448  -0.202  0.00  0.00     0.039 A 
ATOM     16  C   UNL d   1      19.946 -19.653  -0.360  0.00  0.00     0.032 A 
BRANCH  14  17
ATOM     17  O   UNL d   1      17.250 -21.577   1.173  0.00  0.00    -0.361 OA
ATOM     18  H   UNL d   1      17.420 -22.466   0.818  0.00  0.00     0.217 HD
ENDBRANCH  14  17
ENDBRANCH   9  11
ENDBRANCH   1   7
BRANCH   4  19
ATOM     19  N   UNL d   1      27.094 -14.992  -1.160  0.00  0.00    -0.321 N 
ATOM     20  C   UNL d   1      27.498 -14.535  -2.421  0.00  0.00     0.279 C 
ATOM     21  O   UNL d   1      26.932 -14.827  -3.480  0.00  0.00    -0.265 OA
ATOM     22  H   UNL d   1      27.608 -14.645  -0.360  0.00  0.00     0.169 HD
BRANCH  20  23
ATOM     23  C   UNL d   1      28.662 -13.671  -2.452  0.00  0.00     0.142 A 
ATOM     24  C   UNL d   1      29.260 -12.930  -3.456  0.00  0.00     0.045 A 
ATOM     25  C   UNL d   1      30.304 -12.183  -2.851  0.00  0.00     0.027 A 
ATOM     26  C   UNL d   1      30.287 -12.509  -1.516  0.00  0.00     0.143 A 
ATOM     27  O   UNL d   1      29.294 -13.397  -1.263  0.00  0.00    -0.317 OA
ENDBRANCH  20  23
ENDBRANCH   4  19
TORSDOF 5
ENDMDL
MODEL 6
REMARK VINA RESULT:    -7.657      1.884      2.212
REMARK INTER + INTRA:         -10.460
REMARK INTER:                  -9.149
REMARK INTRA:                  -1.312
REMARK CONF_INDEPENDENT:        1.492
REMARK UNBOUND:                -1.312
REMARK  5 active torsions:
REMARK  status: ('A' for Active; 'I' for Inactive)
REMARK       I    between atoms: C_2  and  N_3 
REMARK    1  A    between atoms: C_2  and  C_11 
REMARK    2  A    between atoms: N_3  and  C_4 
REMARK    3  A    between atoms: C_7  and  O_8 
REMARK    4  A    between atoms: C_14  and  N_15 
REMARK       I    between atoms: N_15  and  C_16 
REMARK    5  A    between atoms: C_16  and  C_18 
ROOT
ATOM      1  C   UNL d   1      25.252 -16.750  -1.267  0.00  0.00     0.032 A 
ATOM      2  C   UNL d   1      23.954 -16.272  -1.471  0.00  0.00     0.019 A 
ATOM      3  C   UNL d   1      22.848 -16.938  -0.883  0.00  0.00     0.030 A 
ATOM      4  C   UNL d   1      23.024 -18.123  -0.143  0.00  0.00     0.035 A 
ATOM      5  C   UNL d   1      24.333 -18.575   0.040  0.00  0.00     0.030 A 
ATOM      6  C   UNL d   1      25.427 -17.913  -0.521  0.00  0.00     0.019 A 
ENDROOT
BRANCH   1   7
ATOM      7  C   UNL d   1      26.475 -16.113  -1.831  0.00  0.00     0.256 C 
ATOM      8  O   UNL d   1      26.325 -15.128  -2.550  0.00  0.00    -0.267 OA
ATOM      9  N   UNL d   1      27.688 -16.757  -1.600  0.00  0.00    -0.323 N 
ATOM     10  H   UNL d   1      27.657 -17.717  -1.280  0.00  0.00     0.169 HD
BRANCH   9  11
ATOM     11  C   UNL d   1      28.902 -16.293  -2.169  0.00  0.00     0.035 A 
ATOM     12  C   UNL d   1      30.060 -16.185  -1.392  0.00  0.00     0.032 A 
ATOM     13  C   UNL d   1      31.266 -15.744  -1.949  0.00  0.00     0.039 A 
ATOM     14  C   UNL d   1      31.305 -15.386  -3.290  0.00  0.00     0.065 A 
ATOM     15  C   UNL d   1      30.161 -15.471  -4.076  0.00  0.00     0.039 A 
ATOM     16  C   UNL d   1      28.962 -15.950  -3.526  0.00  0.00     0.032 A 
BRANCH  14  17
ATOM     17  O   UNL d   1      32.454 -14.947  -3.881  0.00  0.00    -0.361 OA
ATOM     18  H   UNL d   1      33.010 -15.713  -4.098  0.00  0.00     0.217 HD
ENDBRANCH  14  17
ENDBRANCH   9  11
ENDBRANCH   1   7
BRANCH   4  19
ATOM     19  N   UNL d   1      21.896 -18.845   0.354  0.00  0.00    -0.321 N 
ATOM     20  C   UNL d   1      20.852 -19.369  -0.420  0.00  0.00     0.279 C 
ATOM     21  O   UNL d   1      20.812 -19.325  -1.655  0.00  0.00    -0.265 OA
ATOM     22  H   UNL d   1      21.839 -18.985   1.355  0.00  0.00     0.169 HD
BRANCH  20  23
ATOM     23  C   UNL d   1      19.760 -19.989   0.304  0.00  0.00     0.142 A 
ATOM     24  C   UNL d   1      18.617 -20.654  -0.102  0.00  0.00     0.045 A 
ATOM     25  C   UNL d   1      17.989 -21.148   1.071  0.00  0.00     0.027 A 
ATOM     26  C   UNL d   1      18.779 -20.757   2.125  0.00  0.00     0.143 A 
ATOM     27  O   UNL d   1      19.856 -20.068   1.672  0.00  0.00    -0.317 OA
ENDBRANCH  20  23
ENDBRANCH   4  19
TORSDOF 5
ENDMDL
MODEL 7
REMARK VINA RESULT:    -7.434      1.881      2.187
REMARK INTER + INTRA:         -10.270
REMARK INTER:                  -8.926
REMARK INTRA:                  -1.344
REMARK CONF_INDEPENDENT:        1.492
REMARK UNBOUND:                -1.344
REMARK  5 active torsions:
REMARK  status: ('A' for Active; 'I' for Inactive)
REMARK       I    between atoms: C_2  and  N_3 
REMARK    1  A    between atoms: C_2  and  C_11 
REMARK    2  A    between atoms: N_3  and  C_4 
REMARK    3  A    between atoms: C_7  and  O_8 
REMARK    4  A    between atoms: C_14  and  N_15 
REMARK       I    between atoms: N_15  and  C_16 
REMARK    5  A    between atoms: C_16  and  C_18 
ROOT
ATOM      1  C   UNL d   1      25.226 -16.640  -1.019  0.00  0.00     0.032 A 
ATOM      2  C   UNL d   1      25.414 -17.805  -0.269  0.00  0.00     0.019 A 
ATOM      3  C   UNL d   1      24.297 -18.579   0.137  0.00  0.00     0.030 A 
ATOM      4  C   UNL d   1      22.982 -18.163  -0.147  0.00  0.00     0.035 A 
ATOM      5  C   UNL d   1      22.830 -16.994  -0.895  0.00  0.00     0.030 A 
ATOM      6  C   UNL d   1      23.926 -16.237  -1.315  0.00  0.00     0.019 A 
ENDROOT
BRANCH   1   7
ATOM      7  C   UNL d   1      26.335 -15.770  -1.502  0.00  0.00     0.256 C 
ATOM      8  O   UNL d   1      27.449 -16.274  -1.611  0.00  0.00    -0.267 OA
ATOM      9  N   UNL d   1      26.049 -14.418  -1.673  0.00  0.00    -0.323 N 
ATOM     10  H   UNL d   1      25.202 -14.059  -1.249  0.00  0.00     0.169 HD
BRANCH   9  11
ATOM     11  C   UNL d   1      27.051 -13.481  -2.036  0.00  0.00     0.035 A 
ATOM     12  C   UNL d   1      28.161 -13.266  -1.211  0.00  0.00     0.032 A 
ATOM     13  C   UNL d   1      29.162 -12.357  -1.569  0.00  0.00     0.039 A 
ATOM     14  C   UNL d   1      29.038 -11.638  -2.751  0.00  0.00     0.065 A 
ATOM     15  C   UNL d   1      27.935 -11.826  -3.577  0.00  0.00     0.039 A 
ATOM     16  C   UNL d   1      26.951 -12.766  -3.236  0.00  0.00     0.032 A 
BRANCH  14  17
ATOM     17  O   UNL d   1      29.983 -10.737  -3.145  0.00  0.00    -0.361 OA
ATOM     18  H   UNL d   1      29.561 -10.058  -3.696  0.00  0.00     0.217 HD
ENDBRANCH  14  17
ENDBRANCH   9  11
ENDBRANCH   1   7
BRANCH   4  19
ATOM     19  N   UNL d   1      21.863 -18.891   0.358  0.00  0.00    -0.321 N 
ATOM     20  C   UNL d   1      20.800 -19.394  -0.404  0.00  0.00     0.279 C 
ATOM     21  O   UNL d   1      20.734 -19.323  -1.636  0.00  0.00    -0.265 OA
ATOM     22  H   UNL d   1      21.827 -19.053   1.357  0.00  0.00     0.169 HD
BRANCH  20  23
ATOM     23  C   UNL d   1      19.721 -20.026   0.329  0.00  0.00     0.142 A 
ATOM     24  C   UNL d   1      18.573 -20.688  -0.066  0.00  0.00     0.045 A 
ATOM     25  C   UNL d   1      17.965 -21.199   1.110  0.00  0.00     0.027 A 
ATOM     26  C   UNL d   1      18.773 -20.821   2.156  0.00  0.00     0.143 A 
ATOM     27  O   UNL d   1      19.841 -20.124   1.695  0.00  0.00    -0.317 OA
ENDBRANCH  20  23
ENDBRANCH   4  19
TORSDOF 5
ENDMDL
MODEL 8
REMARK VINA RESULT:    -7.295      3.396      3.826
REMARK INTER + INTRA:         -10.060
REMARK INTER:                  -8.787
REMARK INTRA:                  -1.273
REMARK CONF_INDEPENDENT:        1.492
REMARK UNBOUND:                -1.273
REMARK  5 active torsions:
REMARK  status: ('A' for Active; 'I' for Inactive)
REMARK       I    between atoms: C_2  and  N_3 
REMARK    1  A    between atoms: C_2  and  C_11 
REMARK    2  A    between atoms: N_3  and  C_4 
REMARK    3  A    between atoms: C_7  and  O_8 
REMARK    4  A    between atoms: C_14  and  N_15 
REMARK       I    between atoms: N_15  and  C_16 
REMARK    5  A    between atoms: C_16  and  C_18 
ROOT
ATOM      1  C   UNL d   1      26.606 -17.089  -0.895  0.00  0.00     0.032 A 
ATOM      2  C   UNL d   1      25.467 -16.820  -1.661  0.00  0.00     0.019 A 
ATOM      3  C   UNL d   1      24.193 -17.267  -1.225  0.00  0.00     0.030 A 
ATOM      4  C   UNL d   1      24.055 -18.041  -0.057  0.00  0.00     0.035 A 
ATOM      5  C   UNL d   1      25.212 -18.294   0.683  0.00  0.00     0.030 A 
ATOM      6  C   UNL d   1      26.467 -17.841   0.270  0.00  0.00     0.019 A 
ENDROOT
BRANCH   1   7
ATOM      7  C   UNL d   1      27.982 -16.651  -1.262  0.00  0.00     0.256 C 
ATOM      8  O   UNL d   1      28.124 -16.050  -2.323  0.00  0.00    -0.267 OA
ATOM      9  N   UNL d   1      29.020 -17.067  -0.432  0.00  0.00    -0.323 N 
ATOM     10  H   UNL d   1      28.829 -17.818   0.220  0.00  0.00     0.169 HD
BRANCH   9  11
ATOM     11  C   UNL d   1      30.378 -16.790  -0.737  0.00  0.00     0.035 A 
ATOM     12  C   UNL d   1      31.273 -16.410   0.270  0.00  0.00     0.032 A 
ATOM     13  C   UNL d   1      32.618 -16.152  -0.019  0.00  0.00     0.039 A 
ATOM     14  C   UNL d   1      33.063 -16.251  -1.331  0.00  0.00     0.065 A 
ATOM     15  C   UNL d   1      32.186 -16.612  -2.348  0.00  0.00     0.039 A 
ATOM     16  C   UNL d   1      30.847 -16.908  -2.051  0.00  0.00     0.032 A 
BRANCH  14  17
ATOM     17  O   UNL d   1      34.363 -16.007  -1.666  0.00  0.00    -0.361 OA
ATOM     18  H   UNL d   1      34.631 -15.153  -1.289  0.00  0.00     0.217 HD
ENDBRANCH  14  17
ENDBRANCH   9  11
ENDBRANCH   1   7
BRANCH   4  19
ATOM     19  N   UNL d   1      22.785 -18.576   0.315  0.00  0.00    -0.321 N 
ATOM     20  C   UNL d   1      21.822 -19.092  -0.565  0.00  0.00     0.279 C 
ATOM     21  O   UNL d   1      21.986 -19.207  -1.784  0.00  0.00    -0.265 OA
ATOM     22  H   UNL d   1      22.552 -18.577   1.300  0.00  0.00     0.169 HD
BRANCH  20  23
ATOM     23  C   UNL d   1      20.563 -19.501   0.025  0.00  0.00     0.142 A 
ATOM     24  C   UNL d   1      19.417 -20.071  -0.501  0.00  0.00     0.045 A 
ATOM     25  C   UNL d   1      18.561 -20.359   0.594  0.00  0.00     0.027 A 
ATOM     26  C   UNL d   1      19.228 -19.950   1.724  0.00  0.00     0.143 A 
ATOM     27  O   UNL d   1      20.441 -19.442   1.392  0.00  0.00    -0.317 OA
ENDBRANCH  20  23
ENDBRANCH   4  19
TORSDOF 5
ENDMDL
MODEL 9
REMARK VINA RESULT:    -7.170      3.126      9.913
REMARK INTER + INTRA:          -9.955
REMARK INTER:                  -8.661
REMARK INTRA:                  -1.294
REMARK CONF_INDEPENDENT:        1.492
REMARK UNBOUND:                -1.294
REMARK  5 active torsions:
REMARK  status: ('A' for Active; 'I' for Inactive)
REMARK       I    between atoms: C_2  and  N_3 
REMARK    1  A    between atoms: C_2  and  C_11 
REMARK    2  A    between atoms: N_3  and  C_4 
REMARK    3  A    between atoms: C_7  and  O_8 
REMARK    4  A    between atoms: C_14  and  N_15 
REMARK       I    between atoms: N_15  and  C_16 
REMARK    5  A    between atoms: C_16  and  C_18 
ROOT
ATOM      1  C   UNL d   1      24.397 -17.524  -0.251  0.00  0.00     0.032 A 
ATOM      2  C   UNL d   1      25.312 -18.305   0.463  0.00  0.00     0.019 A 
ATOM      3  C   UNL d   1      26.653 -17.871   0.616  0.00  0.00     0.030 A 
ATOM      4  C   UNL d   1      27.109 -16.688   0.003  0.00  0.00     0.035 A 
ATOM      5  C   UNL d   1      26.171 -15.933  -0.705  0.00  0.00     0.030 A 
ATOM      6  C   UNL d   1      24.843 -16.345  -0.843  0.00  0.00     0.019 A 
ENDROOT
BRANCH   1   7
ATOM      7  C   UNL d   1      22.967 -17.888  -0.453  0.00  0.00     0.256 C 
ATOM      8  O   UNL d   1      22.211 -17.017  -0.876  0.00  0.00    -0.267 OA
ATOM      9  N   UNL d   1      22.571 -19.154  -0.030  0.00  0.00    -0.323 N 
ATOM     10  H   UNL d   1      23.192 -19.658   0.592  0.00  0.00     0.169 HD
BRANCH   9  11
ATOM     11  C   UNL d   1      21.216 -19.571  -0.085  0.00  0.00     0.035 A 
ATOM     12  C   UNL d   1      20.422 -19.280  -1.201  0.00  0.00     0.032 A 
ATOM     13  C   UNL d   1      19.091 -19.702  -1.271  0.00  0.00     0.039 A 
ATOM     14  C   UNL d   1      18.541 -20.402  -0.205  0.00  0.00     0.065 A 
ATOM     15  C   UNL d   1      19.308 -20.688   0.920  0.00  0.00     0.039 A 
ATOM     16  C   UNL d   1      20.655 -20.297   0.973  0.00  0.00     0.032 A 
BRANCH  14  17
ATOM     17  O   UNL d   1      17.247 -20.833  -0.221  0.00  0.00    -0.361 OA
ATOM     18  H   UNL d   1      17.213 -21.741   0.124  0.00  0.00     0.217 HD
ENDBRANCH  14  17
ENDBRANCH   9  11
ENDBRANCH   1   7
BRANCH   4  19
ATOM     19  N   UNL d   1      28.485 -16.315   0.072  0.00  0.00    -0.321 N 
ATOM     20  C   UNL d   1      29.257 -15.826  -0.991  0.00  0.00     0.279 C 
ATOM     21  O   UNL d   1      28.815 -15.592  -2.120  0.00  0.00    -0.265 OA
ATOM     22  H   UNL d   1      28.950 -16.422   0.965  0.00  0.00     0.169 HD
BRANCH  20  23
ATOM     23  C   UNL d   1      30.662 -15.597  -0.716  0.00  0.00     0.142 A 
ATOM     24  C   UNL d   1      31.695 -15.066  -1.467  0.00  0.00     0.045 A 
ATOM     25  C   UNL d   1      32.825 -14.982  -0.613  0.00  0.00     0.027 A 
ATOM     26  C   UNL d   1      32.422 -15.466   0.609  0.00  0.00     0.143 A 
ATOM     27  O   UNL d   1      31.116 -15.828   0.561  0.00  0.00    -0.317 OA
ENDBRANCH  20  23
ENDBRANCH   4  19
TORSDOF 5
ENDMDL
