MODEL 1
REMARK VINA RESULT:    -7.350      0.000      0.000
REMARK INTER + INTRA:          -9.864
REMARK INTER:                  -9.438
REMARK INTRA:                  -0.426
REMARK CONF_INDEPENDENT:        2.088
REMARK UNBOUND:                -0.426
REMARK  7 active torsions:
REMARK  status: ('A' for Active; 'I' for Inactive)
REMARK    1  A    between atoms: C_2  and  C_3 
REMARK       I    between atoms: C_2  and  N_12 
REMARK    2  A    between atoms: C_3  and  C_4 
REMARK    3  A    between atoms: C_4  and  C_5 
REMARK    4  A    between atoms: C_5  and  N_6 
REMARK       I    between atoms: N_6  and  C_7 
REMARK    5  A    between atoms: C_7  and  C_9 
REMARK    6  A    between atoms: N_12  and  N_13 
REMARK    7  A    between atoms: N_13  and  C_14 
ROOT
ATOM      1  O   UNL d   1      22.721 -16.198  -0.756  0.00  0.00    -0.272 OA
ATOM      2  C   UNL d   1      23.841 -16.372  -1.238  0.00  0.00     0.236 C 
ATOM      3  N   UNL d   1      24.343 -15.458  -2.154  0.00  0.00    -0.270 N 
ATOM      4  H   UNL d   1      23.666 -14.787  -2.513  0.00  0.00     0.190 HD
ENDROOT
BRANCH   2   5
ATOM      5  C   UNL d   1      24.719 -17.553  -0.827  0.00  0.00     0.106 C 
BRANCH   5   6
ATOM      6  C   UNL d   1      23.957 -18.589   0.022  0.00  0.00     0.029 C 
BRANCH   6   7
ATOM      7  C   UNL d   1      22.833 -19.269  -0.765  0.00  0.00     0.123 C 
BRANCH   7   8
ATOM      8  N   UNL d   1      21.602 -19.428  -0.003  0.00  0.00    -0.361 N 
ATOM      9  C   UNL d   1      20.398 -19.640  -0.646  0.00  0.00     0.221 C 
ATOM     10  O   UNL d   1      20.286 -19.700  -1.870  0.00  0.00    -0.273 OA
ATOM     11  H   UNL d   1      21.631 -19.379   1.007  0.00  0.00     0.162 HD
BRANCH   9  12
ATOM     12  C   UNL d   1      19.197 -19.792   0.237  0.00  0.00     0.078 A 
ATOM     13  C   UNL d   1      18.781 -21.169   0.722  0.00  0.00     0.015 A 
ATOM     14  C   UNL d   1      19.365 -20.187   1.694  0.00  0.00     0.015 A 
ENDBRANCH   9  12
ENDBRANCH   7   8
ENDBRANCH   6   7
ENDBRANCH   5   6
ENDBRANCH   2   5
BRANCH   3  15
ATOM     15  N   UNL d   1      25.426 -15.744  -2.973  0.00  0.00    -0.298 N 
ATOM     16  H   UNL d   1      26.075 -16.481  -2.706  0.00  0.00     0.187 HD
BRANCH  15  17
ATOM     17  C   UNL d   1      25.956 -14.755  -3.827  0.00  0.00     0.048 A 
ATOM     18  C   UNL d   1      25.640 -13.388  -3.797  0.00  0.00     0.034 A 
ATOM     19  C   UNL d   1      26.224 -12.496  -4.717  0.00  0.00     0.044 A 
ATOM     20  C   UNL d   1      27.100 -12.970  -5.686  0.00  0.00     0.116 A 
ATOM     21  F   UNL d   1      27.661 -12.120  -6.556  0.00  0.00    -0.206 F 
ATOM     22  C   UNL d   1      27.403 -14.319  -5.760  0.00  0.00     0.044 A 
ATOM     23  C   UNL d   1      26.832 -15.200  -4.835  0.00  0.00     0.034 A 
ENDBRANCH  15  17
ENDBRANCH   3  15
TORSDOF 7
ENDMDL
MODEL 2
REMARK VINA RESULT:    -7.096      1.723      2.133
REMARK INTER + INTRA:         -10.096
REMARK INTER:                  -9.184
REMARK INTRA:                  -0.912
REMARK CONF_INDEPENDENT:        2.088
REMARK UNBOUND:                -0.912
REMARK  7 active torsions:
REMARK  status: ('A' for Active; 'I' for Inactive)
REMARK    1  A    between atoms: C_2  and  C_3 
REMARK       I    between atoms: C_2  and  N_12 
REMARK    2  A    between atoms: C_3  and  C_4 
REMARK    3  A    between atoms: C_4  and  C_5 
REMARK    4  A    between atoms: C_5  and  N_6 
REMARK       I    between atoms: N_6  and  C_7 
REMARK    5  A    between atoms: C_7  and  C_9 
REMARK    6  A    between atoms: N_12  and  N_13 
REMARK    7  A    between atoms: N_13  and  C_14 
ROOT
ATOM      1  O   UNL d   1      24.177 -18.741   0.285  0.00  0.00    -0.272 OA
ATOM      2  C   UNL d   1      24.620 -17.724  -0.251  0.00  0.00     0.236 C 
ATOM      3  N   UNL d   1      25.984 -17.603  -0.470  0.00  0.00    -0.270 N 
ATOM      4  H   UNL d   1      26.562 -18.297  -0.000  0.00  0.00     0.190 HD
ENDROOT
BRANCH   2   5
ATOM      5  C   UNL d   1      23.702 -16.596  -0.720  0.00  0.00     0.106 C 
BRANCH   5   6
ATOM      6  C   UNL d   1      22.219 -17.017  -0.755  0.00  0.00     0.029 C 
BRANCH   6   7
ATOM      7  C   UNL d   1      22.037 -18.458  -1.240  0.00  0.00     0.123 C 
BRANCH   7   8
ATOM      8  N   UNL d   1      21.534 -19.359  -0.212  0.00  0.00    -0.361 N 
ATOM      9  C   UNL d   1      20.278 -19.924  -0.323  0.00  0.00     0.221 C 
ATOM     10  O   UNL d   1      19.519 -19.703  -1.266  0.00  0.00    -0.273 OA
ATOM     11  H   UNL d   1      22.110 -19.570   0.593  0.00  0.00     0.162 HD
BRANCH   9  12
ATOM     12  C   UNL d   1      19.864 -20.837   0.791  0.00  0.00     0.078 A 
ATOM     13  C   UNL d   1      19.381 -20.257   2.108  0.00  0.00     0.015 A 
ATOM     14  C   UNL d   1      18.403 -20.935   1.195  0.00  0.00     0.015 A 
ENDBRANCH   9  12
ENDBRANCH   7   8
ENDBRANCH   6   7
ENDBRANCH   5   6
ENDBRANCH   2   5
BRANCH   3  15
ATOM     15  N   UNL d   1      26.588 -16.386  -0.756  0.00  0.00    -0.298 N 
ATOM     16  H   UNL d   1      26.582 -15.648  -0.056  0.00  0.00     0.187 HD
BRANCH  15  17
ATOM     17  C   UNL d   1      26.719 -15.950  -2.091  0.00  0.00     0.048 A 
ATOM     18  C   UNL d   1      25.667 -15.575  -2.940  0.00  0.00     0.034 A 
ATOM     19  C   UNL d   1      25.923 -15.172  -4.264  0.00  0.00     0.044 A 
ATOM     20  C   UNL d   1      27.224 -15.170  -4.752  0.00  0.00     0.116 A 
ATOM     21  F   UNL d   1      27.468 -14.780  -6.011  0.00  0.00    -0.206 F 
ATOM     22  C   UNL d   1      28.277 -15.569  -3.946  0.00  0.00     0.044 A 
ATOM     23  C   UNL d   1      28.020 -15.954  -2.627  0.00  0.00     0.034 A 
ENDBRANCH  15  17
ENDBRANCH   3  15
TORSDOF 7
ENDMDL
MODEL 3
REMARK VINA RESULT:    -7.087      4.024      9.323
REMARK INTER + INTRA:          -9.597
REMARK INTER:                  -9.175
REMARK INTRA:                  -0.422
REMARK CONF_INDEPENDENT:        2.088
REMARK UNBOUND:                -0.422
REMARK  7 active torsions:
REMARK  status: ('A' for Active; 'I' for Inactive)
REMARK    1  A    between atoms: C_2  and  C_3 
REMARK       I    between atoms: C_2  and  N_12 
REMARK    2  A    between atoms: C_3  and  C_4 
REMARK    3  A    between atoms: C_4  and  C_5 
REMARK    4  A    between atoms: C_5  and  N_6 
REMARK       I    between atoms: N_6  and  C_7 
REMARK    5  A    between atoms: C_7  and  C_9 
REMARK    6  A    between atoms: N_12  and  N_13 
REMARK    7  A    between atoms: N_13  and  C_14 
ROOT
ATOM      1  O   UNL d   1      25.102 -18.289   0.232  0.00  0.00    -0.272 OA
ATOM      2  C   UNL d   1      24.002 -17.958  -0.214  0.00  0.00     0.236 C 
ATOM      3  N   UNL d   1      22.864 -18.638   0.193  0.00  0.00    -0.270 N 
ATOM      4  H   UNL d   1      23.034 -19.501   0.705  0.00  0.00     0.190 HD
ENDROOT
BRANCH   2   5
ATOM      5  C   UNL d   1      23.847 -16.786  -1.183  0.00  0.00     0.106 C 
BRANCH   5   6
ATOM      6  C   UNL d   1      25.112 -16.549  -2.031  0.00  0.00     0.029 C 
BRANCH   6   7
ATOM      7  C   UNL d   1      25.526 -15.074  -2.056  0.00  0.00     0.123 C 
BRANCH   7   8
ATOM      8  N   UNL d   1      26.449 -14.746  -3.133  0.00  0.00    -0.361 N 
ATOM      9  C   UNL d   1      25.977 -14.328  -4.362  0.00  0.00     0.221 C 
ATOM     10  O   UNL d   1      24.780 -14.215  -4.624  0.00  0.00    -0.273 OA
ATOM     11  H   UNL d   1      27.445 -14.829  -2.979  0.00  0.00     0.162 HD
BRANCH   9  12
ATOM     12  C   UNL d   1      27.015 -14.014  -5.396  0.00  0.00     0.078 A 
ATOM     13  C   UNL d   1      28.454 -13.773  -4.977  0.00  0.00     0.015 A 
ATOM     14  C   UNL d   1      28.100 -15.027  -5.720  0.00  0.00     0.015 A 
ENDBRANCH   9  12
ENDBRANCH   7   8
ENDBRANCH   6   7
ENDBRANCH   5   6
ENDBRANCH   2   5
BRANCH   3  15
ATOM     15  N   UNL d   1      21.660 -18.552  -0.493  0.00  0.00    -0.298 N 
ATOM     16  H   UNL d   1      21.436 -17.702  -1.005  0.00  0.00     0.187 HD
BRANCH  15  17
ATOM     17  C   UNL d   1      20.550 -19.321  -0.087  0.00  0.00     0.048 A 
ATOM     18  C   UNL d   1      19.465 -19.690  -0.896  0.00  0.00     0.034 A 
ATOM     19  C   UNL d   1      18.403 -20.450  -0.369  0.00  0.00     0.044 A 
ATOM     20  C   UNL d   1      18.408 -20.818   0.971  0.00  0.00     0.116 A 
ATOM     21  F   UNL d   1      17.400 -21.547   1.469  0.00  0.00    -0.206 F 
ATOM     22  C   UNL d   1      19.449 -20.438   1.800  0.00  0.00     0.044 A 
ATOM     23  C   UNL d   1      20.510 -19.696   1.270  0.00  0.00     0.034 A 
ENDBRANCH  15  17
ENDBRANCH   3  15
TORSDOF 7
ENDMDL
MODEL 4
REMARK VINA RESULT:    -6.652      2.779      3.260
REMARK INTER + INTRA:          -9.934
REMARK INTER:                  -8.741
REMARK INTRA:                  -1.194
REMARK CONF_INDEPENDENT:        2.088
REMARK UNBOUND:                -1.194
REMARK  7 active torsions:
REMARK  status: ('A' for Active; 'I' for Inactive)
REMARK    1  A    between atoms: C_2  and  C_3 
REMARK       I    between atoms: C_2  and  N_12 
REMARK    2  A    between atoms: C_3  and  C_4 
REMARK    3  A    between atoms: C_4  and  C_5 
REMARK    4  A    between atoms: C_5  and  N_6 
REMARK       I    between atoms: N_6  and  C_7 
REMARK    5  A    between atoms: C_7  and  C_9 
REMARK    6  A    between atoms: N_12  and  N_13 
REMARK    7  A    between atoms: N_13  and  C_14 
ROOT
ATOM      1  O   UNL d   1      24.491 -18.536   1.154  0.00  0.00    -0.272 OA
ATOM      2  C   UNL d   1      25.388 -18.200   0.379  0.00  0.00     0.236 C 
ATOM      3  N   UNL d   1      26.711 -18.277   0.788  0.00  0.00    -0.270 N 
ATOM      4  H   UNL d   1      26.849 -18.437   1.784  0.00  0.00     0.190 HD
ENDROOT
BRANCH   2   5
ATOM      5  C   UNL d   1      25.088 -17.733  -1.044  0.00  0.00     0.106 C 
BRANCH   5   6
ATOM      6  C   UNL d   1      23.580 -17.547  -1.300  0.00  0.00     0.029 C 
BRANCH   6   7
ATOM      7  C   UNL d   1      22.852 -18.884  -1.473  0.00  0.00     0.123 C 
BRANCH   7   8
ATOM      8  N   UNL d   1      22.143 -19.319  -0.277  0.00  0.00    -0.361 N 
ATOM      9  C   UNL d   1      20.818 -19.704  -0.345  0.00  0.00     0.221 C 
ATOM     10  O   UNL d   1      20.165 -19.697  -1.387  0.00  0.00    -0.273 OA
ATOM     11  H   UNL d   1      22.627 -19.337   0.611  0.00  0.00     0.162 HD
BRANCH   9  12
ATOM     12  C   UNL d   1      20.191 -20.136   0.945  0.00  0.00     0.078 A 
ATOM     13  C   UNL d   1      18.825 -19.604   1.341  0.00  0.00     0.015 A 
ATOM     14  C   UNL d   1      18.970 -21.040   0.935  0.00  0.00     0.015 A 
ENDBRANCH   9  12
ENDBRANCH   7   8
ENDBRANCH   6   7
ENDBRANCH   5   6
ENDBRANCH   2   5
BRANCH   3  15
ATOM     15  N   UNL d   1      27.737 -17.625   0.118  0.00  0.00    -0.298 N 
ATOM     16  H   UNL d   1      28.692 -17.960   0.218  0.00  0.00     0.187 HD
BRANCH  15  17
ATOM     17  C   UNL d   1      27.608 -16.266  -0.235  0.00  0.00     0.048 A 
ATOM     18  C   UNL d   1      27.123 -15.243   0.595  0.00  0.00     0.034 A 
ATOM     19  C   UNL d   1      27.025 -13.921   0.122  0.00  0.00     0.044 A 
ATOM     20  C   UNL d   1      27.382 -13.621  -1.187  0.00  0.00     0.116 A 
ATOM     21  F   UNL d   1      27.296 -12.362  -1.635  0.00  0.00    -0.206 F 
ATOM     22  C   UNL d   1      27.831 -14.617  -2.038  0.00  0.00     0.044 A 
ATOM     23  C   UNL d   1      27.942 -15.927  -1.560  0.00  0.00     0.034 A 
ENDBRANCH  15  17
ENDBRANCH   3  15
TORSDOF 7
ENDMDL
MODEL 5
REMARK VINA RESULT:    -6.218      1.947      2.369
REMARK INTER + INTRA:          -8.867
REMARK INTER:                  -8.307
REMARK INTRA:                  -0.560
REMARK CONF_INDEPENDENT:        2.088
REMARK UNBOUND:                -0.560
REMARK  7 active torsions:
REMARK  status: ('A' for Active; 'I' for Inactive)
REMARK    1  A    between atoms: C_2  and  C_3 
REMARK       I    between atoms: C_2  and  N_12 
REMARK    2  A    between atoms: C_3  and  C_4 
REMARK    3  A    between atoms: C_4  and  C_5 
REMARK    4  A    between atoms: C_5  and  N_6 
REMARK       I    between atoms: N_6  and  C_7 
REMARK    5  A    between atoms: C_7  and  C_9 
REMARK    6  A    between atoms: N_12  and  N_13 
REMARK    7  A    between atoms: N_13  and  C_14 
ROOT
ATOM      1  O   UNL d   1      26.604 -17.034   0.894  0.00  0.00    -0.272 OA
ATOM      2  C   UNL d   1      26.620 -17.022  -0.338  0.00  0.00     0.236 C 
ATOM      3  N   UNL d   1      27.732 -16.529  -1.004  0.00  0.00    -0.270 N 
ATOM      4  H   UNL d   1      28.403 -16.032  -0.421  0.00  0.00     0.190 HD
ENDROOT
BRANCH   2   5
ATOM      5  C   UNL d   1      25.457 -17.571  -1.163  0.00  0.00     0.106 C 
BRANCH   5   6
ATOM      6  C   UNL d   1      24.417 -18.312  -0.299  0.00  0.00     0.029 C 
BRANCH   6   7
ATOM      7  C   UNL d   1      22.979 -17.976  -0.708  0.00  0.00     0.123 C 
BRANCH   7   8
ATOM      8  N   UNL d   1      22.008 -18.982  -0.300  0.00  0.00    -0.361 N 
ATOM      9  C   UNL d   1      20.674 -18.848  -0.632  0.00  0.00     0.221 C 
ATOM     10  O   UNL d   1      20.228 -17.895  -1.269  0.00  0.00    -0.273 OA
ATOM     11  H   UNL d   1      22.315 -19.784   0.234  0.00  0.00     0.162 HD
BRANCH   9  12
ATOM     12  C   UNL d   1      19.765 -19.943  -0.163  0.00  0.00     0.078 A 
ATOM     13  C   UNL d   1      20.176 -20.825   1.002  0.00  0.00     0.015 A 
ATOM     14  C   UNL d   1      19.066 -19.832   1.181  0.00  0.00     0.015 A 
ENDBRANCH   9  12
ENDBRANCH   7   8
ENDBRANCH   6   7
ENDBRANCH   5   6
ENDBRANCH   2   5
BRANCH   3  15
ATOM     15  N   UNL d   1      27.701 -16.179  -2.347  0.00  0.00    -0.298 N 
ATOM     16  H   UNL d   1      28.451 -16.487  -2.961  0.00  0.00     0.187 HD
BRANCH  15  17
ATOM     17  C   UNL d   1      27.013 -15.022  -2.768  0.00  0.00     0.048 A 
ATOM     18  C   UNL d   1      26.270 -14.893  -3.951  0.00  0.00     0.034 A 
ATOM     19  C   UNL d   1      25.639 -13.676  -4.272  0.00  0.00     0.044 A 
ATOM     20  C   UNL d   1      25.772 -12.579  -3.429  0.00  0.00     0.116 A 
ATOM     21  F   UNL d   1      25.165 -11.423  -3.731  0.00  0.00    -0.206 F 
ATOM     22  C   UNL d   1      26.528 -12.669  -2.273  0.00  0.00     0.044 A 
ATOM     23  C   UNL d   1      27.141 -13.884  -1.950  0.00  0.00     0.034 A 
ENDBRANCH  15  17
ENDBRANCH   3  15
TORSDOF 7
ENDMDL
MODEL 6
REMARK VINA RESULT:    -6.166      4.982      9.146
REMARK INTER + INTRA:          -8.658
REMARK INTER:                  -8.254
REMARK INTRA:                  -0.404
REMARK CONF_INDEPENDENT:        2.088
REMARK UNBOUND:                -0.404
REMARK  7 active torsions:
REMARK  status: ('A' for Active; 'I' for Inactive)
REMARK    1  A    between atoms: C_2  and  C_3 
REMARK       I    between atoms: C_2  and  N_12 
REMARK    2  A    between atoms: C_3  and  C_4 
REMARK    3  A    between atoms: C_4  and  C_5 
REMARK    4  A    between atoms: C_5  and  N_6 
REMARK       I    between atoms: N_6  and  C_7 
REMARK    5  A    between atoms: C_7  and  C_9 
REMARK    6  A    between atoms: N_12  and  N_13 
REMARK    7  A    between atoms: N_13  and  C_14 
ROOT
ATOM      1  O   UNL d   1      23.460 -16.228  -1.562  0.00  0.00    -0.272 OA
ATOM      2  C   UNL d   1      23.342 -17.250  -0.884  0.00  0.00     0.236 C 
ATOM      3  N   UNL d   1      22.083 -17.648  -0.459  0.00  0.00    -0.270 N 
ATOM      4  H   UNL d   1      21.344 -16.959  -0.584  0.00  0.00     0.190 HD
ENDROOT
BRANCH   2   5
ATOM      5  C   UNL d   1      24.544 -18.121  -0.524  0.00  0.00     0.106 C 
BRANCH   5   6
ATOM      6  C   UNL d   1      25.881 -17.363  -0.645  0.00  0.00     0.029 C 
BRANCH   6   7
ATOM      7  C   UNL d   1      26.804 -17.622   0.549  0.00  0.00     0.123 C 
BRANCH   7   8
ATOM      8  N   UNL d   1      27.775 -16.561   0.776  0.00  0.00    -0.361 N 
ATOM      9  C   UNL d   1      27.397 -15.234   0.710  0.00  0.00     0.221 C 
ATOM     10  O   UNL d   1      26.250 -14.870   0.456  0.00  0.00    -0.273 OA
ATOM     11  H   UNL d   1      28.737 -16.800   0.980  0.00  0.00     0.162 HD
BRANCH   9  12
ATOM     12  C   UNL d   1      28.477 -14.227   0.962  0.00  0.00     0.078 A 
ATOM     13  C   UNL d   1      28.351 -12.822   0.401  0.00  0.00     0.015 A 
ATOM     14  C   UNL d   1      28.219 -13.043   1.879  0.00  0.00     0.015 A 
ENDBRANCH   9  12
ENDBRANCH   7   8
ENDBRANCH   6   7
ENDBRANCH   5   6
ENDBRANCH   2   5
BRANCH   3  15
ATOM     15  N   UNL d   1      21.898 -18.575   0.558  0.00  0.00    -0.298 N 
ATOM     16  H   UNL d   1      22.710 -18.993   1.006  0.00  0.00     0.187 HD
BRANCH  15  17
ATOM     17  C   UNL d   1      20.714 -19.337   0.623  0.00  0.00     0.048 A 
ATOM     18  C   UNL d   1      19.907 -19.697  -0.467  0.00  0.00     0.034 A 
ATOM     19  C   UNL d   1      18.733 -20.450  -0.273  0.00  0.00     0.044 A 
ATOM     20  C   UNL d   1      18.347 -20.820   1.010  0.00  0.00     0.116 A 
ATOM     21  F   UNL d   1      17.234 -21.542   1.193  0.00  0.00    -0.206 F 
ATOM     22  C   UNL d   1      19.107 -20.449   2.106  0.00  0.00     0.044 A 
ATOM     23  C   UNL d   1      20.280 -19.714   1.908  0.00  0.00     0.034 A 
ENDBRANCH  15  17
ENDBRANCH   3  15
TORSDOF 7
ENDMDL
MODEL 7
REMARK VINA RESULT:    -5.871      3.910      8.944
REMARK INTER + INTRA:          -9.065
REMARK INTER:                  -7.959
REMARK INTRA:                  -1.106
REMARK CONF_INDEPENDENT:        2.088
REMARK UNBOUND:                -1.106
REMARK  7 active torsions:
REMARK  status: ('A' for Active; 'I' for Inactive)
REMARK    1  A    between atoms: C_2  and  C_3 
REMARK       I    between atoms: C_2  and  N_12 
REMARK    2  A    between atoms: C_3  and  C_4 
REMARK    3  A    between atoms: C_4  and  C_5 
REMARK    4  A    between atoms: C_5  and  N_6 
REMARK       I    between atoms: N_6  and  C_7 
REMARK    5  A    between atoms: C_7  and  C_9 
REMARK    6  A    between atoms: N_12  and  N_13 
REMARK    7  A    between atoms: N_13  and  C_14 
ROOT
ATOM      1  O   UNL d   1      23.331 -16.011  -1.028  0.00  0.00    -0.272 OA
ATOM      2  C   UNL d   1      23.340 -17.132  -0.518  0.00  0.00     0.236 C 
ATOM      3  N   UNL d   1      22.154 -17.842  -0.403  0.00  0.00    -0.270 N 
ATOM      4  H   UNL d   1      21.308 -17.306  -0.585  0.00  0.00     0.190 HD
ENDROOT
BRANCH   2   5
ATOM      5  C   UNL d   1      24.635 -17.788  -0.039  0.00  0.00     0.106 C 
BRANCH   5   6
ATOM      6  C   UNL d   1      25.837 -17.455  -0.944  0.00  0.00     0.029 C 
BRANCH   6   7
ATOM      7  C   UNL d   1      26.165 -15.959  -0.945  0.00  0.00     0.123 C 
BRANCH   7   8
ATOM      8  N   UNL d   1      25.695 -15.260  -2.132  0.00  0.00    -0.361 N 
ATOM      9  C   UNL d   1      26.582 -14.865  -3.115  0.00  0.00     0.221 C 
ATOM     10  O   UNL d   1      27.794 -15.064  -3.050  0.00  0.00    -0.273 OA
ATOM     11  H   UNL d   1      24.709 -15.060  -2.236  0.00  0.00     0.162 HD
BRANCH   9  12
ATOM     12  C   UNL d   1      25.988 -14.156  -4.294  0.00  0.00     0.078 A 
ATOM     13  C   UNL d   1      24.541 -13.700  -4.255  0.00  0.00     0.015 A 
ATOM     14  C   UNL d   1      25.640 -12.681  -4.202  0.00  0.00     0.015 A 
ENDBRANCH   9  12
ENDBRANCH   7   8
ENDBRANCH   6   7
ENDBRANCH   5   6
ENDBRANCH   2   5
BRANCH   3  15
ATOM     15  N   UNL d   1      22.023 -18.941   0.435  0.00  0.00    -0.298 N 
ATOM     16  H   UNL d   1      22.830 -19.535   0.611  0.00  0.00     0.187 HD
BRANCH  15  17
ATOM     17  C   UNL d   1      20.768 -19.561   0.608  0.00  0.00     0.048 A 
ATOM     18  C   UNL d   1      20.249 -20.043   1.819  0.00  0.00     0.034 A 
ATOM     19  C   UNL d   1      18.984 -20.661   1.862  0.00  0.00     0.044 A 
ATOM     20  C   UNL d   1      18.250 -20.826   0.694  0.00  0.00     0.116 A 
ATOM     21  F   UNL d   1      17.044 -21.408   0.737  0.00  0.00    -0.206 F 
ATOM     22  C   UNL d   1      18.754 -20.391  -0.520  0.00  0.00     0.044 A 
ATOM     23  C   UNL d   1      20.004 -19.764  -0.556  0.00  0.00     0.034 A 
ENDBRANCH  15  17
ENDBRANCH   3  15
TORSDOF 7
ENDMDL
MODEL 8
REMARK VINA RESULT:    -5.273      2.976      4.045
REMARK INTER + INTRA:          -8.782
REMARK INTER:                  -7.361
REMARK INTRA:                  -1.422
REMARK CONF_INDEPENDENT:        2.088
REMARK UNBOUND:                -1.422
REMARK  7 active torsions:
REMARK  status: ('A' for Active; 'I' for Inactive)
REMARK    1  A    between atoms: C_2  and  C_3 
REMARK       I    between atoms: C_2  and  N_12 
REMARK    2  A    between atoms: C_3  and  C_4 
REMARK    3  A    between atoms: C_4  and  C_5 
REMARK    4  A    between atoms: C_5  and  N_6 
REMARK       I    between atoms: N_6  and  C_7 
REMARK    5  A    between atoms: C_7  and  C_9 
REMARK    6  A    between atoms: N_12  and  N_13 
REMARK    7  A    between atoms: N_13  and  C_14 
ROOT
ATOM      1  O   UNL d   1      24.031 -15.201  -2.735  0.00  0.00    -0.272 OA
ATOM      2  C   UNL d   1      24.797 -14.274  -3.001  0.00  0.00     0.236 C 
ATOM      3  N   UNL d   1      24.490 -13.408  -4.040  0.00  0.00    -0.270 N 
ATOM      4  H   UNL d   1      23.727 -13.707  -4.644  0.00  0.00     0.190 HD
ENDROOT
BRANCH   2   5
ATOM      5  C   UNL d   1      26.069 -14.024  -2.193  0.00  0.00     0.106 C 
BRANCH   5   6
ATOM      6  C   UNL d   1      27.015 -15.241  -2.187  0.00  0.00     0.029 C 
BRANCH   6   7
ATOM      7  C   UNL d   1      26.815 -16.125  -0.953  0.00  0.00     0.123 C 
BRANCH   7   8
ATOM      8  N   UNL d   1      25.463 -16.651  -0.826  0.00  0.00    -0.361 N 
ATOM      9  C   UNL d   1      25.211 -17.769  -0.054  0.00  0.00     0.221 C 
ATOM     10  O   UNL d   1      26.087 -18.381   0.555  0.00  0.00    -0.273 OA
ATOM     11  H   UNL d   1      24.702 -16.194  -1.312  0.00  0.00     0.162 HD
BRANCH   9  12
ATOM     12  C   UNL d   1      23.784 -18.220   0.008  0.00  0.00     0.078 A 
ATOM     13  C   UNL d   1      22.680 -17.321  -0.519  0.00  0.00     0.015 A 
ATOM     14  C   UNL d   1      23.038 -18.569  -1.269  0.00  0.00     0.015 A 
ENDBRANCH   9  12
ENDBRANCH   7   8
ENDBRANCH   6   7
ENDBRANCH   5   6
ENDBRANCH   2   5
BRANCH   3  15
ATOM     15  N   UNL d   1      25.433 -12.561  -4.607  0.00  0.00    -0.298 N 
ATOM     16  H   UNL d   1      25.152 -11.630  -4.907  0.00  0.00     0.187 HD
BRANCH  15  17
ATOM     17  C   UNL d   1      26.566 -13.089  -5.259  0.00  0.00     0.048 A 
ATOM     18  C   UNL d   1      26.875 -14.451  -5.396  0.00  0.00     0.034 A 
ATOM     19  C   UNL d   1      28.050 -14.857  -6.057  0.00  0.00     0.044 A 
ATOM     20  C   UNL d   1      28.933 -13.906  -6.555  0.00  0.00     0.116 A 
ATOM     21  F   UNL d   1      30.047 -14.293  -7.190  0.00  0.00    -0.206 F 
ATOM     22  C   UNL d   1      28.669 -12.555  -6.404  0.00  0.00     0.044 A 
ATOM     23  C   UNL d   1      27.493 -12.156  -5.760  0.00  0.00     0.034 A 
ENDBRANCH  15  17
ENDBRANCH   3  15
TORSDOF 7
ENDMDL
MODEL 9
REMARK VINA RESULT:    -4.949      4.619      7.629
REMARK INTER + INTRA:          -8.729
REMARK INTER:                  -7.037
REMARK INTRA:                  -1.693
REMARK CONF_INDEPENDENT:        2.088
REMARK UNBOUND:                -1.693
REMARK  7 active torsions:
REMARK  status: ('A' for Active; 'I' for Inactive)
REMARK    1  A    between atoms: C_2  and  C_3 
REMARK       I    between atoms: C_2  and  N_12 
REMARK    2  A    between atoms: C_3  and  C_4 
REMARK    3  A    between atoms: C_4  and  C_5 
REMARK    4  A    between atoms: C_5  and  N_6 
REMARK       I    between atoms: N_6  and  C_7 
REMARK    5  A    between atoms: C_7  and  C_9 
REMARK    6  A    between atoms: N_12  and  N_13 
REMARK    7  A    between atoms: N_13  and  C_14 
ROOT
ATOM      1  O   UNL d   1      30.155 -14.805  -1.938  0.00  0.00    -0.272 OA
ATOM      2  C   UNL d   1      29.442 -15.742  -1.575  0.00  0.00     0.236 C 
ATOM      3  N   UNL d   1      28.753 -15.654  -0.374  0.00  0.00    -0.270 N 
ATOM      4  H   UNL d   1      29.029 -14.882   0.229  0.00  0.00     0.190 HD
ENDROOT
BRANCH   2   5
ATOM      5  C   UNL d   1      29.261 -16.995  -2.431  0.00  0.00     0.106 C 
BRANCH   5   6
ATOM      6  C   UNL d   1      30.046 -16.924  -3.756  0.00  0.00     0.029 C 
BRANCH   6   7
ATOM      7  C   UNL d   1      29.280 -16.165  -4.844  0.00  0.00     0.123 C 
BRANCH   7   8
ATOM      8  N   UNL d   1      28.462 -15.076  -4.329  0.00  0.00    -0.361 N 
ATOM      9  C   UNL d   1      27.184 -14.866  -4.811  0.00  0.00     0.221 C 
ATOM     10  O   UNL d   1      26.670 -15.560  -5.687  0.00  0.00    -0.273 OA
ATOM     11  H   UNL d   1      28.836 -14.467  -3.613  0.00  0.00     0.162 HD
BRANCH   9  12
ATOM     12  C   UNL d   1      26.432 -13.719  -4.208  0.00  0.00     0.078 A 
ATOM     13  C   UNL d   1      24.916 -13.693  -4.264  0.00  0.00     0.015 A 
ATOM     14  C   UNL d   1      25.604 -13.926  -2.951  0.00  0.00     0.015 A 
ENDBRANCH   9  12
ENDBRANCH   7   8
ENDBRANCH   6   7
ENDBRANCH   5   6
ENDBRANCH   2   5
BRANCH   3  15
ATOM     15  N   UNL d   1      28.206 -16.766   0.254  0.00  0.00    -0.298 N 
ATOM     16  H   UNL d   1      28.821 -17.502   0.591  0.00  0.00     0.187 HD
BRANCH  15  17
ATOM     17  C   UNL d   1      26.883 -17.165  -0.026  0.00  0.00     0.048 A 
ATOM     18  C   UNL d   1      26.190 -18.210   0.603  0.00  0.00     0.034 A 
ATOM     19  C   UNL d   1      24.871 -18.526   0.223  0.00  0.00     0.044 A 
ATOM     20  C   UNL d   1      24.253 -17.820  -0.802  0.00  0.00     0.116 A 
ATOM     21  F   UNL d   1      22.996 -18.116  -1.157  0.00  0.00    -0.206 F 
ATOM     22  C   UNL d   1      24.927 -16.806  -1.462  0.00  0.00     0.044 A 
ATOM     23  C   UNL d   1      26.231 -16.485  -1.072  0.00  0.00     0.034 A 
ENDBRANCH  15  17
ENDBRANCH   3  15
TORSDOF 7
ENDMDL
