MODEL 1
REMARK VINA RESULT:    -6.867      0.000      0.000
REMARK INTER + INTRA:          -8.446
REMARK INTER:                  -8.061
REMARK INTRA:                  -0.385
REMARK CONF_INDEPENDENT:        1.193
REMARK UNBOUND:                -0.385
REMARK  4 active torsions:
REMARK  status: ('A' for Active; 'I' for Inactive)
REMARK       I    between atoms: C_2  and  N_4 
REMARK    1  A    between atoms: N_4  and  C_5 
REMARK    2  A    between atoms: C_7  and  N_8 
REMARK    3  A    between atoms: N_8  and  C_9 
REMARK    4  A    between atoms: C_9  and  C_10 
ROOT
ATOM      1  C   UNL d   1      24.391 -17.873  -0.458  0.00  0.00     0.075 A 
ATOM      2  C   UNL d   1      24.261 -17.104  -1.633  0.00  0.00     0.061 A 
ATOM      3  C   UNL d   1      25.262 -16.177  -2.008  0.00  0.00     0.030 A 
ATOM      4  C   UNL d   1      26.411 -16.092  -1.208  0.00  0.00     0.032 A 
ATOM      5  C   UNL d   1      26.573 -16.885  -0.078  0.00  0.00     0.047 A 
ATOM      6  C   UNL d   1      25.569 -17.763   0.289  0.00  0.00     0.143 A 
ATOM      7  F   UNL d   1      25.803 -18.575   1.331  0.00  0.00    -0.204 F 
ENDROOT
BRANCH   3   8
ATOM      8  N   UNL d   1      25.103 -15.366  -3.126  0.00  0.00    -0.385 N 
ATOM      9  H   UNL d   1      24.366 -14.674  -3.143  0.00  0.00     0.160 HD
BRANCH   8  10
ATOM     10  C   UNL d   1      25.970 -15.481  -4.292  0.00  0.00     0.163 C 
BRANCH  10  11
ATOM     11  C   UNL d   1      26.414 -14.140  -4.799  0.00  0.00     0.020 A 
ATOM     12  C   UNL d   1      25.561 -13.041  -4.645  0.00  0.00     0.126 A 
ATOM     13  F   UNL d   1      24.369 -13.200  -4.051  0.00  0.00    -0.205 F 
ATOM     14  C   UNL d   1      25.905 -11.772  -5.103  0.00  0.00     0.043 A 
ATOM     15  C   UNL d   1      27.126 -11.577  -5.740  0.00  0.00     0.005 A 
ATOM     16  C   UNL d   1      27.994 -12.657  -5.910  0.00  0.00     0.024 A 
ATOM     17  C   UNL d   1      27.644 -13.928  -5.439  0.00  0.00     0.044 A 
ATOM     18 CL   UNL d   1      28.782 -15.204  -5.689  0.00  0.00    -0.084 Cl
ENDBRANCH  10  11
ENDBRANCH   8  10
ENDBRANCH   3   8
BRANCH   1  19
ATOM     19  N   UNL d   1      23.356 -18.755  -0.034  0.00  0.00    -0.325 N 
ATOM     20  C   UNL d   1      22.018 -18.448  -0.255  0.00  0.00     0.218 C 
ATOM     21  C   UNL d   1      21.028 -19.454   0.273  0.00  0.00     0.117 C 
ATOM     22  O   UNL d   1      21.611 -17.475  -0.895  0.00  0.00    -0.274 OA
ATOM     23  H   UNL d   1      23.605 -19.701   0.221  0.00  0.00     0.169 HD
ENDBRANCH   1  19
TORSDOF 4
ENDMDL
MODEL 2
REMARK VINA RESULT:    -6.771      3.584      4.534
REMARK INTER + INTRA:          -8.708
REMARK INTER:                  -7.964
REMARK INTRA:                  -0.744
REMARK CONF_INDEPENDENT:        1.193
REMARK UNBOUND:                -0.744
REMARK  4 active torsions:
REMARK  status: ('A' for Active; 'I' for Inactive)
REMARK       I    between atoms: C_2  and  N_4 
REMARK    1  A    between atoms: N_4  and  C_5 
REMARK    2  A    between atoms: C_7  and  N_8 
REMARK    3  A    between atoms: N_8  and  C_9 
REMARK    4  A    between atoms: C_9  and  C_10 
ROOT
ATOM      1  C   UNL d   1      22.714 -18.236  -0.054  0.00  0.00     0.075 A 
ATOM      2  C   UNL d   1      24.048 -18.578   0.251  0.00  0.00     0.061 A 
ATOM      3  C   UNL d   1      25.127 -17.812  -0.251  0.00  0.00     0.030 A 
ATOM      4  C   UNL d   1      24.825 -16.671  -1.010  0.00  0.00     0.032 A 
ATOM      5  C   UNL d   1      23.513 -16.295  -1.270  0.00  0.00     0.047 A 
ATOM      6  C   UNL d   1      22.473 -17.074  -0.796  0.00  0.00     0.143 A 
ATOM      7  F   UNL d   1      21.223 -16.627  -0.989  0.00  0.00    -0.204 F 
ENDROOT
BRANCH   3   8
ATOM      8  N   UNL d   1      26.444 -18.189  -0.012  0.00  0.00    -0.385 N 
ATOM      9  H   UNL d   1      26.760 -19.111  -0.286  0.00  0.00     0.160 HD
BRANCH   8  10
ATOM     10  C   UNL d   1      27.398 -17.294   0.631  0.00  0.00     0.163 C 
BRANCH  10  11
ATOM     11  C   UNL d   1      28.159 -16.471  -0.367  0.00  0.00     0.020 A 
ATOM     12  C   UNL d   1      29.191 -17.074  -1.096  0.00  0.00     0.126 A 
ATOM     13  F   UNL d   1      29.482 -18.367  -0.895  0.00  0.00    -0.205 F 
ATOM     14  C   UNL d   1      29.945 -16.366  -2.028  0.00  0.00     0.043 A 
ATOM     15  C   UNL d   1      29.681 -15.018  -2.247  0.00  0.00     0.005 A 
ATOM     16  C   UNL d   1      28.660 -14.391  -1.531  0.00  0.00     0.024 A 
ATOM     17  C   UNL d   1      27.901 -15.113  -0.602  0.00  0.00     0.044 A 
ATOM     18 CL   UNL d   1      26.655 -14.257   0.236  0.00  0.00    -0.084 Cl
ENDBRANCH  10  11
ENDBRANCH   8  10
ENDBRANCH   3   8
BRANCH   1  19
ATOM     19  N   UNL d   1      21.625 -19.041   0.386  0.00  0.00    -0.325 N 
ATOM     20  C   UNL d   1      20.659 -19.490  -0.509  0.00  0.00     0.218 C 
ATOM     21  C   UNL d   1      19.547 -20.306   0.097  0.00  0.00     0.117 C 
ATOM     22  O   UNL d   1      20.695 -19.325  -1.731  0.00  0.00    -0.274 OA
ATOM     23  H   UNL d   1      21.682 -19.471   1.299  0.00  0.00     0.169 HD
ENDBRANCH   1  19
TORSDOF 4
ENDMDL
MODEL 3
REMARK VINA RESULT:    -6.701      3.419      4.092
REMARK INTER + INTRA:          -8.613
REMARK INTER:                  -7.894
REMARK INTRA:                  -0.719
REMARK CONF_INDEPENDENT:        1.193
REMARK UNBOUND:                -0.719
REMARK  4 active torsions:
REMARK  status: ('A' for Active; 'I' for Inactive)
REMARK       I    between atoms: C_2  and  N_4 
REMARK    1  A    between atoms: N_4  and  C_5 
REMARK    2  A    between atoms: C_7  and  N_8 
REMARK    3  A    between atoms: N_8  and  C_9 
REMARK    4  A    between atoms: C_9  and  C_10 
ROOT
ATOM      1  C   UNL d   1      22.724 -18.273  -0.041  0.00  0.00     0.075 A 
ATOM      2  C   UNL d   1      24.075 -18.581   0.222  0.00  0.00     0.061 A 
ATOM      3  C   UNL d   1      25.119 -17.785  -0.308  0.00  0.00     0.030 A 
ATOM      4  C   UNL d   1      24.764 -16.649  -1.051  0.00  0.00     0.032 A 
ATOM      5  C   UNL d   1      23.435 -16.306  -1.270  0.00  0.00     0.047 A 
ATOM      6  C   UNL d   1      22.431 -17.114  -0.770  0.00  0.00     0.143 A 
ATOM      7  F   UNL d   1      21.164 -16.699  -0.923  0.00  0.00    -0.204 F 
ENDROOT
BRANCH   3   8
ATOM      8  N   UNL d   1      26.451 -18.128  -0.110  0.00  0.00    -0.385 N 
ATOM      9  H   UNL d   1      26.814 -18.983  -0.513  0.00  0.00     0.160 HD
BRANCH   8  10
ATOM     10  C   UNL d   1      27.355 -17.293   0.670  0.00  0.00     0.163 C 
BRANCH  10  11
ATOM     11  C   UNL d   1      27.940 -16.178  -0.149  0.00  0.00     0.020 A 
ATOM     12  C   UNL d   1      27.313 -14.927  -0.135  0.00  0.00     0.126 A 
ATOM     13  F   UNL d   1      26.210 -14.742   0.604  0.00  0.00    -0.205 F 
ATOM     14  C   UNL d   1      27.795 -13.853  -0.880  0.00  0.00     0.043 A 
ATOM     15  C   UNL d   1      28.927 -14.018  -1.671  0.00  0.00     0.005 A 
ATOM     16  C   UNL d   1      29.569 -15.257  -1.707  0.00  0.00     0.024 A 
ATOM     17  C   UNL d   1      29.083 -16.328  -0.947  0.00  0.00     0.044 A 
ATOM     18 CL   UNL d   1      29.943 -17.823  -1.050  0.00  0.00    -0.084 Cl
ENDBRANCH  10  11
ENDBRANCH   8  10
ENDBRANCH   3   8
BRANCH   1  19
ATOM     19  N   UNL d   1      21.671 -19.108   0.426  0.00  0.00    -0.325 N 
ATOM     20  C   UNL d   1      20.673 -19.553  -0.435  0.00  0.00     0.218 C 
ATOM     21  C   UNL d   1      19.604 -20.404   0.199  0.00  0.00     0.117 C 
ATOM     22  O   UNL d   1      20.651 -19.359  -1.653  0.00  0.00    -0.274 OA
ATOM     23  H   UNL d   1      21.776 -19.559   1.325  0.00  0.00     0.169 HD
ENDBRANCH   1  19
TORSDOF 4
ENDMDL
MODEL 4
REMARK VINA RESULT:    -6.653      1.755      2.064
REMARK INTER + INTRA:          -8.596
REMARK INTER:                  -7.846
REMARK INTRA:                  -0.750
REMARK CONF_INDEPENDENT:        1.193
REMARK UNBOUND:                -0.750
REMARK  4 active torsions:
REMARK  status: ('A' for Active; 'I' for Inactive)
REMARK       I    between atoms: C_2  and  N_4 
REMARK    1  A    between atoms: N_4  and  C_5 
REMARK    2  A    between atoms: C_7  and  N_8 
REMARK    3  A    between atoms: N_8  and  C_9 
REMARK    4  A    between atoms: C_9  and  C_10 
ROOT
ATOM      1  C   UNL d   1      23.648 -17.129  -0.662  0.00  0.00     0.075 A 
ATOM      2  C   UNL d   1      23.648 -15.940  -1.420  0.00  0.00     0.061 A 
ATOM      3  C   UNL d   1      24.862 -15.346  -1.840  0.00  0.00     0.030 A 
ATOM      4  C   UNL d   1      26.059 -16.010  -1.530  0.00  0.00     0.032 A 
ATOM      5  C   UNL d   1      26.066 -17.210  -0.829  0.00  0.00     0.047 A 
ATOM      6  C   UNL d   1      24.871 -17.758  -0.401  0.00  0.00     0.143 A 
ATOM      7  F   UNL d   1      24.914 -18.962   0.188  0.00  0.00    -0.204 F 
ENDROOT
BRANCH   3   8
ATOM      8  N   UNL d   1      24.868 -14.137  -2.525  0.00  0.00    -0.385 N 
ATOM      9  H   UNL d   1      24.977 -13.271  -2.013  0.00  0.00     0.160 HD
BRANCH   8  10
ATOM     10  C   UNL d   1      24.716 -14.069  -3.973  0.00  0.00     0.163 C 
BRANCH  10  11
ATOM     11  C   UNL d   1      26.016 -13.773  -4.663  0.00  0.00     0.020 A 
ATOM     12  C   UNL d   1      26.668 -14.802  -5.352  0.00  0.00     0.126 A 
ATOM     13  F   UNL d   1      26.126 -16.028  -5.387  0.00  0.00    -0.205 F 
ATOM     14  C   UNL d   1      27.882 -14.600  -6.003  0.00  0.00     0.043 A 
ATOM     15  C   UNL d   1      28.479 -13.344  -5.969  0.00  0.00     0.005 A 
ATOM     16  C   UNL d   1      27.853 -12.301  -5.286  0.00  0.00     0.024 A 
ATOM     17  C   UNL d   1      26.628 -12.511  -4.641  0.00  0.00     0.044 A 
ATOM     18 CL   UNL d   1      25.924 -11.162  -3.824  0.00  0.00    -0.084 Cl
ENDBRANCH  10  11
ENDBRANCH   8  10
ENDBRANCH   3   8
BRANCH   1  19
ATOM     19  N   UNL d   1      22.436 -17.694  -0.173  0.00  0.00    -0.325 N 
ATOM     20  C   UNL d   1      21.812 -18.741  -0.843  0.00  0.00     0.218 C 
ATOM     21  C   UNL d   1      20.521 -19.221  -0.233  0.00  0.00     0.117 C 
ATOM     22  O   UNL d   1      22.271 -19.324  -1.829  0.00  0.00    -0.274 OA
ATOM     23  H   UNL d   1      22.156 -17.486   0.776  0.00  0.00     0.169 HD
ENDBRANCH   1  19
TORSDOF 4
ENDMDL
MODEL 5
REMARK VINA RESULT:    -6.430      4.294      6.581
REMARK INTER + INTRA:          -8.400
REMARK INTER:                  -7.623
REMARK INTRA:                  -0.777
REMARK CONF_INDEPENDENT:        1.193
REMARK UNBOUND:                -0.777
REMARK  4 active torsions:
REMARK  status: ('A' for Active; 'I' for Inactive)
REMARK       I    between atoms: C_2  and  N_4 
REMARK    1  A    between atoms: N_4  and  C_5 
REMARK    2  A    between atoms: C_7  and  N_8 
REMARK    3  A    between atoms: N_8  and  C_9 
REMARK    4  A    between atoms: C_9  and  C_10 
ROOT
ATOM      1  C   UNL d   1      28.010 -14.281   2.333  0.00  0.00     0.075 A 
ATOM      2  C   UNL d   1      28.233 -15.083   1.195  0.00  0.00     0.061 A 
ATOM      3  C   UNL d   1      27.621 -14.773  -0.043  0.00  0.00     0.030 A 
ATOM      4  C   UNL d   1      26.837 -13.612  -0.115  0.00  0.00     0.032 A 
ATOM      5  C   UNL d   1      26.655 -12.786   0.987  0.00  0.00     0.047 A 
ATOM      6  C   UNL d   1      27.237 -13.123   2.196  0.00  0.00     0.143 A 
ATOM      7  F   UNL d   1      27.114 -12.252   3.209  0.00  0.00    -0.204 F 
ENDROOT
BRANCH   3   8
ATOM      8  N   UNL d   1      27.781 -15.602  -1.147  0.00  0.00    -0.385 N 
ATOM      9  H   UNL d   1      28.203 -15.237  -1.992  0.00  0.00     0.160 HD
BRANCH   8  10
ATOM     10  C   UNL d   1      27.355 -16.996  -1.134  0.00  0.00     0.163 C 
BRANCH  10  11
ATOM     11  C   UNL d   1      25.895 -17.135  -0.814  0.00  0.00     0.020 A 
ATOM     12  C   UNL d   1      25.504 -18.014   0.203  0.00  0.00     0.126 A 
ATOM     13  F   UNL d   1      26.433 -18.713   0.872  0.00  0.00    -0.205 F 
ATOM     14  C   UNL d   1      24.167 -18.200   0.543  0.00  0.00     0.043 A 
ATOM     15  C   UNL d   1      23.179 -17.503  -0.145  0.00  0.00     0.005 A 
ATOM     16  C   UNL d   1      23.540 -16.623  -1.166  0.00  0.00     0.024 A 
ATOM     17  C   UNL d   1      24.888 -16.436  -1.495  0.00  0.00     0.044 A 
ATOM     18 CL   UNL d   1      25.242 -15.324  -2.770  0.00  0.00    -0.084 Cl
ENDBRANCH  10  11
ENDBRANCH   8  10
ENDBRANCH   3   8
BRANCH   1  19
ATOM     19  N   UNL d   1      28.562 -14.625   3.600  0.00  0.00    -0.325 N 
ATOM     20  C   UNL d   1      27.832 -14.449   4.771  0.00  0.00     0.218 C 
ATOM     21  C   UNL d   1      28.550 -14.825   6.041  0.00  0.00     0.117 C 
ATOM     22  O   UNL d   1      26.655 -14.085   4.824  0.00  0.00    -0.274 OA
ATOM     23  H   UNL d   1      29.390 -15.204   3.623  0.00  0.00     0.169 HD
ENDBRANCH   1  19
TORSDOF 4
ENDMDL
MODEL 6
REMARK VINA RESULT:    -6.315      3.321      4.422
REMARK INTER + INTRA:          -8.109
REMARK INTER:                  -7.508
REMARK INTRA:                  -0.601
REMARK CONF_INDEPENDENT:        1.193
REMARK UNBOUND:                -0.601
REMARK  4 active torsions:
REMARK  status: ('A' for Active; 'I' for Inactive)
REMARK       I    between atoms: C_2  and  N_4 
REMARK    1  A    between atoms: N_4  and  C_5 
REMARK    2  A    between atoms: C_7  and  N_8 
REMARK    3  A    between atoms: N_8  and  C_9 
REMARK    4  A    between atoms: C_9  and  C_10 
ROOT
ATOM      1  C   UNL d   1      23.395 -17.958  -0.162  0.00  0.00     0.075 A 
ATOM      2  C   UNL d   1      24.767 -18.242  -0.003  0.00  0.00     0.061 A 
ATOM      3  C   UNL d   1      25.753 -17.415  -0.591  0.00  0.00     0.030 A 
ATOM      4  C   UNL d   1      25.324 -16.274  -1.285  0.00  0.00     0.032 A 
ATOM      5  C   UNL d   1      23.976 -15.956  -1.402  0.00  0.00     0.047 A 
ATOM      6  C   UNL d   1      23.026 -16.794  -0.846  0.00  0.00     0.143 A 
ATOM      7  F   UNL d   1      21.744 -16.403  -0.900  0.00  0.00    -0.204 F 
ENDROOT
BRANCH   3   8
ATOM      8  N   UNL d   1      27.103 -17.733  -0.496  0.00  0.00    -0.385 N 
ATOM      9  H   UNL d   1      27.383 -18.695  -0.353  0.00  0.00     0.160 HD
BRANCH   8  10
ATOM     10  C   UNL d   1      28.144 -16.717  -0.593  0.00  0.00     0.163 C 
BRANCH  10  11
ATOM     11  C   UNL d   1      29.026 -16.927  -1.789  0.00  0.00     0.020 A 
ATOM     12  C   UNL d   1      30.115 -17.800  -1.684  0.00  0.00     0.126 A 
ATOM     13  F   UNL d   1      30.352 -18.433  -0.526  0.00  0.00    -0.205 F 
ATOM     14  C   UNL d   1      30.980 -18.032  -2.750  0.00  0.00     0.043 A 
ATOM     15  C   UNL d   1      30.772 -17.376  -3.960  0.00  0.00     0.005 A 
ATOM     16  C   UNL d   1      29.696 -16.498  -4.091  0.00  0.00     0.024 A 
ATOM     17  C   UNL d   1      28.826 -16.278  -3.016  0.00  0.00     0.044 A 
ATOM     18 CL   UNL d   1      27.519 -15.176  -3.270  0.00  0.00    -0.084 Cl
ENDBRANCH  10  11
ENDBRANCH   8  10
ENDBRANCH   3   8
BRANCH   1  19
ATOM     19  N   UNL d   1      22.394 -18.824   0.364  0.00  0.00    -0.325 N 
ATOM     20  C   UNL d   1      21.357 -19.291  -0.437  0.00  0.00     0.218 C 
ATOM     21  C   UNL d   1      20.352 -20.173   0.257  0.00  0.00     0.117 C 
ATOM     22  O   UNL d   1      21.255 -19.091  -1.650  0.00  0.00    -0.274 OA
ATOM     23  H   UNL d   1      22.567 -19.276   1.252  0.00  0.00     0.169 HD
ENDBRANCH   1  19
TORSDOF 4
ENDMDL
MODEL 7
REMARK VINA RESULT:    -6.310      3.581      7.519
REMARK INTER + INTRA:          -8.039
REMARK INTER:                  -7.503
REMARK INTRA:                  -0.536
REMARK CONF_INDEPENDENT:        1.193
REMARK UNBOUND:                -0.536
REMARK  4 active torsions:
REMARK  status: ('A' for Active; 'I' for Inactive)
REMARK       I    between atoms: C_2  and  N_4 
REMARK    1  A    between atoms: N_4  and  C_5 
REMARK    2  A    between atoms: C_7  and  N_8 
REMARK    3  A    between atoms: N_8  and  C_9 
REMARK    4  A    between atoms: C_9  and  C_10 
ROOT
ATOM      1  C   UNL d   1      26.199 -12.537  -4.993  0.00  0.00     0.075 A 
ATOM      2  C   UNL d   1      25.614 -13.568  -4.229  0.00  0.00     0.061 A 
ATOM      3  C   UNL d   1      26.151 -14.877  -4.245  0.00  0.00     0.030 A 
ATOM      4  C   UNL d   1      27.315 -15.100  -4.995  0.00  0.00     0.032 A 
ATOM      5  C   UNL d   1      27.929 -14.078  -5.709  0.00  0.00     0.047 A 
ATOM      6  C   UNL d   1      27.372 -12.812  -5.705  0.00  0.00     0.143 A 
ATOM      7  F   UNL d   1      28.046 -11.834  -6.329  0.00  0.00    -0.204 F 
ENDROOT
BRANCH   3   8
ATOM      8  N   UNL d   1      25.534 -15.911  -3.550  0.00  0.00    -0.385 N 
ATOM      9  H   UNL d   1      25.533 -16.846  -3.938  0.00  0.00     0.160 HD
BRANCH   8  10
ATOM     10  C   UNL d   1      24.876 -15.694  -2.267  0.00  0.00     0.163 C 
BRANCH  10  11
ATOM     11  C   UNL d   1      25.452 -16.562  -1.185  0.00  0.00     0.020 A 
ATOM     12  C   UNL d   1      26.834 -16.547  -0.968  0.00  0.00     0.126 A 
ATOM     13  F   UNL d   1      27.619 -15.764  -1.723  0.00  0.00    -0.205 F 
ATOM     14  C   UNL d   1      27.435 -17.335   0.010  0.00  0.00     0.043 A 
ATOM     15  C   UNL d   1      26.650 -18.172   0.797  0.00  0.00     0.005 A 
ATOM     16  C   UNL d   1      25.270 -18.209   0.599  0.00  0.00     0.024 A 
ATOM     17  C   UNL d   1      24.673 -17.406  -0.381  0.00  0.00     0.044 A 
ATOM     18 CL   UNL d   1      22.957 -17.514  -0.553  0.00  0.00    -0.084 Cl
ENDBRANCH  10  11
ENDBRANCH   8  10
ENDBRANCH   3   8
BRANCH   1  19
ATOM     19  N   UNL d   1      25.624 -11.235  -5.041  0.00  0.00    -0.325 N 
ATOM     20  C   UNL d   1      25.531 -10.536  -6.241  0.00  0.00     0.218 C 
ATOM     21  C   UNL d   1      24.931  -9.158  -6.141  0.00  0.00     0.117 C 
ATOM     22  O   UNL d   1      25.835 -10.987  -7.348  0.00  0.00    -0.274 OA
ATOM     23  H   UNL d   1      25.081 -10.918  -4.249  0.00  0.00     0.169 HD
ENDBRANCH   1  19
TORSDOF 4
ENDMDL
MODEL 8
REMARK VINA RESULT:    -6.267      3.598      7.596
REMARK INTER + INTRA:          -8.124
REMARK INTER:                  -7.460
REMARK INTRA:                  -0.664
REMARK CONF_INDEPENDENT:        1.193
REMARK UNBOUND:                -0.664
REMARK  4 active torsions:
REMARK  status: ('A' for Active; 'I' for Inactive)
REMARK       I    between atoms: C_2  and  N_4 
REMARK    1  A    between atoms: N_4  and  C_5 
REMARK    2  A    between atoms: C_7  and  N_8 
REMARK    3  A    between atoms: N_8  and  C_9 
REMARK    4  A    between atoms: C_9  and  C_10 
ROOT
ATOM      1  C   UNL d   1      27.998 -14.263  -6.134  0.00  0.00     0.075 A 
ATOM      2  C   UNL d   1      27.245 -15.200  -5.398  0.00  0.00     0.061 A 
ATOM      3  C   UNL d   1      26.225 -14.778  -4.512  0.00  0.00     0.030 A 
ATOM      4  C   UNL d   1      25.949 -13.404  -4.436  0.00  0.00     0.032 A 
ATOM      5  C   UNL d   1      26.650 -12.477  -5.198  0.00  0.00     0.047 A 
ATOM      6  C   UNL d   1      27.663 -12.907  -6.035  0.00  0.00     0.143 A 
ATOM      7  F   UNL d   1      28.251 -11.993  -6.821  0.00  0.00    -0.204 F 
ENDROOT
BRANCH   3   8
ATOM      8  N   UNL d   1      25.530 -15.694  -3.732  0.00  0.00    -0.385 N 
ATOM      9  H   UNL d   1      25.310 -16.608  -4.107  0.00  0.00     0.160 HD
BRANCH   8  10
ATOM     10  C   UNL d   1      25.098 -15.382  -2.375  0.00  0.00     0.163 C 
BRANCH  10  11
ATOM     11  C   UNL d   1      25.597 -16.389  -1.379  0.00  0.00     0.020 A 
ATOM     12  C   UNL d   1      26.974 -16.492  -1.151  0.00  0.00     0.126 A 
ATOM     13  F   UNL d   1      27.822 -15.696  -1.820  0.00  0.00    -0.205 F 
ATOM     14  C   UNL d   1      27.506 -17.411  -0.251  0.00  0.00     0.043 A 
ATOM     15  C   UNL d   1      26.654 -18.264   0.444  0.00  0.00     0.005 A 
ATOM     16  C   UNL d   1      25.277 -18.185   0.234  0.00  0.00     0.024 A 
ATOM     17  C   UNL d   1      24.751 -17.251  -0.667  0.00  0.00     0.044 A 
ATOM     18 CL   UNL d   1      23.034 -17.222  -0.862  0.00  0.00    -0.084 Cl
ENDBRANCH  10  11
ENDBRANCH   8  10
ENDBRANCH   3   8
BRANCH   1  19
ATOM     19  N   UNL d   1      29.074 -14.673  -6.972  0.00  0.00    -0.325 N 
ATOM     20  C   UNL d   1      30.064 -15.529  -6.500  0.00  0.00     0.218 C 
ATOM     21  C   UNL d   1      31.157 -15.855  -7.483  0.00  0.00     0.117 C 
ATOM     22  O   UNL d   1      30.061 -16.070  -5.392  0.00  0.00    -0.274 OA
ATOM     23  H   UNL d   1      28.991 -14.524  -7.969  0.00  0.00     0.169 HD
ENDBRANCH   1  19
TORSDOF 4
ENDMDL
MODEL 9
REMARK VINA RESULT:    -6.132      1.814      2.334
REMARK INTER + INTRA:          -8.014
REMARK INTER:                  -7.325
REMARK INTRA:                  -0.689
REMARK CONF_INDEPENDENT:        1.193
REMARK UNBOUND:                -0.689
REMARK  4 active torsions:
REMARK  status: ('A' for Active; 'I' for Inactive)
REMARK       I    between atoms: C_2  and  N_4 
REMARK    1  A    between atoms: N_4  and  C_5 
REMARK    2  A    between atoms: C_7  and  N_8 
REMARK    3  A    between atoms: N_8  and  C_9 
REMARK    4  A    between atoms: C_9  and  C_10 
ROOT
ATOM      1  C   UNL d   1      24.288 -17.445  -0.580  0.00  0.00     0.075 A 
ATOM      2  C   UNL d   1      24.570 -16.751  -1.774  0.00  0.00     0.061 A 
ATOM      3  C   UNL d   1      25.888 -16.334  -2.078  0.00  0.00     0.030 A 
ATOM      4  C   UNL d   1      26.911 -16.687  -1.184  0.00  0.00     0.032 A 
ATOM      5  C   UNL d   1      26.650 -17.418  -0.031  0.00  0.00     0.047 A 
ATOM      6  C   UNL d   1      25.351 -17.789   0.263  0.00  0.00     0.143 A 
ATOM      7  F   UNL d   1      25.155 -18.572   1.335  0.00  0.00    -0.204 F 
ENDROOT
BRANCH   3   8
ATOM      8  N   UNL d   1      26.157 -15.587  -3.219  0.00  0.00    -0.385 N 
ATOM      9  H   UNL d   1      25.544 -15.657  -4.021  0.00  0.00     0.160 HD
BRANCH   8  10
ATOM     10  C   UNL d   1      27.308 -14.697  -3.305  0.00  0.00     0.163 C 
BRANCH  10  11
ATOM     11  C   UNL d   1      28.178 -15.013  -4.487  0.00  0.00     0.020 A 
ATOM     12  C   UNL d   1      27.912 -14.387  -5.710  0.00  0.00     0.126 A 
ATOM     13  F   UNL d   1      26.893 -13.520  -5.808  0.00  0.00    -0.205 F 
ATOM     14  C   UNL d   1      28.670 -14.643  -6.849  0.00  0.00     0.043 A 
ATOM     15  C   UNL d   1      29.722 -15.551  -6.785  0.00  0.00     0.005 A 
ATOM     16  C   UNL d   1      30.007 -16.191  -5.579  0.00  0.00     0.024 A 
ATOM     17  C   UNL d   1      29.245 -15.921  -4.436  0.00  0.00     0.044 A 
ATOM     18 CL   UNL d   1      29.672 -16.758  -2.986  0.00  0.00    -0.084 Cl
ENDBRANCH  10  11
ENDBRANCH   8  10
ENDBRANCH   3   8
BRANCH   1  19
ATOM     19  N   UNL d   1      22.955 -17.804  -0.230  0.00  0.00    -0.325 N 
ATOM     20  C   UNL d   1      22.223 -18.690  -1.014  0.00  0.00     0.218 C 
ATOM     21  C   UNL d   1      20.816 -18.956  -0.545  0.00  0.00     0.117 C 
ATOM     22  O   UNL d   1      22.663 -19.301  -1.991  0.00  0.00    -0.274 OA
ATOM     23  H   UNL d   1      22.628 -17.592   0.703  0.00  0.00     0.169 HD
ENDBRANCH   1  19
TORSDOF 4
ENDMDL
