MODEL 1
REMARK VINA RESULT:    -7.202      0.000      0.000
REMARK INTER + INTRA:          -9.070
REMARK INTER:                  -8.395
REMARK INTRA:                  -0.674
REMARK CONF_INDEPENDENT:        1.193
REMARK UNBOUND:                -0.674
REMARK  4 active torsions:
REMARK  status: ('A' for Active; 'I' for Inactive)
REMARK       I    between atoms: C_2  and  N_3 
REMARK    1  A    between atoms: C_18  and  C_2 
REMARK    2  A    between atoms: N_3  and  C_4 
REMARK    3  A    between atoms: C_4  and  C_5 
REMARK    4  A    between atoms: C_9  and  N_10 
ROOT
ATOM      1  C   UNL d   1      28.364 -15.436   0.704  0.00  0.00    -0.036 A 
ATOM      2  C   UNL d   1      29.389 -16.235   0.186  0.00  0.00     0.026 A 
ATOM      3  C   UNL d   1      29.064 -17.387  -0.520  0.00  0.00     0.090 A 
ATOM      4  N   UNL d   1      27.780 -17.730  -0.691  0.00  0.00    -0.352 N 
ATOM      5  C   UNL d   1      26.744 -17.008  -0.234  0.00  0.00     0.103 A 
ATOM      6  C   UNL d   1      27.035 -15.827   0.466  0.00  0.00     0.057 A 
ATOM      7  H   UNL d   1      27.541 -18.546  -1.247  0.00  0.00     0.166 HD
ENDROOT
BRANCH   1   8
ATOM      8  C   UNL d   1      28.673 -14.184   1.504  0.00  0.00     0.161 C 
BRANCH   8   9
ATOM      9  N   UNL d   1      28.519 -14.428   2.915  0.00  0.00    -0.356 N 
ATOM     10  C   UNL d   1      27.731 -13.652   3.732  0.00  0.00     0.224 C 
ATOM     11  O   UNL d   1      27.071 -12.708   3.293  0.00  0.00    -0.273 OA
ATOM     12  H   UNL d   1      28.972 -15.242   3.286  0.00  0.00     0.162 HD
BRANCH  10  13
ATOM     13  C   UNL d   1      27.715 -14.035   5.209  0.00  0.00     0.109 C 
ATOM     14  C   UNL d   1      28.904 -14.861   5.739  0.00  0.00     0.048 C 
ATOM     15  C   UNL d   1      29.435 -13.989   6.867  0.00  0.00     0.122 C 
ATOM     16  C   UNL d   1      30.136 -12.764   6.273  0.00  0.00     0.034 C 
ATOM     17  O   UNL d   1      28.222 -13.421   7.382  0.00  0.00    -0.380 OA
ATOM     18  C   UNL d   1      28.953 -11.908   5.818  0.00  0.00     0.035 C 
ATOM     19  C   UNL d   1      27.763 -12.812   6.143  0.00  0.00     0.135 C 
ENDBRANCH  10  13
ENDBRANCH   8   9
ENDBRANCH   1   8
BRANCH   5  20
ATOM     20  N   UNL d   1      25.485 -17.413  -0.615  0.00  0.00    -0.367 N 
ATOM     21  C   UNL d   1      24.857 -16.868  -1.828  0.00  0.00     0.124 C 
ATOM     22  C   UNL d   1      23.702 -15.951  -1.415  0.00  0.00     0.020 C 
ATOM     23  C   UNL d   1      22.458 -16.678  -0.895  0.00  0.00     0.002 C 
ATOM     24  C   UNL d   1      22.722 -17.682   0.229  0.00  0.00     0.002 C 
ATOM     25  C   UNL d   1      23.517 -18.904  -0.233  0.00  0.00     0.020 C 
ATOM     26  C   UNL d   1      25.035 -18.727  -0.143  0.00  0.00     0.124 C 
ENDBRANCH   5  20
TORSDOF 4
ENDMDL
MODEL 2
REMARK VINA RESULT:    -7.097      5.363      8.796
REMARK INTER + INTRA:          -8.874
REMARK INTER:                  -8.290
REMARK INTRA:                  -0.585
REMARK CONF_INDEPENDENT:        1.193
REMARK UNBOUND:                -0.585
REMARK  4 active torsions:
REMARK  status: ('A' for Active; 'I' for Inactive)
REMARK       I    between atoms: C_2  and  N_3 
REMARK    1  A    between atoms: C_18  and  C_2 
REMARK    2  A    between atoms: N_3  and  C_4 
REMARK    3  A    between atoms: C_4  and  C_5 
REMARK    4  A    between atoms: C_9  and  N_10 
ROOT
ATOM      1  C   UNL d   1      24.394 -17.879  -0.719  0.00  0.00    -0.036 A 
ATOM      2  C   UNL d   1      23.567 -16.867  -1.218  0.00  0.00     0.026 A 
ATOM      3  C   UNL d   1      24.132 -15.664  -1.622  0.00  0.00     0.090 A 
ATOM      4  N   UNL d   1      25.455 -15.476  -1.523  0.00  0.00    -0.352 N 
ATOM      5  C   UNL d   1      26.312 -16.403  -1.065  0.00  0.00     0.103 A 
ATOM      6  C   UNL d   1      25.778 -17.638  -0.667  0.00  0.00     0.057 A 
ATOM      7  H   UNL d   1      25.873 -14.614  -1.861  0.00  0.00     0.166 HD
ENDROOT
BRANCH   1   8
ATOM      8  C   UNL d   1      23.818 -19.200  -0.240  0.00  0.00     0.161 C 
BRANCH   8   9
ATOM      9  N   UNL d   1      22.427 -19.057   0.103  0.00  0.00    -0.356 N 
ATOM     10  C   UNL d   1      21.414 -19.110  -0.823  0.00  0.00     0.224 C 
ATOM     11  O   UNL d   1      21.634 -19.323  -2.017  0.00  0.00    -0.273 OA
ATOM     12  H   UNL d   1      22.208 -18.973   1.078  0.00  0.00     0.162 HD
BRANCH  10  13
ATOM     13  C   UNL d   1      20.001 -18.901  -0.285  0.00  0.00     0.109 C 
ATOM     14  C   UNL d   1      18.859 -19.680  -0.971  0.00  0.00     0.048 C 
ATOM     15  C   UNL d   1      18.248 -20.456   0.186  0.00  0.00     0.122 C 
ATOM     16  C   UNL d   1      19.200 -21.581   0.601  0.00  0.00     0.034 C 
ATOM     17  O   UNL d   1      18.399 -19.522   1.265  0.00  0.00    -0.380 OA
ATOM     18  C   UNL d   1      20.293 -20.817   1.349  0.00  0.00     0.035 C 
ATOM     19  C   UNL d   1      19.843 -19.365   1.174  0.00  0.00     0.135 C 
ENDBRANCH  10  13
ENDBRANCH   8   9
ENDBRANCH   1   8
BRANCH   5  20
ATOM     20  N   UNL d   1      27.654 -16.112  -1.160  0.00  0.00    -0.367 N 
ATOM     21  C   UNL d   1      28.109 -14.729  -1.362  0.00  0.00     0.124 C 
ATOM     22  C   UNL d   1      28.669 -14.596  -2.782  0.00  0.00     0.020 C 
ATOM     23  C   UNL d   1      30.035 -15.254  -2.997  0.00  0.00     0.002 C 
ATOM     24  C   UNL d   1      30.120 -16.719  -2.565  0.00  0.00     0.002 C 
ATOM     25  C   UNL d   1      30.021 -16.903  -1.050  0.00  0.00     0.020 C 
ATOM     26  C   UNL d   1      28.587 -17.055  -0.536  0.00  0.00     0.124 C 
ENDBRANCH   5  20
TORSDOF 4
ENDMDL
MODEL 3
REMARK VINA RESULT:    -6.949      2.435      7.860
REMARK INTER + INTRA:          -8.848
REMARK INTER:                  -8.143
REMARK INTRA:                  -0.706
REMARK CONF_INDEPENDENT:        1.193
REMARK UNBOUND:                -0.706
REMARK  4 active torsions:
REMARK  status: ('A' for Active; 'I' for Inactive)
REMARK       I    between atoms: C_2  and  N_3 
REMARK    1  A    between atoms: C_18  and  C_2 
REMARK    2  A    between atoms: N_3  and  C_4 
REMARK    3  A    between atoms: C_4  and  C_5 
REMARK    4  A    between atoms: C_9  and  N_10 
ROOT
ATOM      1  C   UNL d   1      27.567 -15.087   0.751  0.00  0.00    -0.036 A 
ATOM      2  C   UNL d   1      26.621 -14.168   0.284  0.00  0.00     0.026 A 
ATOM      3  C   UNL d   1      26.303 -13.064   1.065  0.00  0.00     0.090 A 
ATOM      4  N   UNL d   1      26.890 -12.891   2.257  0.00  0.00    -0.352 N 
ATOM      5  C   UNL d   1      27.813 -13.723   2.765  0.00  0.00     0.103 A 
ATOM      6  C   UNL d   1      28.175 -14.839   1.994  0.00  0.00     0.057 A 
ATOM      7  H   UNL d   1      26.691 -12.060   2.806  0.00  0.00     0.166 HD
ENDROOT
BRANCH   1   8
ATOM      8  C   UNL d   1      27.927 -16.322  -0.055  0.00  0.00     0.161 C 
BRANCH   8   9
ATOM      9  N   UNL d   1      26.742 -16.975  -0.548  0.00  0.00    -0.356 N 
ATOM     10  C   UNL d   1      26.016 -17.877   0.192  0.00  0.00     0.224 C 
ATOM     11  O   UNL d   1      26.319 -18.160   1.352  0.00  0.00    -0.273 OA
ATOM     12  H   UNL d   1      26.418 -16.698  -1.456  0.00  0.00     0.162 HD
BRANCH  10  13
ATOM     13  C   UNL d   1      24.808 -18.499  -0.505  0.00  0.00     0.109 C 
ATOM     14  C   UNL d   1      23.495 -18.586   0.300  0.00  0.00     0.048 C 
ATOM     15  C   UNL d   1      22.516 -17.826  -0.584  0.00  0.00     0.122 C 
ATOM     16  C   UNL d   1      22.832 -16.329  -0.519  0.00  0.00     0.034 C 
ATOM     17  O   UNL d   1      22.986 -18.176  -1.894  0.00  0.00    -0.380 OA
ATOM     18  C   UNL d   1      24.091 -16.230  -1.381  0.00  0.00     0.035 C 
ATOM     19  C   UNL d   1      24.350 -17.695  -1.736  0.00  0.00     0.135 C 
ENDBRANCH  10  13
ENDBRANCH   8   9
ENDBRANCH   1   8
BRANCH   5  20
ATOM     20  N   UNL d   1      28.429 -13.333   3.932  0.00  0.00    -0.367 N 
ATOM     21  C   UNL d   1      29.679 -13.971   4.370  0.00  0.00     0.124 C 
ATOM     22  C   UNL d   1      29.389 -14.832   5.603  0.00  0.00     0.020 C 
ATOM     23  C   UNL d   1      29.143 -14.045   6.893  0.00  0.00     0.002 C 
ATOM     24  C   UNL d   1      28.077 -12.952   6.788  0.00  0.00     0.002 C 
ATOM     25  C   UNL d   1      28.500 -11.786   5.893  0.00  0.00     0.020 C 
ATOM     26  C   UNL d   1      28.146 -11.978   4.416  0.00  0.00     0.124 C 
ENDBRANCH   5  20
TORSDOF 4
ENDMDL
MODEL 4
REMARK VINA RESULT:    -6.941      1.187      1.668
REMARK INTER + INTRA:          -8.843
REMARK INTER:                  -8.134
REMARK INTRA:                  -0.709
REMARK CONF_INDEPENDENT:        1.193
REMARK UNBOUND:                -0.709
REMARK  4 active torsions:
REMARK  status: ('A' for Active; 'I' for Inactive)
REMARK       I    between atoms: C_2  and  N_3 
REMARK    1  A    between atoms: C_18  and  C_2 
REMARK    2  A    between atoms: N_3  and  C_4 
REMARK    3  A    between atoms: C_4  and  C_5 
REMARK    4  A    between atoms: C_9  and  N_10 
ROOT
ATOM      1  C   UNL d   1      28.364 -14.263   0.932  0.00  0.00    -0.036 A 
ATOM      2  C   UNL d   1      28.013 -13.070   0.289  0.00  0.00     0.026 A 
ATOM      3  C   UNL d   1      26.985 -13.078  -0.645  0.00  0.00     0.090 A 
ATOM      4  N   UNL d   1      26.345 -14.220  -0.931  0.00  0.00    -0.352 N 
ATOM      5  C   UNL d   1      26.617 -15.398  -0.348  0.00  0.00     0.103 A 
ATOM      6  C   UNL d   1      27.638 -15.424   0.616  0.00  0.00     0.057 A 
ATOM      7  H   UNL d   1      25.563 -14.216  -1.580  0.00  0.00     0.166 HD
ENDROOT
BRANCH   1   8
ATOM      8  C   UNL d   1      29.499 -14.307   1.939  0.00  0.00     0.161 C 
BRANCH   8   9
ATOM      9  N   UNL d   1      28.987 -14.410   3.282  0.00  0.00    -0.356 N 
ATOM     10  C   UNL d   1      28.269 -13.411   3.892  0.00  0.00     0.224 C 
ATOM     11  O   UNL d   1      27.983 -12.364   3.307  0.00  0.00    -0.273 OA
ATOM     12  H   UNL d   1      29.126 -15.285   3.753  0.00  0.00     0.162 HD
BRANCH  10  13
ATOM     13  C   UNL d   1      27.838 -13.677   5.332  0.00  0.00     0.109 C 
ATOM     14  C   UNL d   1      28.758 -14.567   6.193  0.00  0.00     0.048 C 
ATOM     15  C   UNL d   1      29.077 -13.664   7.376  0.00  0.00     0.122 C 
ATOM     16  C   UNL d   1      30.033 -12.557   6.924  0.00  0.00     0.034 C 
ATOM     17  O   UNL d   1      27.842 -12.950   7.529  0.00  0.00    -0.380 OA
ATOM     18  C   UNL d   1      29.104 -11.633   6.136  0.00  0.00     0.035 C 
ATOM     19  C   UNL d   1      27.780 -12.397   6.185  0.00  0.00     0.135 C 
ENDBRANCH  10  13
ENDBRANCH   8   9
ENDBRANCH   1   8
BRANCH   5  20
ATOM     20  N   UNL d   1      25.778 -16.448  -0.641  0.00  0.00    -0.367 N 
ATOM     21  C   UNL d   1      24.862 -16.378  -1.790  0.00  0.00     0.124 C 
ATOM     22  C   UNL d   1      23.427 -16.256  -1.270  0.00  0.00     0.020 C 
ATOM     23  C   UNL d   1      22.848 -17.543  -0.674  0.00  0.00     0.002 C 
ATOM     24  C   UNL d   1      23.713 -18.200   0.404  0.00  0.00     0.002 C 
ATOM     25  C   UNL d   1      25.019 -18.776  -0.145  0.00  0.00     0.020 C 
ATOM     26  C   UNL d   1      26.178 -17.777  -0.166  0.00  0.00     0.124 C 
ENDBRANCH   5  20
TORSDOF 4
ENDMDL
MODEL 5
REMARK VINA RESULT:    -6.692      5.685      8.565
REMARK INTER + INTRA:          -8.562
REMARK INTER:                  -7.885
REMARK INTRA:                  -0.678
REMARK CONF_INDEPENDENT:        1.193
REMARK UNBOUND:                -0.678
REMARK  4 active torsions:
REMARK  status: ('A' for Active; 'I' for Inactive)
REMARK       I    between atoms: C_2  and  N_3 
REMARK    1  A    between atoms: C_18  and  C_2 
REMARK    2  A    between atoms: N_3  and  C_4 
REMARK    3  A    between atoms: C_4  and  C_5 
REMARK    4  A    between atoms: C_9  and  N_10 
ROOT
ATOM      1  C   UNL d   1      26.739 -14.669  -4.764  0.00  0.00    -0.036 A 
ATOM      2  C   UNL d   1      25.867 -13.590  -4.946  0.00  0.00     0.026 A 
ATOM      3  C   UNL d   1      24.832 -13.391  -4.042  0.00  0.00     0.090 A 
ATOM      4  N   UNL d   1      24.668 -14.233  -3.012  0.00  0.00    -0.352 N 
ATOM      5  C   UNL d   1      25.470 -15.281  -2.766  0.00  0.00     0.103 A 
ATOM      6  C   UNL d   1      26.539 -15.501  -3.649  0.00  0.00     0.057 A 
ATOM      7  H   UNL d   1      23.939 -14.060  -2.325  0.00  0.00     0.166 HD
ENDROOT
BRANCH   1   8
ATOM      8  C   UNL d   1      27.868 -14.940  -5.742  0.00  0.00     0.161 C 
BRANCH   8   9
ATOM      9  N   UNL d   1      28.923 -15.689  -5.110  0.00  0.00    -0.356 N 
ATOM     10  C   UNL d   1      29.952 -16.276  -5.808  0.00  0.00     0.224 C 
ATOM     11  O   UNL d   1      30.056 -16.165  -7.031  0.00  0.00    -0.273 OA
ATOM     12  H   UNL d   1      28.917 -15.722  -4.108  0.00  0.00     0.162 HD
BRANCH  10  13
ATOM     13  C   UNL d   1      30.963 -17.062  -4.977  0.00  0.00     0.109 C 
ATOM     14  C   UNL d   1      30.404 -18.068  -3.950  0.00  0.00     0.048 C 
ATOM     15  C   UNL d   1      31.052 -19.376  -4.382  0.00  0.00     0.122 C 
ATOM     16  C   UNL d   1      30.405 -19.855  -5.685  0.00  0.00     0.034 C 
ATOM     17  O   UNL d   1      32.335 -18.920  -4.835  0.00  0.00    -0.380 OA
ATOM     18  C   UNL d   1      31.019 -18.907  -6.715  0.00  0.00     0.035 C 
ATOM     19  C   UNL d   1      31.855 -17.978  -5.835  0.00  0.00     0.135 C 
ENDBRANCH  10  13
ENDBRANCH   8   9
ENDBRANCH   1   8
BRANCH   5  20
ATOM     20  N   UNL d   1      25.259 -15.965  -1.591  0.00  0.00    -0.367 N 
ATOM     21  C   UNL d   1      26.217 -15.859  -0.480  0.00  0.00     0.124 C 
ATOM     22  C   UNL d   1      26.956 -17.193  -0.337  0.00  0.00     0.020 C 
ATOM     23  C   UNL d   1      26.123 -18.327   0.268  0.00  0.00     0.002 C 
ATOM     24  C   UNL d   1      24.778 -18.575  -0.417  0.00  0.00     0.002 C 
ATOM     25  C   UNL d   1      23.782 -17.433  -0.211  0.00  0.00     0.020 C 
ATOM     26  C   UNL d   1      23.876 -16.330  -1.269  0.00  0.00     0.124 C 
ENDBRANCH   5  20
TORSDOF 4
ENDMDL
MODEL 6
REMARK VINA RESULT:    -6.573      1.537      2.485
REMARK INTER + INTRA:          -8.611
REMARK INTER:                  -7.766
REMARK INTRA:                  -0.845
REMARK CONF_INDEPENDENT:        1.193
REMARK UNBOUND:                -0.845
REMARK  4 active torsions:
REMARK  status: ('A' for Active; 'I' for Inactive)
REMARK       I    between atoms: C_2  and  N_3 
REMARK    1  A    between atoms: C_18  and  C_2 
REMARK    2  A    between atoms: N_3  and  C_4 
REMARK    3  A    between atoms: C_4  and  C_5 
REMARK    4  A    between atoms: C_9  and  N_10 
ROOT
ATOM      1  C   UNL d   1      29.057 -14.192   2.213  0.00  0.00    -0.036 A 
ATOM      2  C   UNL d   1      28.314 -13.017   2.375  0.00  0.00     0.026 A 
ATOM      3  C   UNL d   1      27.104 -12.880   1.706  0.00  0.00     0.090 A 
ATOM      4  N   UNL d   1      26.663 -13.861   0.906  0.00  0.00    -0.352 N 
ATOM      5  C   UNL d   1      27.314 -15.018   0.711  0.00  0.00     0.103 A 
ATOM      6  C   UNL d   1      28.531 -15.200   1.387  0.00  0.00     0.057 A 
ATOM      7  H   UNL d   1      25.757 -13.779   0.453  0.00  0.00     0.166 HD
ENDROOT
BRANCH   1   8
ATOM      8  C   UNL d   1      30.397 -14.374   2.903  0.00  0.00     0.161 C 
BRANCH   8   9
ATOM      9  N   UNL d   1      30.291 -14.085   4.310  0.00  0.00    -0.356 N 
ATOM     10  C   UNL d   1      29.241 -14.507   5.089  0.00  0.00     0.224 C 
ATOM     11  O   UNL d   1      28.330 -15.200   4.632  0.00  0.00    -0.273 OA
ATOM     12  H   UNL d   1      31.062 -13.599   4.731  0.00  0.00     0.162 HD
BRANCH  10  13
ATOM     13  C   UNL d   1      29.275 -14.076   6.553  0.00  0.00     0.109 C 
ATOM     14  C   UNL d   1      30.521 -13.305   7.034  0.00  0.00     0.048 C 
ATOM     15  C   UNL d   1      29.922 -12.014   7.573  0.00  0.00     0.122 C 
ATOM     16  C   UNL d   1      29.444 -11.151   6.402  0.00  0.00     0.034 C 
ATOM     17  O   UNL d   1      28.684 -12.485   8.125  0.00  0.00    -0.380 OA
ATOM     18  C   UNL d   1      28.165 -11.872   5.974  0.00  0.00     0.035 C 
ATOM     19  C   UNL d   1      28.154 -13.083   6.909  0.00  0.00     0.135 C 
ENDBRANCH  10  13
ENDBRANCH   8   9
ENDBRANCH   1   8
BRANCH   5  20
ATOM     20  N   UNL d   1      26.664 -15.984  -0.023  0.00  0.00    -0.367 N 
ATOM     21  C   UNL d   1      26.403 -15.787  -1.457  0.00  0.00     0.124 C 
ATOM     22  C   UNL d   1      24.899 -15.577  -1.660  0.00  0.00     0.020 C 
ATOM     23  C   UNL d   1      24.048 -16.841  -1.508  0.00  0.00     0.002 C 
ATOM     24  C   UNL d   1      24.270 -17.615  -0.207  0.00  0.00     0.002 C 
ATOM     25  C   UNL d   1      25.652 -18.266  -0.126  0.00  0.00     0.020 C 
ATOM     26  C   UNL d   1      26.730 -17.361   0.477  0.00  0.00     0.124 C 
ENDBRANCH   5  20
TORSDOF 4
ENDMDL
MODEL 7
REMARK VINA RESULT:    -6.557      4.344      7.346
REMARK INTER + INTRA:          -8.898
REMARK INTER:                  -7.750
REMARK INTRA:                  -1.148
REMARK CONF_INDEPENDENT:        1.193
REMARK UNBOUND:                -1.148
REMARK  4 active torsions:
REMARK  status: ('A' for Active; 'I' for Inactive)
REMARK       I    between atoms: C_2  and  N_3 
REMARK    1  A    between atoms: C_18  and  C_2 
REMARK    2  A    between atoms: N_3  and  C_4 
REMARK    3  A    between atoms: C_4  and  C_5 
REMARK    4  A    between atoms: C_9  and  N_10 
ROOT
ATOM      1  C   UNL d   1      27.151 -12.466  -0.998  0.00  0.00    -0.036 A 
ATOM      2  C   UNL d   1      27.473 -12.158   0.329  0.00  0.00     0.026 A 
ATOM      3  C   UNL d   1      27.281 -13.117   1.315  0.00  0.00     0.090 A 
ATOM      4  N   UNL d   1      26.781 -14.319   0.997  0.00  0.00    -0.352 N 
ATOM      5  C   UNL d   1      26.460 -14.690  -0.253  0.00  0.00     0.103 A 
ATOM      6  C   UNL d   1      26.661 -13.753  -1.279  0.00  0.00     0.057 A 
ATOM      7  H   UNL d   1      26.684 -15.035   1.711  0.00  0.00     0.166 HD
ENDROOT
BRANCH   1   8
ATOM      8  C   UNL d   1      27.320 -11.440  -2.105  0.00  0.00     0.161 C 
BRANCH   8   9
ATOM      9  N   UNL d   1      27.432 -12.086  -3.387  0.00  0.00    -0.356 N 
ATOM     10  C   UNL d   1      26.357 -12.611  -4.063  0.00  0.00     0.224 C 
ATOM     11  O   UNL d   1      25.209 -12.529  -3.623  0.00  0.00    -0.273 OA
ATOM     12  H   UNL d   1      28.340 -12.089  -3.813  0.00  0.00     0.162 HD
BRANCH  10  13
ATOM     13  C   UNL d   1      26.668 -13.293  -5.393  0.00  0.00     0.109 C 
ATOM     14  C   UNL d   1      28.068 -13.060  -5.997  0.00  0.00     0.048 C 
ATOM     15  C   UNL d   1      28.604 -14.477  -6.141  0.00  0.00     0.122 C 
ATOM     16  C   UNL d   1      28.941 -15.035  -4.756  0.00  0.00     0.034 C 
ATOM     17  O   UNL d   1      27.409 -15.200  -6.474  0.00  0.00    -0.380 OA
ATOM     18  C   UNL d   1      27.555 -15.339  -4.187  0.00  0.00     0.035 C 
ATOM     19  C   UNL d   1      26.636 -14.829  -5.298  0.00  0.00     0.135 C 
ENDBRANCH  10  13
ENDBRANCH   8   9
ENDBRANCH   1   8
BRANCH   5  20
ATOM     20  N   UNL d   1      26.097 -16.004  -0.440  0.00  0.00    -0.367 N 
ATOM     21  C   UNL d   1      25.511 -16.446  -1.714  0.00  0.00     0.124 C 
ATOM     22  C   UNL d   1      24.032 -16.772  -1.490  0.00  0.00     0.020 C 
ATOM     23  C   UNL d   1      23.770 -18.073  -0.726  0.00  0.00     0.002 C 
ATOM     24  C   UNL d   1      24.513 -18.200   0.605  0.00  0.00     0.002 C 
ATOM     25  C   UNL d   1      26.026 -18.343   0.435  0.00  0.00     0.020 C 
ATOM     26  C   UNL d   1      26.774 -17.008   0.386  0.00  0.00     0.124 C 
ENDBRANCH   5  20
TORSDOF 4
ENDMDL
MODEL 8
REMARK VINA RESULT:    -6.494      5.416      8.023
REMARK INTER + INTRA:          -8.641
REMARK INTER:                  -7.687
REMARK INTRA:                  -0.954
REMARK CONF_INDEPENDENT:        1.193
REMARK UNBOUND:                -0.954
REMARK  4 active torsions:
REMARK  status: ('A' for Active; 'I' for Inactive)
REMARK       I    between atoms: C_2  and  N_3 
REMARK    1  A    between atoms: C_18  and  C_2 
REMARK    2  A    between atoms: N_3  and  C_4 
REMARK    3  A    between atoms: C_4  and  C_5 
REMARK    4  A    between atoms: C_9  and  N_10 
ROOT
ATOM      1  C   UNL d   1      26.182 -13.511  -3.403  0.00  0.00    -0.036 A 
ATOM      2  C   UNL d   1      26.693 -12.698  -2.386  0.00  0.00     0.026 A 
ATOM      3  C   UNL d   1      26.747 -13.187  -1.086  0.00  0.00     0.090 A 
ATOM      4  N   UNL d   1      26.303 -14.421  -0.814  0.00  0.00    -0.352 N 
ATOM      5  C   UNL d   1      25.811 -15.262  -1.738  0.00  0.00     0.103 A 
ATOM      6  C   UNL d   1      25.760 -14.808  -3.065  0.00  0.00     0.057 A 
ATOM      7  H   UNL d   1      26.385 -14.795   0.128  0.00  0.00     0.166 HD
ENDROOT
BRANCH   1   8
ATOM      8  C   UNL d   1      26.080 -13.009  -4.833  0.00  0.00     0.161 C 
BRANCH   8   9
ATOM      9  N   UNL d   1      27.292 -13.283  -5.559  0.00  0.00    -0.356 N 
ATOM     10  C   UNL d   1      27.656 -14.543  -5.970  0.00  0.00     0.224 C 
ATOM     11  O   UNL d   1      26.938 -15.525  -5.770  0.00  0.00    -0.273 OA
ATOM     12  H   UNL d   1      27.854 -12.493  -5.816  0.00  0.00     0.162 HD
BRANCH  10  13
ATOM     13  C   UNL d   1      28.994 -14.653  -6.696  0.00  0.00     0.109 C 
ATOM     14  C   UNL d   1      30.088 -13.632  -6.322  0.00  0.00     0.048 C 
ATOM     15  C   UNL d   1      31.239 -14.527  -5.889  0.00  0.00     0.122 C 
ATOM     16  C   UNL d   1      30.910 -15.155  -4.532  0.00  0.00     0.034 C 
ATOM     17  O   UNL d   1      31.085 -15.640  -6.781  0.00  0.00    -0.380 OA
ATOM     18  C   UNL d   1      29.882 -16.221  -4.914  0.00  0.00     0.035 C 
ATOM     19  C   UNL d   1      29.718 -15.981  -6.415  0.00  0.00     0.135 C 
ENDBRANCH  10  13
ENDBRANCH   8   9
ENDBRANCH   1   8
BRANCH   5  20
ATOM     20  N   UNL d   1      25.532 -16.545  -1.328  0.00  0.00    -0.367 N 
ATOM     21  C   UNL d   1      24.511 -17.348  -2.018  0.00  0.00     0.124 C 
ATOM     22  C   UNL d   1      23.301 -17.510  -1.093  0.00  0.00     0.020 C 
ATOM     23  C   UNL d   1      23.511 -18.476   0.075  0.00  0.00     0.002 C 
ATOM     24  C   UNL d   1      24.753 -18.200   0.926  0.00  0.00     0.002 C 
ATOM     25  C   UNL d   1      26.061 -18.466   0.180  0.00  0.00     0.020 C 
ATOM     26  C   UNL d   1      26.587 -17.259  -0.601  0.00  0.00     0.124 C 
ENDBRANCH   5  20
TORSDOF 4
ENDMDL
MODEL 9
REMARK VINA RESULT:    -6.319      4.967      7.073
REMARK INTER + INTRA:          -8.677
REMARK INTER:                  -7.512
REMARK INTRA:                  -1.165
REMARK CONF_INDEPENDENT:        1.193
REMARK UNBOUND:                -1.165
REMARK  4 active torsions:
REMARK  status: ('A' for Active; 'I' for Inactive)
REMARK       I    between atoms: C_2  and  N_3 
REMARK    1  A    between atoms: C_18  and  C_2 
REMARK    2  A    between atoms: N_3  and  C_4 
REMARK    3  A    between atoms: C_4  and  C_5 
REMARK    4  A    between atoms: C_9  and  N_10 
ROOT
ATOM      1  C   UNL d   1      29.653 -16.401  -3.492  0.00  0.00    -0.036 A 
ATOM      2  C   UNL d   1      30.649 -17.208  -2.931  0.00  0.00     0.026 A 
ATOM      3  C   UNL d   1      30.445 -17.765  -1.675  0.00  0.00     0.090 A 
ATOM      4  N   UNL d   1      29.310 -17.520  -1.007  0.00  0.00    -0.352 N 
ATOM      5  C   UNL d   1      28.307 -16.766  -1.485  0.00  0.00     0.103 A 
ATOM      6  C   UNL d   1      28.470 -16.204  -2.760  0.00  0.00     0.057 A 
ATOM      7  H   UNL d   1      29.142 -17.964  -0.108  0.00  0.00     0.166 HD
ENDROOT
BRANCH   1   8
ATOM      8  C   UNL d   1      29.843 -15.750  -4.850  0.00  0.00     0.161 C 
BRANCH   8   9
ATOM      9  N   UNL d   1      29.066 -14.541  -4.952  0.00  0.00    -0.356 N 
ATOM     10  C   UNL d   1      27.723 -14.533  -5.245  0.00  0.00     0.224 C 
ATOM     11  O   UNL d   1      27.085 -15.575  -5.406  0.00  0.00    -0.273 OA
ATOM     12  H   UNL d   1      29.536 -13.682  -4.738  0.00  0.00     0.162 HD
BRANCH  10  13
ATOM     13  C   UNL d   1      27.068 -13.158  -5.349  0.00  0.00     0.109 C 
ATOM     14  C   UNL d   1      25.564 -13.064  -5.020  0.00  0.00     0.048 C 
ATOM     15  C   UNL d   1      25.534 -12.030  -3.904  0.00  0.00     0.122 C 
ATOM     16  C   UNL d   1      26.104 -12.650  -2.624  0.00  0.00     0.034 C 
ATOM     17  O   UNL d   1      26.592 -11.148  -4.307  0.00  0.00    -0.380 OA
ATOM     18  C   UNL d   1      27.604 -12.671  -2.919  0.00  0.00     0.035 C 
ATOM     19  C   UNL d   1      27.654 -12.141  -4.353  0.00  0.00     0.135 C 
ENDBRANCH  10  13
ENDBRANCH   8   9
ENDBRANCH   1   8
BRANCH   5  20
ATOM     20  N   UNL d   1      27.148 -16.728  -0.743  0.00  0.00    -0.367 N 
ATOM     21  C   UNL d   1      27.101 -17.312   0.605  0.00  0.00     0.124 C 
ATOM     22  C   UNL d   1      26.235 -18.575   0.566  0.00  0.00     0.020 C 
ATOM     23  C   UNL d   1      24.731 -18.319   0.442  0.00  0.00     0.002 C 
ATOM     24  C   UNL d   1      24.326 -17.402  -0.714  0.00  0.00     0.002 C 
ATOM     25  C   UNL d   1      24.783 -15.956  -0.520  0.00  0.00     0.020 C 
ATOM     26  C   UNL d   1      26.185 -15.670  -1.064  0.00  0.00     0.124 C 
ENDBRANCH   5  20
TORSDOF 4
ENDMDL
