MODEL 1
REMARK VINA RESULT:    -7.385      0.000      0.000
REMARK INTER + INTRA:         -10.036
REMARK INTER:                  -8.876
REMARK INTRA:                  -1.159
REMARK CONF_INDEPENDENT:        1.492
REMARK UNBOUND:                -1.159
REMARK  5 active torsions:
REMARK  status: ('A' for Active; 'I' for Inactive)
REMARK    1  A    between atoms: O_2  and  C_3 
REMARK    2  A    between atoms: C_8  and  C_9 
REMARK    3  A    between atoms: C_15  and  C_16 
REMARK    4  A    between atoms: C_16  and  N_17 
REMARK    5  A    between atoms: C_22  and  O_23 
ROOT
ATOM      1  C   UNL d   1      29.528 -13.477   6.262  0.00  0.00     0.069 C 
ATOM      2  C   UNL d   1      28.165 -13.699   6.356  0.00  0.00     0.039 C 
ATOM      3  C   UNL d   1      27.414 -13.757   5.174  0.00  0.00     0.035 C 
ATOM      4  C   UNL d   1      28.057 -14.040   3.945  0.00  0.00     0.070 A 
ATOM      5  N   UNL d   1      27.464 -14.436   2.796  0.00  0.00    -0.247 NA
ATOM      6  C   UNL d   1      28.078 -14.804   1.441  0.00  0.00     0.078 A 
ATOM      7  C   UNL d   1      29.438 -14.664   1.519  0.00  0.00     0.031 A 
ATOM      8  C   UNL d   1      30.084 -14.273   2.693  0.00  0.00     0.088 A 
ATOM      9  C   UNL d   1      29.427 -13.953   3.894  0.00  0.00     0.029 A 
ATOM     10  C   UNL d   1      30.140 -13.551   5.023  0.00  0.00     0.053 C 
ENDROOT
BRANCH   7  11
ATOM     11  C   UNL d   1      30.103 -15.024   0.307  0.00  0.00     0.278 C 
BRANCH  11  12
ATOM     12  N   UNL d   1      30.551 -16.324   0.709  0.00  0.00    -0.067 N 
ATOM     13  C   UNL d   1      32.446 -16.305   0.356  0.00  0.00     0.235 C 
ATOM     14  C   UNL d   1      32.639 -16.995  -1.505  0.00  0.00     0.029 C 
ATOM     15  C   UNL d   1      30.905 -18.244  -1.916  0.00  0.00     0.029 C 
ATOM     16  C   UNL d   1      29.491 -17.537  -0.520  0.00  0.00     0.235 C 
ATOM     17  H   UNL d   1      30.405 -16.477   1.726  0.00  0.00     0.280 HD
ENDBRANCH  11  12
ENDBRANCH   7  11
BRANCH   6  18
ATOM     18  C   UNL d   1      26.839 -15.351  -0.181  0.00  0.00    -0.007 C 
ATOM     19  C   UNL d   1      27.070 -15.227  -1.586  0.00  0.00     0.014 C 
ATOM     20  C   UNL d   1      26.044 -15.065  -2.390  0.00  0.00     0.001 C 
ATOM     21  C   UNL d   1      25.050 -15.980  -2.096  0.00  0.00     0.000 C 
ATOM     22  C   UNL d   1      25.072 -16.917  -1.062  0.00  0.00     0.001 C 
ATOM     23  C   UNL d   1      26.084 -16.729  -0.224  0.00  0.00     0.014 C 
ENDBRANCH   6  18
BRANCH   8  24
ATOM     24  O   UNL d   1      31.454 -14.222   2.690  0.00  0.00    -0.359 OA
ATOM     25  H   UNL d   1      31.822 -14.273   3.581  0.00  0.00     0.217 HD
ENDBRANCH   8  24
BRANCH   1  26
ATOM     26  O   UNL d   1      30.339 -13.063   7.273  0.00  0.00    -0.356 OA
ATOM     27  C   UNL d   1      30.772 -14.071   8.171  0.00  0.00     0.210 C 
ENDBRANCH   1  26
TORSDOF 5
ENDMDL
MODEL 2
REMARK VINA RESULT:    -6.974      3.093      4.415
REMARK INTER + INTRA:          -9.804
REMARK INTER:                  -8.466
REMARK INTRA:                  -1.338
REMARK CONF_INDEPENDENT:        1.492
REMARK UNBOUND:                -1.338
REMARK  5 active torsions:
REMARK  status: ('A' for Active; 'I' for Inactive)
REMARK    1  A    between atoms: O_2  and  C_3 
REMARK    2  A    between atoms: C_8  and  C_9 
REMARK    3  A    between atoms: C_15  and  C_16 
REMARK    4  A    between atoms: C_16  and  N_17 
REMARK    5  A    between atoms: C_22  and  O_23 
ROOT
ATOM      1  C   UNL d   1      29.043 -13.921   8.567  0.00  0.00     0.069 C 
ATOM      2  C   UNL d   1      28.912 -12.555   8.747  0.00  0.00     0.039 C 
ATOM      3  C   UNL d   1      28.883 -11.730   7.615  0.00  0.00     0.035 C 
ATOM      4  C   UNL d   1      28.539 -12.278   6.355  0.00  0.00     0.070 A 
ATOM      5  N   UNL d   1      28.163 -11.590   5.253  0.00  0.00    -0.247 NA
ATOM      6  C   UNL d   1      27.734 -12.095   3.871  0.00  0.00     0.078 A 
ATOM      7  C   UNL d   1      27.786 -13.464   3.864  0.00  0.00     0.031 A 
ATOM      8  C   UNL d   1      28.154 -14.204   4.989  0.00  0.00     0.088 A 
ATOM      9  C   UNL d   1      28.536 -13.645   6.220  0.00  0.00     0.029 A 
ATOM     10  C   UNL d   1      28.909 -14.450   7.295  0.00  0.00     0.053 C 
ENDROOT
BRANCH   7  11
ATOM     11  C   UNL d   1      27.364 -14.029   2.621  0.00  0.00     0.278 C 
BRANCH  11  12
ATOM     12  N   UNL d   1      28.526 -14.825   2.364  0.00  0.00    -0.067 N 
ATOM     13  C   UNL d   1      29.823 -13.568   1.690  0.00  0.00     0.235 C 
ATOM     14  C   UNL d   1      29.582 -13.578  -0.289  0.00  0.00     0.029 C 
ATOM     15  C   UNL d   1      28.730 -15.507  -0.829  0.00  0.00     0.029 C 
ATOM     16  C   UNL d   1      27.845 -16.137   0.980  0.00  0.00     0.235 C 
ATOM     17  H   UNL d   1      28.897 -15.246   3.239  0.00  0.00     0.280 HD
ENDBRANCH  11  12
ENDBRANCH   7  11
BRANCH   6  18
ATOM     18  C   UNL d   1      27.242 -10.726   2.338  0.00  0.00    -0.007 C 
ATOM     19  C   UNL d   1      27.194 -10.922   0.923  0.00  0.00     0.014 C 
ATOM     20  C   UNL d   1      27.441  -9.905   0.129  0.00  0.00     0.001 C 
ATOM     21  C   UNL d   1      26.731  -8.790   0.534  0.00  0.00     0.000 C 
ATOM     22  C   UNL d   1      25.905  -8.702   1.655  0.00  0.00     0.001 C 
ATOM     23  C   UNL d   1      26.006  -9.761   2.449  0.00  0.00     0.014 C 
ENDBRANCH   6  18
BRANCH   8  24
ATOM     24  O   UNL d   1      28.116 -15.572   4.901  0.00  0.00    -0.359 OA
ATOM     25  H   UNL d   1      28.979 -15.946   4.681  0.00  0.00     0.217 HD
ENDBRANCH   8  24
BRANCH   1  26
ATOM     26  O   UNL d   1      29.419 -14.818   9.519  0.00  0.00    -0.356 OA
ATOM     27  C   UNL d   1      30.811 -15.073   9.613  0.00  0.00     0.210 C 
ENDBRANCH   1  26
TORSDOF 5
ENDMDL
MODEL 3
REMARK VINA RESULT:    -6.902      4.103      6.581
REMARK INTER + INTRA:          -9.599
REMARK INTER:                  -8.393
REMARK INTRA:                  -1.206
REMARK CONF_INDEPENDENT:        1.492
REMARK UNBOUND:                -1.206
REMARK  5 active torsions:
REMARK  status: ('A' for Active; 'I' for Inactive)
REMARK    1  A    between atoms: O_2  and  C_3 
REMARK    2  A    between atoms: C_8  and  C_9 
REMARK    3  A    between atoms: C_15  and  C_16 
REMARK    4  A    between atoms: C_16  and  N_17 
REMARK    5  A    between atoms: C_22  and  O_23 
ROOT
ATOM      1  C   UNL d   1      23.737 -17.848  -0.137  0.00  0.00     0.069 C 
ATOM      2  C   UNL d   1      23.294 -16.985  -1.125  0.00  0.00     0.039 C 
ATOM      3  C   UNL d   1      24.208 -16.081  -1.683  0.00  0.00     0.035 C 
ATOM      4  C   UNL d   1      25.597 -16.337  -1.590  0.00  0.00     0.070 A 
ATOM      5  N   UNL d   1      26.575 -15.757  -2.322  0.00  0.00    -0.247 NA
ATOM      6  C   UNL d   1      28.088 -16.001  -2.320  0.00  0.00     0.078 A 
ATOM      7  C   UNL d   1      28.380 -16.964  -1.392  0.00  0.00     0.031 A 
ATOM      8  C   UNL d   1      27.394 -17.593  -0.630  0.00  0.00     0.088 A 
ATOM      9  C   UNL d   1      26.023 -17.297  -0.703  0.00  0.00     0.029 A 
ATOM     10  C   UNL d   1      25.096 -17.956   0.104  0.00  0.00     0.053 C 
ENDROOT
BRANCH   7  11
ATOM     11  C   UNL d   1      29.772 -17.286  -1.346  0.00  0.00     0.278 C 
BRANCH  11  12
ATOM     12  N   UNL d   1      29.982 -17.043   0.050  0.00  0.00    -0.067 N 
ATOM     13  C   UNL d   1      29.917 -15.124   0.212  0.00  0.00     0.235 C 
ATOM     14  C   UNL d   1      31.802 -14.515  -0.008  0.00  0.00     0.029 C 
ATOM     15  C   UNL d   1      33.090 -16.170   0.576  0.00  0.00     0.029 C 
ATOM     16  C   UNL d   1      31.821 -17.839   0.348  0.00  0.00     0.235 C 
ATOM     17  H   UNL d   1      29.217 -17.450   0.624  0.00  0.00     0.280 HD
ENDBRANCH  11  12
ENDBRANCH   7  11
BRANCH   6  18
ATOM     18  C   UNL d   1      29.353 -14.875  -3.585  0.00  0.00    -0.007 C 
ATOM     19  C   UNL d   1      30.777 -14.751  -3.571  0.00  0.00     0.014 C 
ATOM     20  C   UNL d   1      31.324 -13.635  -3.999  0.00  0.00     0.001 C 
ATOM     21  C   UNL d   1      30.770 -13.256  -5.207  0.00  0.00     0.000 C 
ATOM     22  C   UNL d   1      29.735 -13.906  -5.880  0.00  0.00     0.001 C 
ATOM     23  C   UNL d   1      29.165 -14.854  -5.146  0.00  0.00     0.014 C 
ENDBRANCH   6  18
BRANCH   8  24
ATOM     24  O   UNL d   1      27.780 -18.589   0.229  0.00  0.00    -0.359 OA
ATOM     25  H   UNL d   1      28.669 -18.912   0.035  0.00  0.00     0.217 HD
ENDBRANCH   8  24
BRANCH   1  26
ATOM     26  O   UNL d   1      22.949 -18.537   0.732  0.00  0.00    -0.356 OA
ATOM     27  C   UNL d   1      21.691 -18.953   0.229  0.00  0.00     0.210 C 
ENDBRANCH   1  26
TORSDOF 5
ENDMDL
MODEL 4
REMARK VINA RESULT:    -6.849      3.736      5.027
REMARK INTER + INTRA:          -9.645
REMARK INTER:                  -8.340
REMARK INTRA:                  -1.305
REMARK CONF_INDEPENDENT:        1.492
REMARK UNBOUND:                -1.305
REMARK  5 active torsions:
REMARK  status: ('A' for Active; 'I' for Inactive)
REMARK    1  A    between atoms: O_2  and  C_3 
REMARK    2  A    between atoms: C_8  and  C_9 
REMARK    3  A    between atoms: C_15  and  C_16 
REMARK    4  A    between atoms: C_16  and  N_17 
REMARK    5  A    between atoms: C_22  and  O_23 
ROOT
ATOM      1  C   UNL d   1      29.273 -14.145   9.882  0.00  0.00     0.069 C 
ATOM      2  C   UNL d   1      28.358 -13.122  10.063  0.00  0.00     0.039 C 
ATOM      3  C   UNL d   1      28.158 -12.210   9.017  0.00  0.00     0.035 C 
ATOM      4  C   UNL d   1      28.510 -12.570   7.694  0.00  0.00     0.070 A 
ATOM      5  N   UNL d   1      28.107 -11.959   6.557  0.00  0.00    -0.247 NA
ATOM      6  C   UNL d   1      28.400 -12.301   5.092  0.00  0.00     0.078 A 
ATOM      7  C   UNL d   1      29.210 -13.404   5.049  0.00  0.00     0.031 A 
ATOM      8  C   UNL d   1      29.632 -14.068   6.202  0.00  0.00     0.088 A 
ATOM      9  C   UNL d   1      29.309 -13.673   7.511  0.00  0.00     0.029 A 
ATOM     10  C   UNL d   1      29.785 -14.377   8.617  0.00  0.00     0.053 C 
ENDROOT
BRANCH   7  11
ATOM     11  C   UNL d   1      29.507 -13.822   3.715  0.00  0.00     0.278 C 
BRANCH  11  12
ATOM     12  N   UNL d   1      30.931 -13.676   3.778  0.00  0.00    -0.067 N 
ATOM     13  C   UNL d   1      31.259 -11.918   3.058  0.00  0.00     0.235 C 
ATOM     14  C   UNL d   1      31.540 -12.197   1.104  0.00  0.00     0.029 C 
ATOM     15  C   UNL d   1      32.242 -14.240   0.835  0.00  0.00     0.029 C 
ATOM     16  C   UNL d   1      31.566 -15.190   2.592  0.00  0.00     0.235 C 
ATOM     17  H   UNL d   1      31.270 -13.700   4.759  0.00  0.00     0.280 HD
ENDBRANCH  11  12
ENDBRANCH   7  11
BRANCH   6  18
ATOM     18  C   UNL d   1      27.630 -11.093   3.538  0.00  0.00    -0.007 C 
ATOM     19  C   UNL d   1      26.921 -11.473   2.357  0.00  0.00     0.014 C 
ATOM     20  C   UNL d   1      27.030 -10.728   1.280  0.00  0.00     0.001 C 
ATOM     21  C   UNL d   1      26.858  -9.393   1.595  0.00  0.00     0.000 C 
ATOM     22  C   UNL d   1      26.655  -8.867   2.871  0.00  0.00     0.001 C 
ATOM     23  C   UNL d   1      26.837  -9.767   3.830  0.00  0.00     0.014 C 
ENDBRANCH   6  18
BRANCH   8  24
ATOM     24  O   UNL d   1      30.391 -15.200   6.053  0.00  0.00    -0.359 OA
ATOM     25  H   UNL d   1      31.155 -15.053   5.479  0.00  0.00     0.217 HD
ENDBRANCH   8  24
BRANCH   1  26
ATOM     26  O   UNL d   1      29.833 -14.896  10.868  0.00  0.00    -0.356 OA
ATOM     27  C   UNL d   1      30.839 -15.807  10.457  0.00  0.00     0.210 C 
ENDBRANCH   1  26
TORSDOF 5
ENDMDL
MODEL 5
REMARK VINA RESULT:    -6.832      6.093      8.330
REMARK INTER + INTRA:          -9.533
REMARK INTER:                  -8.324
REMARK INTRA:                  -1.209
REMARK CONF_INDEPENDENT:        1.492
REMARK UNBOUND:                -1.209
REMARK  5 active torsions:
REMARK  status: ('A' for Active; 'I' for Inactive)
REMARK    1  A    between atoms: O_2  and  C_3 
REMARK    2  A    between atoms: C_8  and  C_9 
REMARK    3  A    between atoms: C_15  and  C_16 
REMARK    4  A    between atoms: C_16  and  N_17 
REMARK    5  A    between atoms: C_22  and  O_23 
ROOT
ATOM      1  C   UNL d   1      24.062 -16.473  -0.764  0.00  0.00     0.069 C 
ATOM      2  C   UNL d   1      25.255 -17.080  -0.412  0.00  0.00     0.039 C 
ATOM      3  C   UNL d   1      26.308 -17.071  -1.337  0.00  0.00     0.035 C 
ATOM      4  C   UNL d   1      26.325 -16.107  -2.374  0.00  0.00     0.070 A 
ATOM      5  N   UNL d   1      27.387 -15.761  -3.136  0.00  0.00    -0.247 NA
ATOM      6  C   UNL d   1      27.508 -14.708  -4.243  0.00  0.00     0.078 A 
ATOM      7  C   UNL d   1      26.296 -14.093  -4.405  0.00  0.00     0.031 A 
ATOM      8  C   UNL d   1      25.184 -14.415  -3.624  0.00  0.00     0.088 A 
ATOM      9  C   UNL d   1      25.171 -15.406  -2.628  0.00  0.00     0.029 A 
ATOM     10  C   UNL d   1      24.015 -15.685  -1.901  0.00  0.00     0.053 C 
ENDROOT
BRANCH   7  11
ATOM     11  C   UNL d   1      26.323 -13.063  -5.395  0.00  0.00     0.278 C 
BRANCH  11  12
ATOM     12  N   UNL d   1      25.765 -12.012  -4.598  0.00  0.00    -0.067 N 
ATOM     13  C   UNL d   1      25.530 -10.553  -5.836  0.00  0.00     0.235 C 
ATOM     14  C   UNL d   1      27.223  -9.504  -5.736  0.00  0.00     0.029 C 
ATOM     15  C   UNL d   1      28.098  -9.872  -3.777  0.00  0.00     0.029 C 
ATOM     16  C   UNL d   1      27.216 -11.706  -3.220  0.00  0.00     0.235 C 
ATOM     17  H   UNL d   1      24.834 -12.278  -4.220  0.00  0.00     0.280 HD
ENDBRANCH  11  12
ENDBRANCH   7  11
BRANCH   6  18
ATOM     18  C   UNL d   1      29.335 -14.449  -5.275  0.00  0.00    -0.007 C 
ATOM     19  C   UNL d   1      30.550 -13.838  -4.835  0.00  0.00     0.014 C 
ATOM     20  C   UNL d   1      31.331 -13.261  -5.720  0.00  0.00     0.001 C 
ATOM     21  C   UNL d   1      31.518 -14.087  -6.813  0.00  0.00     0.000 C 
ATOM     22  C   UNL d   1      30.931 -15.338  -7.011  0.00  0.00     0.001 C 
ATOM     23  C   UNL d   1      29.986 -15.605  -6.118  0.00  0.00     0.014 C 
ENDBRANCH   6  18
BRANCH   8  24
ATOM     24  O   UNL d   1      24.030 -13.701  -3.820  0.00  0.00    -0.359 OA
ATOM     25  H   UNL d   1      23.648 -13.859  -4.693  0.00  0.00     0.217 HD
ENDBRANCH   8  24
BRANCH   1  26
ATOM     26  O   UNL d   1      22.859 -16.669  -0.158  0.00  0.00    -0.356 OA
ATOM     27  C   UNL d   1      22.170 -17.853  -0.520  0.00  0.00     0.210 C 
ENDBRANCH   1  26
TORSDOF 5
ENDMDL
MODEL 6
REMARK VINA RESULT:    -6.680      4.959      7.678
REMARK INTER + INTRA:          -9.699
REMARK INTER:                  -8.172
REMARK INTRA:                  -1.527
REMARK CONF_INDEPENDENT:        1.492
REMARK UNBOUND:                -1.527
REMARK  5 active torsions:
REMARK  status: ('A' for Active; 'I' for Inactive)
REMARK    1  A    between atoms: O_2  and  C_3 
REMARK    2  A    between atoms: C_8  and  C_9 
REMARK    3  A    between atoms: C_15  and  C_16 
REMARK    4  A    between atoms: C_16  and  N_17 
REMARK    5  A    between atoms: C_22  and  O_23 
ROOT
ATOM      1  C   UNL d   1      22.380 -17.748  -0.379  0.00  0.00     0.069 C 
ATOM      2  C   UNL d   1      23.156 -18.519   0.470  0.00  0.00     0.039 C 
ATOM      3  C   UNL d   1      24.537 -18.583   0.241  0.00  0.00     0.035 C 
ATOM      4  C   UNL d   1      25.173 -17.567  -0.511  0.00  0.00     0.070 A 
ATOM      5  N   UNL d   1      26.500 -17.309  -0.558  0.00  0.00    -0.247 NA
ATOM      6  C   UNL d   1      27.268 -16.212  -1.304  0.00  0.00     0.078 A 
ATOM      7  C   UNL d   1      26.377 -15.443  -2.002  0.00  0.00     0.031 A 
ATOM      8  C   UNL d   1      25.000 -15.672  -1.963  0.00  0.00     0.088 A 
ATOM      9  C   UNL d   1      24.387 -16.713  -1.246  0.00  0.00     0.029 A 
ATOM     10  C   UNL d   1      23.004 -16.891  -1.270  0.00  0.00     0.053 C 
ENDROOT
BRANCH   7  11
ATOM     11  C   UNL d   1      27.002 -14.365  -2.702  0.00  0.00     0.278 C 
BRANCH  11  12
ATOM     12  N   UNL d   1      26.464 -14.638  -4.001  0.00  0.00    -0.067 N 
ATOM     13  C   UNL d   1      27.988 -15.203  -5.037  0.00  0.00     0.235 C 
ATOM     14  C   UNL d   1      28.704 -13.537  -5.865  0.00  0.00     0.029 C 
ATOM     15  C   UNL d   1      27.055 -12.123  -6.006  0.00  0.00     0.029 C 
ATOM     16  C   UNL d   1      25.717 -12.835  -4.539  0.00  0.00     0.235 C 
ATOM     17  H   UNL d   1      25.778 -15.419  -3.969  0.00  0.00     0.280 HD
ENDBRANCH  11  12
ENDBRANCH   7  11
BRANCH   6  18
ATOM     18  C   UNL d   1      29.377 -16.119  -1.189  0.00  0.00    -0.007 C 
ATOM     19  C   UNL d   1      30.261 -16.682  -0.217  0.00  0.00     0.014 C 
ATOM     20  C   UNL d   1      31.401 -16.079   0.034  0.00  0.00     0.001 C 
ATOM     21  C   UNL d   1      32.046 -15.754  -1.145  0.00  0.00     0.000 C 
ATOM     22  C   UNL d   1      31.561 -15.967  -2.436  0.00  0.00     0.001 C 
ATOM     23  C   UNL d   1      30.291 -16.349  -2.447  0.00  0.00     0.014 C 
ENDBRANCH   6  18
BRANCH   8  24
ATOM     24  O   UNL d   1      24.183 -14.809  -2.647  0.00  0.00    -0.359 OA
ATOM     25  H   UNL d   1      23.484 -14.450  -2.087  0.00  0.00     0.217 HD
ENDBRANCH   8  24
BRANCH   1  26
ATOM     26  O   UNL d   1      21.030 -17.830  -0.520  0.00  0.00    -0.356 OA
ATOM     27  C   UNL d   1      20.514 -19.122  -0.792  0.00  0.00     0.210 C 
ENDBRANCH   1  26
TORSDOF 5
ENDMDL
MODEL 7
REMARK VINA RESULT:    -6.605      3.414      6.070
REMARK INTER + INTRA:          -9.519
REMARK INTER:                  -8.096
REMARK INTRA:                  -1.422
REMARK CONF_INDEPENDENT:        1.492
REMARK UNBOUND:                -1.422
REMARK  5 active torsions:
REMARK  status: ('A' for Active; 'I' for Inactive)
REMARK    1  A    between atoms: O_2  and  C_3 
REMARK    2  A    between atoms: C_8  and  C_9 
REMARK    3  A    between atoms: C_15  and  C_16 
REMARK    4  A    between atoms: C_16  and  N_17 
REMARK    5  A    between atoms: C_22  and  O_23 
ROOT
ATOM      1  C   UNL d   1      29.162 -14.444  11.116  0.00  0.00     0.069 C 
ATOM      2  C   UNL d   1      28.013 -13.683  11.254  0.00  0.00     0.039 C 
ATOM      3  C   UNL d   1      27.780 -12.651  10.334  0.00  0.00     0.035 C 
ATOM      4  C   UNL d   1      28.422 -12.675   9.073  0.00  0.00     0.070 A 
ATOM      5  N   UNL d   1      28.080 -11.955   7.980  0.00  0.00    -0.247 NA
ATOM      6  C   UNL d   1      28.685 -11.947   6.572  0.00  0.00     0.078 A 
ATOM      7  C   UNL d   1      29.729 -12.833   6.534  0.00  0.00     0.031 A 
ATOM      8  C   UNL d   1      30.099 -13.602   7.639  0.00  0.00     0.088 A 
ATOM      9  C   UNL d   1      29.478 -13.535   8.898  0.00  0.00     0.029 A 
ATOM     10  C   UNL d   1      29.916 -14.323   9.962  0.00  0.00     0.053 C 
ENDROOT
BRANCH   7  11
ATOM     11  C   UNL d   1      30.334 -12.921   5.242  0.00  0.00     0.278 C 
BRANCH  11  12
ATOM     12  N   UNL d   1      30.115 -14.320   5.021  0.00  0.00    -0.067 N 
ATOM     13  C   UNL d   1      31.154 -14.718   3.446  0.00  0.00     0.235 C 
ATOM     14  C   UNL d   1      29.907 -14.450   1.914  0.00  0.00     0.029 C 
ATOM     15  C   UNL d   1      27.885 -14.742   2.666  0.00  0.00     0.029 C 
ATOM     16  C   UNL d   1      28.112 -14.397   4.734  0.00  0.00     0.235 C 
ATOM     17  H   UNL d   1      30.479 -14.889   5.810  0.00  0.00     0.280 HD
ENDBRANCH  11  12
ENDBRANCH   7  11
BRANCH   6  18
ATOM     18  C   UNL d   1      27.919 -10.652   5.088  0.00  0.00    -0.007 C 
ATOM     19  C   UNL d   1      28.304  -9.314   4.761  0.00  0.00     0.014 C 
ATOM     20  C   UNL d   1      27.405  -8.496   4.262  0.00  0.00     0.001 C 
ATOM     21  C   UNL d   1      26.705  -9.111   3.241  0.00  0.00     0.000 C 
ATOM     22  C   UNL d   1      26.860 -10.429   2.812  0.00  0.00     0.001 C 
ATOM     23  C   UNL d   1      27.634 -11.142   3.621  0.00  0.00     0.014 C 
ENDBRANCH   6  18
BRANCH   8  24
ATOM     24  O   UNL d   1      31.118 -14.505   7.483  0.00  0.00    -0.359 OA
ATOM     25  H   UNL d   1      31.972 -14.071   7.358  0.00  0.00     0.217 HD
ENDBRANCH   8  24
BRANCH   1  26
ATOM     26  O   UNL d   1      29.712 -15.237  12.074  0.00  0.00    -0.356 OA
ATOM     27  C   UNL d   1      30.920 -15.888  11.720  0.00  0.00     0.210 C 
ENDBRANCH   1  26
TORSDOF 5
ENDMDL
MODEL 8
REMARK VINA RESULT:    -6.582      4.358      6.729
REMARK INTER + INTRA:          -9.509
REMARK INTER:                  -8.073
REMARK INTRA:                  -1.436
REMARK CONF_INDEPENDENT:        1.492
REMARK UNBOUND:                -1.436
REMARK  5 active torsions:
REMARK  status: ('A' for Active; 'I' for Inactive)
REMARK    1  A    between atoms: O_2  and  C_3 
REMARK    2  A    between atoms: C_8  and  C_9 
REMARK    3  A    between atoms: C_15  and  C_16 
REMARK    4  A    between atoms: C_16  and  N_17 
REMARK    5  A    between atoms: C_22  and  O_23 
ROOT
ATOM      1  C   UNL d   1      22.690 -18.632  -0.400  0.00  0.00     0.069 C 
ATOM      2  C   UNL d   1      22.145 -17.460  -0.895  0.00  0.00     0.039 C 
ATOM      3  C   UNL d   1      22.874 -16.271  -0.756  0.00  0.00     0.035 C 
ATOM      4  C   UNL d   1      24.274 -16.326  -0.548  0.00  0.00     0.070 A 
ATOM      5  N   UNL d   1      25.152 -15.310  -0.705  0.00  0.00    -0.247 NA
ATOM      6  C   UNL d   1      26.676 -15.287  -0.546  0.00  0.00     0.078 A 
ATOM      7  C   UNL d   1      27.102 -16.535  -0.178  0.00  0.00     0.031 A 
ATOM      8  C   UNL d   1      26.224 -17.609  -0.022  0.00  0.00     0.088 A 
ATOM      9  C   UNL d   1      24.831 -17.529  -0.190  0.00  0.00     0.029 A 
ATOM     10  C   UNL d   1      24.015 -18.643   0.002  0.00  0.00     0.053 C 
ENDROOT
BRANCH   7  11
ATOM     11  C   UNL d   1      28.522 -16.620  -0.043  0.00  0.00     0.278 C 
BRANCH  11  12
ATOM     12  N   UNL d   1      28.777 -17.451  -1.181  0.00  0.00    -0.067 N 
ATOM     13  C   UNL d   1      30.480 -18.270  -0.799  0.00  0.00     0.235 C 
ATOM     14  C   UNL d   1      31.839 -17.048  -1.595  0.00  0.00     0.029 C 
ATOM     15  C   UNL d   1      30.866 -15.960  -3.209  0.00  0.00     0.029 C 
ATOM     16  C   UNL d   1      28.826 -16.102  -2.691  0.00  0.00     0.235 C 
ATOM     17  H   UNL d   1      28.062 -18.200  -1.270  0.00  0.00     0.280 HD
ENDBRANCH  11  12
ENDBRANCH   7  11
BRANCH   6  18
ATOM     18  C   UNL d   1      27.754 -13.491  -0.834  0.00  0.00    -0.007 C 
ATOM     19  C   UNL d   1      27.905 -12.700  -2.015  0.00  0.00     0.014 C 
ATOM     20  C   UNL d   1      29.005 -12.000  -2.177  0.00  0.00     0.001 C 
ATOM     21  C   UNL d   1      29.305 -11.296  -1.025  0.00  0.00     0.000 C 
ATOM     22  C   UNL d   1      28.598 -11.342   0.177  0.00  0.00     0.001 C 
ATOM     23  C   UNL d   1      27.683 -12.303   0.194  0.00  0.00     0.014 C 
ENDBRANCH   6  18
BRANCH   8  24
ATOM     24  O   UNL d   1      26.753 -18.835   0.288  0.00  0.00    -0.359 OA
ATOM     25  H   UNL d   1      27.517 -18.763   0.875  0.00  0.00     0.217 HD
ENDBRANCH   8  24
BRANCH   1  26
ATOM     26  O   UNL d   1      22.009 -19.782  -0.145  0.00  0.00    -0.356 OA
ATOM     27  C   UNL d   1      20.598 -19.700  -0.244  0.00  0.00     0.210 C 
ENDBRANCH   1  26
TORSDOF 5
ENDMDL
MODEL 9
REMARK VINA RESULT:    -6.457      4.288      7.598
REMARK INTER + INTRA:          -9.502
REMARK INTER:                  -7.948
REMARK INTRA:                  -1.554
REMARK CONF_INDEPENDENT:        1.492
REMARK UNBOUND:                -1.554
REMARK  5 active torsions:
REMARK  status: ('A' for Active; 'I' for Inactive)
REMARK    1  A    between atoms: O_2  and  C_3 
REMARK    2  A    between atoms: C_8  and  C_9 
REMARK    3  A    between atoms: C_15  and  C_16 
REMARK    4  A    between atoms: C_16  and  N_17 
REMARK    5  A    between atoms: C_22  and  O_23 
ROOT
ATOM      1  C   UNL d   1      22.117 -17.810  -0.587  0.00  0.00     0.069 C 
ATOM      2  C   UNL d   1      22.699 -18.763   0.230  0.00  0.00     0.039 C 
ATOM      3  C   UNL d   1      24.086 -18.950   0.157  0.00  0.00     0.035 C 
ATOM      4  C   UNL d   1      24.907 -17.922  -0.365  0.00  0.00     0.070 A 
ATOM      5  N   UNL d   1      26.247 -17.808  -0.221  0.00  0.00    -0.247 NA
ATOM      6  C   UNL d   1      27.205 -16.717  -0.710  0.00  0.00     0.078 A 
ATOM      7  C   UNL d   1      26.488 -15.772  -1.393  0.00  0.00     0.031 A 
ATOM      8  C   UNL d   1      25.103 -15.850  -1.548  0.00  0.00     0.088 A 
ATOM      9  C   UNL d   1      24.307 -16.901  -1.060  0.00  0.00     0.029 A 
ATOM     10  C   UNL d   1      22.928 -16.920  -1.270  0.00  0.00     0.053 C 
ENDROOT
BRANCH   7  11
ATOM     11  C   UNL d   1      27.297 -14.689  -1.857  0.00  0.00     0.278 C 
BRANCH  11  12
ATOM     12  N   UNL d   1      26.584 -13.624  -1.217  0.00  0.00    -0.067 N 
ATOM     13  C   UNL d   1      27.095 -12.050  -2.205  0.00  0.00     0.235 C 
ATOM     14  C   UNL d   1      28.692 -11.330  -1.253  0.00  0.00     0.029 C 
ATOM     15  C   UNL d   1      28.574 -12.007   0.813  0.00  0.00     0.029 C 
ATOM     16  C   UNL d   1      27.316 -13.694   0.669  0.00  0.00     0.235 C 
ATOM     17  H   UNL d   1      25.556 -13.751  -1.306  0.00  0.00     0.280 HD
ENDBRANCH  11  12
ENDBRANCH   7  11
BRANCH   6  18
ATOM     18  C   UNL d   1      29.280 -16.872  -0.338  0.00  0.00    -0.007 C 
ATOM     19  C   UNL d   1      30.302 -17.490  -1.124  0.00  0.00     0.014 C 
ATOM     20  C   UNL d   1      31.356 -17.991  -0.520  0.00  0.00     0.001 C 
ATOM     21  C   UNL d   1      31.864 -17.089   0.396  0.00  0.00     0.000 C 
ATOM     22  C   UNL d   1      31.328 -15.839   0.706  0.00  0.00     0.001 C 
ATOM     23  C   UNL d   1      30.129 -15.650   0.169  0.00  0.00     0.014 C 
ENDBRANCH   6  18
BRANCH   8  24
ATOM     24  O   UNL d   1      24.467 -14.823  -2.195  0.00  0.00    -0.359 OA
ATOM     25  H   UNL d   1      24.281 -15.035  -3.119  0.00  0.00     0.217 HD
ENDBRANCH   8  24
BRANCH   1  26
ATOM     26  O   UNL d   1      20.794 -17.724  -0.895  0.00  0.00    -0.356 OA
ATOM     27  C   UNL d   1      20.080 -18.949  -0.904  0.00  0.00     0.210 C 
ENDBRANCH   1  26
TORSDOF 5
ENDMDL
