MODEL 1
REMARK VINA RESULT:   -15.151      0.000      0.000
REMARK INTER + INTRA:         -17.138
REMARK INTER:                 -16.344
REMARK INTRA:                  -0.794
REMARK CONF_INDEPENDENT:        1.193
REMARK UNBOUND:                -0.794
REMARK  4 active torsions:
REMARK  status: ('A' for Active; 'I' for Inactive)
REMARK       I    between atoms: C_2  and  N_3 
REMARK    1  A    between atoms: C_2  and  C_17 
REMARK    2  A    between atoms: N_3  and  C_4 
REMARK    3  A    between atoms: C_7  and  N_8 
REMARK    4  A    between atoms: N_8  and  C_9 
ROOT
ATOM      1  C   UNL d   1      25.645 -17.527   0.125  0.00  0.00     0.034 A 
ATOM      2  C   UNL d   1      25.937 -16.931  -1.114  0.00  0.00     0.032 A 
ATOM      3  C   UNL d   1      27.168 -16.289  -1.303  0.00  0.00     0.031 A 
ATOM      4  C   UNL d   1      28.074 -16.210  -0.241  0.00  0.00     0.032 A 
ATOM      5  C   UNL d   1      27.752 -16.851   0.965  0.00  0.00     0.031 A 
ATOM      6  C   UNL d   1      26.553 -17.494   1.155  0.00  0.00     0.032 A 
ENDROOT
BRANCH   1   7
ATOM      7  N   UNL d   1      24.488 -18.275   0.309  0.00  0.00    -0.326 N 
ATOM      8  C   UNL d   1      23.182 -17.783   0.215  0.00  0.00     0.236 C 
ATOM      9  O   UNL d   1      22.877 -16.609   0.093  0.00  0.00    -0.272 OA
ATOM     10  H   UNL d   1      24.627 -19.278   0.242  0.00  0.00     0.169 HD
BRANCH   8  11
ATOM     11  C   UNL d   1      22.142 -18.931   0.304  0.00  0.00     0.164 C 
ATOM     12  C   UNL d   1      21.297 -18.943   1.570  0.00  0.00    -0.004 C 
ATOM     13  C   UNL d   1      19.961 -19.024   1.548  0.00  0.00     0.016 C 
ATOM     14  C   UNL d   1      19.310 -18.956   0.238  0.00  0.00     0.117 C 
ATOM     15  N   UNL d   1      19.890 -18.911  -0.907  0.00  0.00    -0.253 NA
ATOM     16  C   UNL d   1      21.255 -19.015  -0.983  0.00  0.00     0.117 C 
ATOM     17  S   UNL d   1      21.910 -19.326  -2.523  0.00  0.00    -0.062 SA
ENDBRANCH   8  11
ENDBRANCH   1   7
BRANCH   4  18
ATOM     18  N   UNL d   1      29.277 -15.497  -0.354  0.00  0.00    -0.356 N 
ATOM     19  H   UNL d   1      29.555 -14.914   0.423  0.00  0.00     0.166 HD
BRANCH  18  20
ATOM     20  C   UNL d   1      30.216 -15.630  -1.391  0.00  0.00     0.032 A 
ATOM     21  C   UNL d   1      30.148 -14.838  -2.537  0.00  0.00     0.029 A 
ATOM     22  C   UNL d   1      31.099 -14.994  -3.550  0.00  0.00     0.002 A 
ATOM     23  C   UNL d   1      32.168 -15.876  -3.382  0.00  0.00     0.000 A 
ATOM     24  C   UNL d   1      32.273 -16.630  -2.219  0.00  0.00     0.002 A 
ATOM     25  C   UNL d   1      31.292 -16.516  -1.240  0.00  0.00     0.029 A 
ENDBRANCH  18  20
ENDBRANCH   4  18
TORSDOF 4
ENDMDL
MODEL 2
REMARK VINA RESULT:   -14.321      2.045      2.676
REMARK INTER + INTRA:         -16.252
REMARK INTER:                 -15.515
REMARK INTRA:                  -0.738
REMARK CONF_INDEPENDENT:        1.193
REMARK UNBOUND:                -0.738
REMARK  4 active torsions:
REMARK  status: ('A' for Active; 'I' for Inactive)
REMARK       I    between atoms: C_2  and  N_3 
REMARK    1  A    between atoms: C_2  and  C_17 
REMARK    2  A    between atoms: N_3  and  C_4 
REMARK    3  A    between atoms: C_7  and  N_8 
REMARK    4  A    between atoms: N_8  and  C_9 
ROOT
ATOM      1  C   UNL d   1      24.989 -17.523  -0.272  0.00  0.00     0.034 A 
ATOM      2  C   UNL d   1      26.200 -18.110   0.135  0.00  0.00     0.032 A 
ATOM      3  C   UNL d   1      27.390 -17.375   0.052  0.00  0.00     0.031 A 
ATOM      4  C   UNL d   1      27.366 -16.081  -0.477  0.00  0.00     0.032 A 
ATOM      5  C   UNL d   1      26.128 -15.526  -0.836  0.00  0.00     0.031 A 
ATOM      6  C   UNL d   1      24.953 -16.234  -0.745  0.00  0.00     0.032 A 
ENDROOT
BRANCH   1   7
ATOM      7  N   UNL d   1      23.776 -18.177  -0.090  0.00  0.00    -0.326 N 
ATOM      8  C   UNL d   1      23.079 -18.879  -1.079  0.00  0.00     0.236 C 
ATOM      9  O   UNL d   1      23.367 -18.903  -2.264  0.00  0.00    -0.272 OA
ATOM     10  H   UNL d   1      23.545 -18.361   0.880  0.00  0.00     0.169 HD
BRANCH   8  11
ATOM     11  C   UNL d   1      21.858 -19.627  -0.481  0.00  0.00     0.164 C 
ATOM     12  C   UNL d   1      21.548 -19.301   0.974  0.00  0.00    -0.004 C 
ATOM     13  C   UNL d   1      20.327 -18.951   1.394  0.00  0.00     0.016 C 
ATOM     14  C   UNL d   1      19.303 -18.746   0.367  0.00  0.00     0.117 C 
ATOM     15  N   UNL d   1      19.428 -18.949  -0.895  0.00  0.00    -0.253 NA
ATOM     16  C   UNL d   1      20.589 -19.489  -1.385  0.00  0.00     0.117 C 
ATOM     17  S   UNL d   1      20.541 -20.074  -2.984  0.00  0.00    -0.062 SA
ENDBRANCH   8  11
ENDBRANCH   1   7
BRANCH   4  18
ATOM     18  N   UNL d   1      28.543 -15.343  -0.667  0.00  0.00    -0.356 N 
ATOM     19  H   UNL d   1      28.784 -15.071  -1.611  0.00  0.00     0.166 HD
BRANCH  18  20
ATOM     20  C   UNL d   1      29.352 -14.811   0.351  0.00  0.00     0.032 A 
ATOM     21  C   UNL d   1      28.944 -13.705   1.099  0.00  0.00     0.029 A 
ATOM     22  C   UNL d   1      29.772 -13.200   2.106  0.00  0.00     0.002 A 
ATOM     23  C   UNL d   1      30.964 -13.851   2.429  0.00  0.00     0.000 A 
ATOM     24  C   UNL d   1      31.351 -14.986   1.725  0.00  0.00     0.002 A 
ATOM     25  C   UNL d   1      30.555 -15.449   0.684  0.00  0.00     0.029 A 
ENDBRANCH  18  20
ENDBRANCH   4  18
TORSDOF 4
ENDMDL
