MODEL 1
REMARK VINA RESULT:    -9.292      0.000      0.000
REMARK INTER + INTRA:         -12.864
REMARK INTER:                 -11.380
REMARK INTRA:                  -1.484
REMARK CONF_INDEPENDENT:        2.088
REMARK UNBOUND:                -1.484
REMARK  7 active torsions:
REMARK  status: ('A' for Active; 'I' for Inactive)
REMARK    1  A    between atoms: C_2  and  O_3 
REMARK    2  A    between atoms: O_3  and  C_4 
REMARK       I    between atoms: C_4  and  N_6 
REMARK    3  A    between atoms: C_9  and  N_10 
REMARK       I    between atoms: N_10  and  C_11 
REMARK    4  A    between atoms: C_11  and  C_13 
REMARK    5  A    between atoms: C_13  and  S_14 
REMARK    6  A    between atoms: S_14  and  C_15 
REMARK    7  A    between atoms: N_25  and  C_26 
ROOT
ATOM      1  C   UNL d   1      26.208 -16.571  -1.239  0.00  0.00     0.177 A 
ATOM      2  N   UNL d   1      25.734 -17.515  -0.470  0.00  0.00    -0.222 NA
ATOM      3  C   UNL d   1      24.341 -17.597  -0.415  0.00  0.00     0.093 A 
ATOM      4  C   UNL d   1      23.545 -18.576   0.218  0.00  0.00     0.059 C 
ATOM      5  C   UNL d   1      22.234 -18.377  -0.211  0.00  0.00     0.008 C 
ATOM      6  C   UNL d   1      21.032 -19.281  -0.128  0.00  0.00     0.068 C 
ATOM      7  N   UNL d   1      22.223 -17.125  -0.818  0.00  0.00    -0.354 N 
ATOM      8  C   UNL d   1      23.522 -16.724  -1.066  0.00  0.00     0.131 A 
ATOM      9  C   UNL d   1      24.024 -15.637  -1.853  0.00  0.00     0.283 A 
ATOM     10  O   UNL d   1      23.265 -14.825  -2.395  0.00  0.00    -0.265 OA
ATOM     11  N   UNL d   1      25.429 -15.627  -1.957  0.00  0.00    -0.255 N 
ATOM     12  H   UNL d   1      21.398 -16.610  -1.108  0.00  0.00     0.166 HD
ENDROOT
BRANCH   1  13
ATOM     13  S   UNL d   1      27.976 -16.610  -1.450  0.00  0.00    -0.082 SA
BRANCH  13  14
ATOM     14  C   UNL d   1      28.750 -16.470   0.209  0.00  0.00     0.185 C 
BRANCH  14  15
ATOM     15  C   UNL d   1      28.141 -15.263   0.988  0.00  0.00     0.227 C 
ATOM     16  N   UNL d   1      28.839 -14.825   2.117  0.00  0.00    -0.356 N 
ATOM     17  H   UNL d   1      29.623 -15.364   2.460  0.00  0.00     0.162 HD
ATOM     18  O   UNL d   1      27.104 -14.698   0.644  0.00  0.00    -0.273 OA
BRANCH  16  19
ATOM     19  C   UNL d   1      28.394 -13.644   2.906  0.00  0.00     0.087 C 
ATOM     20  C   UNL d   1      29.578 -12.872   3.522  0.00  0.00     0.045 C 
ATOM     21  C   UNL d   1      30.209 -13.659   4.665  0.00  0.00     0.130 C 
ATOM     22  N   UNL d   1      29.237 -14.028   5.690  0.00  0.00    -0.328 N 
ATOM     23  C   UNL d   1      29.353 -13.558   6.994  0.00  0.00     0.362 C 
ATOM     24  C   UNL d   1      28.084 -14.767   5.198  0.00  0.00     0.130 C 
ATOM     25  O   UNL d   1      29.871 -12.481   7.277  0.00  0.00    -0.238 OA
ATOM     26  C   UNL d   1      27.405 -14.007   4.041  0.00  0.00     0.045 C 
BRANCH  23  27
ATOM     27  O   UNL d   1      28.906 -14.448   7.937  0.00  0.00    -0.304 OA
BRANCH  27  28
ATOM     28  C   UNL d   1      29.157 -14.078   9.317  0.00  0.00     0.176 C 
ATOM     29  C   UNL d   1      28.156 -13.022   9.781  0.00  0.00     0.034 C 
ENDBRANCH  27  28
ENDBRANCH  23  27
ENDBRANCH  16  19
ENDBRANCH  14  15
ENDBRANCH  13  14
ENDBRANCH   1  13
BRANCH  11  30
ATOM     30  C   UNL d   1      26.036 -14.621  -2.772  0.00  0.00     0.044 C 
ATOM     31  C   UNL d   1      26.462 -14.947  -4.065  0.00  0.00     0.030 C 
ATOM     32  C   UNL d   1      26.683 -13.928  -4.996  0.00  0.00     0.002 C 
ATOM     33  C   UNL d   1      26.763 -12.603  -4.574  0.00  0.00     0.000 C 
ATOM     34  C   UNL d   1      26.517 -12.286  -3.242  0.00  0.00     0.002 C 
ATOM     35  C   UNL d   1      26.078 -13.281  -2.364  0.00  0.00     0.030 C 
ENDBRANCH  11  30
TORSDOF 7
ENDMDL
MODEL 2
REMARK VINA RESULT:    -9.246      1.269      4.375
REMARK INTER + INTRA:         -12.491
REMARK INTER:                 -11.334
REMARK INTRA:                  -1.157
REMARK CONF_INDEPENDENT:        2.088
REMARK UNBOUND:                -1.157
REMARK  7 active torsions:
REMARK  status: ('A' for Active; 'I' for Inactive)
REMARK    1  A    between atoms: C_2  and  O_3 
REMARK    2  A    between atoms: O_3  and  C_4 
REMARK       I    between atoms: C_4  and  N_6 
REMARK    3  A    between atoms: C_9  and  N_10 
REMARK       I    between atoms: N_10  and  C_11 
REMARK    4  A    between atoms: C_11  and  C_13 
REMARK    5  A    between atoms: C_13  and  S_14 
REMARK    6  A    between atoms: S_14  and  C_15 
REMARK    7  A    between atoms: N_25  and  C_26 
ROOT
ATOM      1  C   UNL d   1      26.692 -15.589  -1.744  0.00  0.00     0.177 A 
ATOM      2  N   UNL d   1      27.568 -14.791  -2.296  0.00  0.00    -0.222 NA
ATOM      3  C   UNL d   1      27.032 -13.773  -3.087  0.00  0.00     0.093 A 
ATOM      4  C   UNL d   1      27.705 -12.695  -3.703  0.00  0.00     0.059 C 
ATOM      5  C   UNL d   1      26.729 -11.815  -4.168  0.00  0.00     0.008 C 
ATOM      6  C   UNL d   1      26.841 -10.381  -4.612  0.00  0.00     0.068 C 
ATOM      7  N   UNL d   1      25.530 -12.519  -4.108  0.00  0.00    -0.354 N 
ATOM      8  C   UNL d   1      25.696 -13.643  -3.323  0.00  0.00     0.131 A 
ATOM      9  C   UNL d   1      24.728 -14.554  -2.787  0.00  0.00     0.283 A 
ATOM     10  O   UNL d   1      23.524 -14.450  -3.054  0.00  0.00    -0.265 OA
ATOM     11  N   UNL d   1      25.287 -15.520  -1.928  0.00  0.00    -0.255 N 
ATOM     12  H   UNL d   1      24.646 -12.225  -4.510  0.00  0.00     0.166 HD
ENDROOT
BRANCH   1  13
ATOM     13  S   UNL d   1      27.382 -16.753  -0.585  0.00  0.00    -0.082 SA
BRANCH  13  14
ATOM     14  C   UNL d   1      28.569 -15.852   0.487  0.00  0.00     0.185 C 
BRANCH  14  15
ATOM     15  C   UNL d   1      27.809 -14.845   1.405  0.00  0.00     0.227 C 
ATOM     16  N   UNL d   1      28.210 -14.785   2.743  0.00  0.00    -0.356 N 
ATOM     17  H   UNL d   1      28.872 -15.464   3.096  0.00  0.00     0.162 HD
ATOM     18  O   UNL d   1      26.903 -14.118   0.998  0.00  0.00    -0.273 OA
BRANCH  16  19
ATOM     19  C   UNL d   1      27.607 -13.820   3.701  0.00  0.00     0.087 C 
ATOM     20  C   UNL d   1      28.501 -12.586   3.931  0.00  0.00     0.045 C 
ATOM     21  C   UNL d   1      29.735 -12.947   4.750  0.00  0.00     0.130 C 
ATOM     22  N   UNL d   1      29.393 -13.586   6.017  0.00  0.00    -0.328 N 
ATOM     23  C   UNL d   1      29.726 -12.997   7.233  0.00  0.00     0.362 C 
ATOM     24  C   UNL d   1      28.552 -14.768   5.898  0.00  0.00     0.130 C 
ATOM     25  O   UNL d   1      29.820 -11.782   7.388  0.00  0.00    -0.238 OA
ATOM     26  C   UNL d   1      27.285 -14.451   5.079  0.00  0.00     0.045 C 
BRANCH  23  27
ATOM     27  O   UNL d   1      30.019 -13.905   8.218  0.00  0.00    -0.304 OA
BRANCH  27  28
ATOM     28  C   UNL d   1      28.907 -14.289   9.067  0.00  0.00     0.176 C 
ATOM     29  C   UNL d   1      29.328 -14.294  10.536  0.00  0.00     0.034 C 
ENDBRANCH  27  28
ENDBRANCH  23  27
ENDBRANCH  16  19
ENDBRANCH  14  15
ENDBRANCH  13  14
ENDBRANCH   1  13
BRANCH  11  30
ATOM     30  C   UNL d   1      24.402 -16.443  -1.287  0.00  0.00     0.044 C 
ATOM     31  C   UNL d   1      23.179 -15.986  -0.783  0.00  0.00     0.030 C 
ATOM     32  C   UNL d   1      22.156 -16.901  -0.521  0.00  0.00     0.002 C 
ATOM     33  C   UNL d   1      22.433 -18.265  -0.480  0.00  0.00     0.000 C 
ATOM     34  C   UNL d   1      23.706 -18.720  -0.807  0.00  0.00     0.002 C 
ATOM     35  C   UNL d   1      24.662 -17.820  -1.285  0.00  0.00     0.030 C 
ENDBRANCH  11  30
TORSDOF 7
ENDMDL
MODEL 3
REMARK VINA RESULT:    -8.338      3.454      6.310
REMARK INTER + INTRA:         -13.023
REMARK INTER:                 -10.426
REMARK INTRA:                  -2.597
REMARK CONF_INDEPENDENT:        2.088
REMARK UNBOUND:                -2.597
REMARK  7 active torsions:
REMARK  status: ('A' for Active; 'I' for Inactive)
REMARK    1  A    between atoms: C_2  and  O_3 
REMARK    2  A    between atoms: O_3  and  C_4 
REMARK       I    between atoms: C_4  and  N_6 
REMARK    3  A    between atoms: C_9  and  N_10 
REMARK       I    between atoms: N_10  and  C_11 
REMARK    4  A    between atoms: C_11  and  C_13 
REMARK    5  A    between atoms: C_13  and  S_14 
REMARK    6  A    between atoms: S_14  and  C_15 
REMARK    7  A    between atoms: N_25  and  C_26 
ROOT
ATOM      1  C   UNL d   1      26.660 -14.257  -0.745  0.00  0.00     0.177 A 
ATOM      2  N   UNL d   1      27.204 -13.094  -0.993  0.00  0.00    -0.222 NA
ATOM      3  C   UNL d   1      26.713 -12.433  -2.120  0.00  0.00     0.093 A 
ATOM      4  C   UNL d   1      27.008 -11.127  -2.567  0.00  0.00     0.059 C 
ATOM      5  C   UNL d   1      26.096 -10.825  -3.577  0.00  0.00     0.008 C 
ATOM      6  C   UNL d   1      25.725  -9.501  -4.193  0.00  0.00     0.068 C 
ATOM      7  N   UNL d   1      25.504 -12.035  -3.923  0.00  0.00    -0.354 N 
ATOM      8  C   UNL d   1      25.773 -12.973  -2.945  0.00  0.00     0.131 A 
ATOM      9  C   UNL d   1      25.219 -14.278  -2.731  0.00  0.00     0.283 A 
ATOM     10  O   UNL d   1      24.405 -14.772  -3.520  0.00  0.00    -0.265 OA
ATOM     11  N   UNL d   1      25.672 -14.888  -1.545  0.00  0.00    -0.255 N 
ATOM     12  H   UNL d   1      24.903 -12.198  -4.724  0.00  0.00     0.166 HD
ENDROOT
BRANCH   1  13
ATOM     13  S   UNL d   1      27.157 -14.990   0.799  0.00  0.00    -0.082 SA
BRANCH  13  14
ATOM     14  C   UNL d   1      28.988 -15.123   0.803  0.00  0.00     0.185 C 
BRANCH  14  15
ATOM     15  C   UNL d   1      29.629 -13.719   1.027  0.00  0.00     0.227 C 
ATOM     16  N   UNL d   1      28.751 -12.644   1.193  0.00  0.00    -0.356 N 
ATOM     17  H   UNL d   1      27.760 -12.780   1.039  0.00  0.00     0.162 HD
ATOM     18  O   UNL d   1      30.845 -13.536   1.073  0.00  0.00    -0.273 OA
BRANCH  16  19
ATOM     19  C   UNL d   1      29.239 -11.267   1.477  0.00  0.00     0.087 C 
ATOM     20  C   UNL d   1      28.823 -10.777   2.879  0.00  0.00     0.045 C 
ATOM     21  C   UNL d   1      27.328 -10.483   2.935  0.00  0.00     0.130 C 
ATOM     22  N   UNL d   1      26.909  -9.536   1.906  0.00  0.00    -0.328 N 
ATOM     23  C   UNL d   1      26.366  -8.300   2.243  0.00  0.00     0.362 C 
ATOM     24  C   UNL d   1      27.256  -9.920   0.546  0.00  0.00     0.130 C 
ATOM     25  O   UNL d   1      26.656  -7.698   3.274  0.00  0.00    -0.238 OA
ATOM     26  C   UNL d   1      28.763 -10.225   0.436  0.00  0.00     0.045 C 
BRANCH  23  27
ATOM     27  O   UNL d   1      25.419  -7.859   1.355  0.00  0.00    -0.304 OA
BRANCH  27  28
ATOM     28  C   UNL d   1      25.879  -6.896   0.374  0.00  0.00     0.176 C 
ATOM     29  C   UNL d   1      25.533  -7.360  -1.040  0.00  0.00     0.034 C 
ENDBRANCH  27  28
ENDBRANCH  23  27
ENDBRANCH  16  19
ENDBRANCH  14  15
ENDBRANCH  13  14
ENDBRANCH   1  13
BRANCH  11  30
ATOM     30  C   UNL d   1      25.135 -16.168  -1.199  0.00  0.00     0.044 C 
ATOM     31  C   UNL d   1      26.006 -17.217  -0.883  0.00  0.00     0.030 C 
ATOM     32  C   UNL d   1      25.525 -18.323  -0.178  0.00  0.00     0.002 C 
ATOM     33  C   UNL d   1      24.153 -18.523  -0.044  0.00  0.00     0.000 C 
ATOM     34  C   UNL d   1      23.266 -17.564  -0.521  0.00  0.00     0.002 C 
ATOM     35  C   UNL d   1      23.757 -16.356  -1.024  0.00  0.00     0.030 C 
ENDBRANCH  11  30
TORSDOF 7
ENDMDL
MODEL 4
REMARK VINA RESULT:    -8.211      4.314      8.397
REMARK INTER + INTRA:         -12.379
REMARK INTER:                 -10.299
REMARK INTRA:                  -2.079
REMARK CONF_INDEPENDENT:        2.088
REMARK UNBOUND:                -2.079
REMARK  7 active torsions:
REMARK  status: ('A' for Active; 'I' for Inactive)
REMARK    1  A    between atoms: C_2  and  O_3 
REMARK    2  A    between atoms: O_3  and  C_4 
REMARK       I    between atoms: C_4  and  N_6 
REMARK    3  A    between atoms: C_9  and  N_10 
REMARK       I    between atoms: N_10  and  C_11 
REMARK    4  A    between atoms: C_11  and  C_13 
REMARK    5  A    between atoms: C_13  and  S_14 
REMARK    6  A    between atoms: S_14  and  C_15 
REMARK    7  A    between atoms: N_25  and  C_26 
ROOT
ATOM      1  C   UNL d   1      25.297 -15.752  -1.033  0.00  0.00     0.177 A 
ATOM      2  N   UNL d   1      24.018 -15.893  -1.264  0.00  0.00    -0.222 NA
ATOM      3  C   UNL d   1      23.477 -17.124  -0.889  0.00  0.00     0.093 A 
ATOM      4  C   UNL d   1      22.122 -17.524  -0.895  0.00  0.00     0.059 C 
ATOM      5  C   UNL d   1      22.050 -18.733  -0.206  0.00  0.00     0.008 C 
ATOM      6  C   UNL d   1      20.862 -19.458   0.370  0.00  0.00     0.068 C 
ATOM      7  N   UNL d   1      23.363 -19.177  -0.088  0.00  0.00    -0.354 N 
ATOM      8  C   UNL d   1      24.226 -18.137  -0.372  0.00  0.00     0.131 A 
ATOM      9  C   UNL d   1      25.643 -18.027  -0.182  0.00  0.00     0.283 A 
ATOM     10  O   UNL d   1      26.315 -18.975   0.242  0.00  0.00    -0.265 OA
ATOM     11  N   UNL d   1      26.149 -16.749  -0.491  0.00  0.00    -0.255 N 
ATOM     12  H   UNL d   1      23.655 -20.095   0.230  0.00  0.00     0.166 HD
ENDROOT
BRANCH   1  13
ATOM     13  S   UNL d   1      25.925 -14.113  -1.334  0.00  0.00    -0.082 SA
BRANCH  13  14
ATOM     14  C   UNL d   1      25.290 -13.550  -2.962  0.00  0.00     0.185 C 
BRANCH  14  15
ATOM     15  C   UNL d   1      25.902 -14.415  -4.107  0.00  0.00     0.227 C 
ATOM     16  N   UNL d   1      27.280 -14.648  -4.052  0.00  0.00    -0.356 N 
ATOM     17  H   UNL d   1      27.843 -14.160  -3.368  0.00  0.00     0.162 HD
ATOM     18  O   UNL d   1      25.230 -14.892  -5.020  0.00  0.00    -0.273 OA
BRANCH  16  19
ATOM     19  C   UNL d   1      27.970 -15.510  -5.050  0.00  0.00     0.087 C 
ATOM     20  C   UNL d   1      29.352 -15.985  -4.556  0.00  0.00     0.045 C 
ATOM     21  C   UNL d   1      30.354 -14.837  -4.545  0.00  0.00     0.130 C 
ATOM     22  N   UNL d   1      30.462 -14.181  -5.844  0.00  0.00    -0.328 N 
ATOM     23  C   UNL d   1      31.660 -14.180  -6.553  0.00  0.00     0.362 C 
ATOM     24  C   UNL d   1      29.204 -13.693  -6.388  0.00  0.00     0.130 C 
ATOM     25  O   UNL d   1      32.492 -15.079  -6.467  0.00  0.00    -0.238 OA
ATOM     26  C   UNL d   1      28.155 -14.822  -6.425  0.00  0.00     0.045 C 
BRANCH  23  27
ATOM     27  O   UNL d   1      31.857 -13.041  -7.292  0.00  0.00    -0.304 OA
BRANCH  27  28
ATOM     28  C   UNL d   1      31.953 -13.233  -8.726  0.00  0.00     0.176 C 
ATOM     29  C   UNL d   1      30.772 -12.575  -9.437  0.00  0.00     0.034 C 
ENDBRANCH  27  28
ENDBRANCH  23  27
ENDBRANCH  16  19
ENDBRANCH  14  15
ENDBRANCH  13  14
ENDBRANCH   1  13
BRANCH  11  30
ATOM     30  C   UNL d   1      27.543 -16.508  -0.278  0.00  0.00     0.044 C 
ATOM     31  C   UNL d   1      28.483 -17.136  -1.103  0.00  0.00     0.030 C 
ATOM     32  C   UNL d   1      29.783 -16.628  -1.177  0.00  0.00     0.002 C 
ATOM     33  C   UNL d   1      30.224 -15.700  -0.236  0.00  0.00     0.000 C 
ATOM     34  C   UNL d   1      29.335 -15.201   0.711  0.00  0.00     0.002 C 
ATOM     35  C   UNL d   1      27.983 -15.544   0.639  0.00  0.00     0.030 C 
ENDBRANCH  11  30
TORSDOF 7
ENDMDL
MODEL 5
REMARK VINA RESULT:    -7.916      2.336      5.439
REMARK INTER + INTRA:         -13.060
REMARK INTER:                 -10.004
REMARK INTRA:                  -3.057
REMARK CONF_INDEPENDENT:        2.088
REMARK UNBOUND:                -3.057
REMARK  7 active torsions:
REMARK  status: ('A' for Active; 'I' for Inactive)
REMARK    1  A    between atoms: C_2  and  O_3 
REMARK    2  A    between atoms: O_3  and  C_4 
REMARK       I    between atoms: C_4  and  N_6 
REMARK    3  A    between atoms: C_9  and  N_10 
REMARK       I    between atoms: N_10  and  C_11 
REMARK    4  A    between atoms: C_11  and  C_13 
REMARK    5  A    between atoms: C_13  and  S_14 
REMARK    6  A    between atoms: S_14  and  C_15 
REMARK    7  A    between atoms: N_25  and  C_26 
ROOT
ATOM      1  C   UNL d   1      26.527 -16.174  -2.083  0.00  0.00     0.177 A 
ATOM      2  N   UNL d   1      27.729 -15.841  -2.472  0.00  0.00    -0.222 NA
ATOM      3  C   UNL d   1      28.772 -16.422  -1.749  0.00  0.00     0.093 A 
ATOM      4  C   UNL d   1      30.159 -16.357  -2.005  0.00  0.00     0.059 C 
ATOM      5  C   UNL d   1      30.774 -17.289  -1.171  0.00  0.00     0.008 C 
ATOM      6  C   UNL d   1      32.159 -17.880  -1.221  0.00  0.00     0.068 C 
ATOM      7  N   UNL d   1      29.809 -17.650  -0.236  0.00  0.00    -0.354 N 
ATOM      8  C   UNL d   1      28.567 -17.235  -0.675  0.00  0.00     0.131 A 
ATOM      9  C   UNL d   1      27.256 -17.551  -0.188  0.00  0.00     0.283 A 
ATOM     10  O   UNL d   1      27.091 -18.250   0.819  0.00  0.00    -0.265 OA
ATOM     11  N   UNL d   1      26.223 -17.019  -0.984  0.00  0.00    -0.255 N 
ATOM     12  H   UNL d   1      29.968 -18.198   0.603  0.00  0.00     0.166 HD
ENDROOT
BRANCH   1  13
ATOM     13  S   UNL d   1      25.220 -15.582  -3.138  0.00  0.00    -0.082 SA
BRANCH  13  14
ATOM     14  C   UNL d   1      25.766 -13.997  -3.886  0.00  0.00     0.185 C 
BRANCH  14  15
ATOM     15  C   UNL d   1      26.101 -12.961  -2.768  0.00  0.00     0.227 C 
ATOM     16  N   UNL d   1      27.092 -13.324  -1.850  0.00  0.00    -0.356 N 
ATOM     17  H   UNL d   1      27.459 -14.266  -1.858  0.00  0.00     0.162 HD
ATOM     18  O   UNL d   1      25.546 -11.867  -2.679  0.00  0.00    -0.273 OA
BRANCH  16  19
ATOM     19  C   UNL d   1      27.545 -12.397  -0.778  0.00  0.00     0.087 C 
ATOM     20  C   UNL d   1      29.019 -12.629  -0.388  0.00  0.00     0.045 C 
ATOM     21  C   UNL d   1      29.183 -13.934   0.383  0.00  0.00     0.130 C 
ATOM     22  N   UNL d   1      28.316 -13.999   1.556  0.00  0.00    -0.328 N 
ATOM     23  C   UNL d   1      28.848 -14.090   2.839  0.00  0.00     0.362 C 
ATOM     24  C   UNL d   1      26.902 -13.796   1.282  0.00  0.00     0.130 C 
ATOM     25  O   UNL d   1      29.939 -13.619   3.149  0.00  0.00    -0.238 OA
ATOM     26  C   UNL d   1      26.683 -12.482   0.506  0.00  0.00     0.045 C 
BRANCH  23  27
ATOM     27  O   UNL d   1      28.074 -14.825   3.700  0.00  0.00    -0.304 OA
BRANCH  27  28
ATOM     28  C   UNL d   1      28.469 -14.777   5.095  0.00  0.00     0.176 C 
ATOM     29  C   UNL d   1      27.783 -13.613   5.808  0.00  0.00     0.034 C 
ENDBRANCH  27  28
ENDBRANCH  23  27
ENDBRANCH  16  19
ENDBRANCH  14  15
ENDBRANCH  13  14
ENDBRANCH   1  13
BRANCH  11  30
ATOM     30  C   UNL d   1      24.872 -17.325  -0.626  0.00  0.00     0.044 C 
ATOM     31  C   UNL d   1      23.935 -16.290  -0.527  0.00  0.00     0.030 C 
ATOM     32  C   UNL d   1      22.571 -16.589  -0.571  0.00  0.00     0.002 C 
ATOM     33  C   UNL d   1      22.139 -17.904  -0.424  0.00  0.00     0.000 C 
ATOM     34  C   UNL d   1      23.073 -18.932  -0.339  0.00  0.00     0.002 C 
ATOM     35  C   UNL d   1      24.430 -18.651  -0.520  0.00  0.00     0.030 C 
ENDBRANCH  11  30
TORSDOF 7
ENDMDL
MODEL 6
REMARK VINA RESULT:    -7.848      4.275      8.955
REMARK INTER + INTRA:         -12.481
REMARK INTER:                  -9.936
REMARK INTRA:                  -2.545
REMARK CONF_INDEPENDENT:        2.088
REMARK UNBOUND:                -2.545
REMARK  7 active torsions:
REMARK  status: ('A' for Active; 'I' for Inactive)
REMARK    1  A    between atoms: C_2  and  O_3 
REMARK    2  A    between atoms: O_3  and  C_4 
REMARK       I    between atoms: C_4  and  N_6 
REMARK    3  A    between atoms: C_9  and  N_10 
REMARK       I    between atoms: N_10  and  C_11 
REMARK    4  A    between atoms: C_11  and  C_13 
REMARK    5  A    between atoms: C_13  and  S_14 
REMARK    6  A    between atoms: S_14  and  C_15 
REMARK    7  A    between atoms: N_25  and  C_26 
ROOT
ATOM      1  C   UNL d   1      25.882 -14.945  -1.599  0.00  0.00     0.177 A 
ATOM      2  N   UNL d   1      26.930 -14.164  -1.623  0.00  0.00    -0.222 NA
ATOM      3  C   UNL d   1      27.995 -14.570  -0.816  0.00  0.00     0.093 A 
ATOM      4  C   UNL d   1      29.289 -14.013  -0.728  0.00  0.00     0.059 C 
ATOM      5  C   UNL d   1      30.068 -14.902   0.012  0.00  0.00     0.008 C 
ATOM      6  C   UNL d   1      31.563 -14.999   0.161  0.00  0.00     0.068 C 
ATOM      7  N   UNL d   1      29.169 -15.784   0.605  0.00  0.00    -0.354 N 
ATOM      8  C   UNL d   1      27.939 -15.668  -0.012  0.00  0.00     0.131 A 
ATOM      9  C   UNL d   1      26.771 -16.494   0.083  0.00  0.00     0.283 A 
ATOM     10  O   UNL d   1      26.721 -17.457   0.857  0.00  0.00    -0.265 OA
ATOM     11  N   UNL d   1      25.743 -16.109  -0.800  0.00  0.00    -0.255 N 
ATOM     12  H   UNL d   1      29.389 -16.464   1.325  0.00  0.00     0.166 HD
ENDROOT
BRANCH   1  13
ATOM     13  S   UNL d   1      24.618 -14.519  -2.779  0.00  0.00    -0.082 SA
BRANCH  13  14
ATOM     14  C   UNL d   1      25.440 -13.831  -4.270  0.00  0.00     0.185 C 
BRANCH  14  15
ATOM     15  C   UNL d   1      26.507 -14.834  -4.808  0.00  0.00     0.227 C 
ATOM     16  N   UNL d   1      27.731 -14.874  -4.134  0.00  0.00    -0.356 N 
ATOM     17  H   UNL d   1      27.932 -14.184  -3.422  0.00  0.00     0.162 HD
ATOM     18  O   UNL d   1      26.305 -15.575  -5.770  0.00  0.00    -0.273 OA
BRANCH  16  19
ATOM     19  C   UNL d   1      28.804 -15.833  -4.512  0.00  0.00     0.087 C 
ATOM     20  C   UNL d   1      30.076 -15.653  -3.659  0.00  0.00     0.045 C 
ATOM     21  C   UNL d   1      30.807 -14.368  -4.029  0.00  0.00     0.130 C 
ATOM     22  N   UNL d   1      31.120 -14.297  -5.454  0.00  0.00    -0.328 N 
ATOM     23  C   UNL d   1      32.437 -14.246  -5.900  0.00  0.00     0.362 C 
ATOM     24  C   UNL d   1      29.975 -14.451  -6.338  0.00  0.00     0.130 C 
ATOM     25  O   UNL d   1      33.373 -14.755  -5.290  0.00  0.00    -0.238 OA
ATOM     26  C   UNL d   1      29.203 -15.744  -6.006  0.00  0.00     0.045 C 
BRANCH  23  27
ATOM     27  O   UNL d   1      32.598 -13.502  -7.041  0.00  0.00    -0.304 OA
BRANCH  27  28
ATOM     28  C   UNL d   1      32.713 -14.260  -8.272  0.00  0.00     0.176 C 
ATOM     29  C   UNL d   1      32.569 -15.757  -7.998  0.00  0.00     0.034 C 
ENDBRANCH  27  28
ENDBRANCH  23  27
ENDBRANCH  16  19
ENDBRANCH  14  15
ENDBRANCH  13  14
ENDBRANCH   1  13
BRANCH  11  30
ATOM     30  C   UNL d   1      24.553 -16.903  -0.834  0.00  0.00     0.044 C 
ATOM     31  C   UNL d   1      24.658 -18.297  -0.894  0.00  0.00     0.030 C 
ATOM     32  C   UNL d   1      23.562 -19.086  -0.536  0.00  0.00     0.002 C 
ATOM     33  C   UNL d   1      22.301 -18.511  -0.401  0.00  0.00     0.000 C 
ATOM     34  C   UNL d   1      22.155 -17.132  -0.520  0.00  0.00     0.002 C 
ATOM     35  C   UNL d   1      23.288 -16.325  -0.656  0.00  0.00     0.030 C 
ENDBRANCH  11  30
TORSDOF 7
ENDMDL
MODEL 7
REMARK VINA RESULT:    -7.668      4.874      8.893
REMARK INTER + INTRA:         -12.397
REMARK INTER:                  -9.756
REMARK INTRA:                  -2.640
REMARK CONF_INDEPENDENT:        2.088
REMARK UNBOUND:                -2.640
REMARK  7 active torsions:
REMARK  status: ('A' for Active; 'I' for Inactive)
REMARK    1  A    between atoms: C_2  and  O_3 
REMARK    2  A    between atoms: O_3  and  C_4 
REMARK       I    between atoms: C_4  and  N_6 
REMARK    3  A    between atoms: C_9  and  N_10 
REMARK       I    between atoms: N_10  and  C_11 
REMARK    4  A    between atoms: C_11  and  C_13 
REMARK    5  A    between atoms: C_13  and  S_14 
REMARK    6  A    between atoms: S_14  and  C_15 
REMARK    7  A    between atoms: N_25  and  C_26 
ROOT
ATOM      1  C   UNL d   1      26.392 -15.808  -2.231  0.00  0.00     0.177 A 
ATOM      2  N   UNL d   1      27.602 -15.370  -2.464  0.00  0.00    -0.222 NA
ATOM      3  C   UNL d   1      28.607 -15.954  -1.692  0.00  0.00     0.093 A 
ATOM      4  C   UNL d   1      30.005 -15.784  -1.798  0.00  0.00     0.059 C 
ATOM      5  C   UNL d   1      30.598 -16.753  -0.991  0.00  0.00     0.008 C 
ATOM      6  C   UNL d   1      32.018 -17.253  -0.950  0.00  0.00     0.068 C 
ATOM      7  N   UNL d   1      29.574 -17.256  -0.195  0.00  0.00    -0.354 N 
ATOM      8  C   UNL d   1      28.355 -16.876  -0.720  0.00  0.00     0.131 A 
ATOM      9  C   UNL d   1      27.028 -17.313  -0.400  0.00  0.00     0.283 A 
ATOM     10  O   UNL d   1      26.814 -18.112   0.519  0.00  0.00    -0.265 OA
ATOM     11  N   UNL d   1      26.042 -16.769  -1.248  0.00  0.00    -0.255 N 
ATOM     12  H   UNL d   1      29.688 -17.870   0.605  0.00  0.00     0.166 HD
ENDROOT
BRANCH   1  13
ATOM     13  S   UNL d   1      25.156 -15.197  -3.358  0.00  0.00    -0.082 SA
BRANCH  13  14
ATOM     14  C   UNL d   1      25.225 -13.363  -3.338  0.00  0.00     0.185 C 
BRANCH  14  15
ATOM     15  C   UNL d   1      26.259 -12.851  -4.389  0.00  0.00     0.227 C 
ATOM     16  N   UNL d   1      27.560 -13.354  -4.289  0.00  0.00    -0.356 N 
ATOM     17  H   UNL d   1      27.818 -13.916  -3.489  0.00  0.00     0.162 HD
ATOM     18  O   UNL d   1      25.970 -12.053  -5.279  0.00  0.00    -0.273 OA
BRANCH  16  19
ATOM     19  C   UNL d   1      28.618 -12.991  -5.270  0.00  0.00     0.087 C 
ATOM     20  C   UNL d   1      28.447 -13.726  -6.615  0.00  0.00     0.045 C 
ATOM     21  C   UNL d   1      28.788 -15.205  -6.479  0.00  0.00     0.130 C 
ATOM     22  N   UNL d   1      30.126 -15.419  -5.935  0.00  0.00    -0.328 N 
ATOM     23  C   UNL d   1      31.109 -16.067  -6.676  0.00  0.00     0.362 C 
ATOM     24  C   UNL d   1      30.378 -14.765  -4.659  0.00  0.00     0.130 C 
ATOM     25  O   UNL d   1      31.155 -16.037  -7.903  0.00  0.00    -0.238 OA
ATOM     26  C   UNL d   1      30.051 -13.260  -4.748  0.00  0.00     0.045 C 
BRANCH  23  27
ATOM     27  O   UNL d   1      31.971 -16.809  -5.909  0.00  0.00    -0.304 OA
BRANCH  27  28
ATOM     28  C   UNL d   1      31.766 -18.244  -5.945  0.00  0.00     0.176 C 
ATOM     29  C   UNL d   1      30.466 -18.620  -5.234  0.00  0.00     0.034 C 
ENDBRANCH  27  28
ENDBRANCH  23  27
ENDBRANCH  16  19
ENDBRANCH  14  15
ENDBRANCH  13  14
ENDBRANCH   1  13
BRANCH  11  30
ATOM     30  C   UNL d   1      24.687 -17.187  -1.058  0.00  0.00     0.044 C 
ATOM     31  C   UNL d   1      24.403 -18.548  -0.898  0.00  0.00     0.030 C 
ATOM     32  C   UNL d   1      23.187 -18.936  -0.331  0.00  0.00     0.002 C 
ATOM     33  C   UNL d   1      22.154 -18.012  -0.194  0.00  0.00     0.000 C 
ATOM     34  C   UNL d   1      22.373 -16.678  -0.525  0.00  0.00     0.002 C 
ATOM     35  C   UNL d   1      23.657 -16.255  -0.879  0.00  0.00     0.030 C 
ENDBRANCH  11  30
TORSDOF 7
ENDMDL
MODEL 8
REMARK VINA RESULT:    -7.247      4.433      8.556
REMARK INTER + INTRA:         -12.904
REMARK INTER:                  -9.335
REMARK INTRA:                  -3.569
REMARK CONF_INDEPENDENT:        2.088
REMARK UNBOUND:                -3.569
REMARK  7 active torsions:
REMARK  status: ('A' for Active; 'I' for Inactive)
REMARK    1  A    between atoms: C_2  and  O_3 
REMARK    2  A    between atoms: O_3  and  C_4 
REMARK       I    between atoms: C_4  and  N_6 
REMARK    3  A    between atoms: C_9  and  N_10 
REMARK       I    between atoms: N_10  and  C_11 
REMARK    4  A    between atoms: C_11  and  C_13 
REMARK    5  A    between atoms: C_13  and  S_14 
REMARK    6  A    between atoms: S_14  and  C_15 
REMARK    7  A    between atoms: N_25  and  C_26 
ROOT
ATOM      1  C   UNL d   1      26.620 -14.041  -1.063  0.00  0.00     0.177 A 
ATOM      2  N   UNL d   1      27.207 -12.899  -1.310  0.00  0.00    -0.222 NA
ATOM      3  C   UNL d   1      26.731 -12.212  -2.428  0.00  0.00     0.093 A 
ATOM      4  C   UNL d   1      27.073 -10.916  -2.871  0.00  0.00     0.059 C 
ATOM      5  C   UNL d   1      26.163 -10.572  -3.869  0.00  0.00     0.008 C 
ATOM      6  C   UNL d   1      25.838  -9.231  -4.473  0.00  0.00     0.068 C 
ATOM      7  N   UNL d   1      25.520 -11.756  -4.215  0.00  0.00    -0.354 N 
ATOM      8  C   UNL d   1      25.762 -12.710  -3.246  0.00  0.00     0.131 A 
ATOM      9  C   UNL d   1      25.160 -13.993  -3.034  0.00  0.00     0.283 A 
ATOM     10  O   UNL d   1      24.318 -14.450  -3.817  0.00  0.00    -0.265 OA
ATOM     11  N   UNL d   1      25.600 -14.628  -1.856  0.00  0.00    -0.255 N 
ATOM     12  H   UNL d   1      24.905 -11.889  -5.011  0.00  0.00     0.166 HD
ENDROOT
BRANCH   1  13
ATOM     13  S   UNL d   1      27.104 -14.804   0.472  0.00  0.00    -0.082 SA
BRANCH  13  14
ATOM     14  C   UNL d   1      28.881 -15.245   0.352  0.00  0.00     0.185 C 
BRANCH  14  15
ATOM     15  C   UNL d   1      29.167 -15.971  -0.999  0.00  0.00     0.227 C 
ATOM     16  N   UNL d   1      29.042 -15.207  -2.163  0.00  0.00    -0.356 N 
ATOM     17  H   UNL d   1      28.659 -14.273  -2.109  0.00  0.00     0.162 HD
ATOM     18  O   UNL d   1      29.497 -17.154  -1.067  0.00  0.00    -0.273 OA
BRANCH  16  19
ATOM     19  C   UNL d   1      29.349 -15.768  -3.507  0.00  0.00     0.087 C 
ATOM     20  C   UNL d   1      30.511 -15.027  -4.199  0.00  0.00     0.045 C 
ATOM     21  C   UNL d   1      30.083 -13.635  -4.648  0.00  0.00     0.130 C 
ATOM     22  N   UNL d   1      28.901 -13.667  -5.505  0.00  0.00    -0.328 N 
ATOM     23  C   UNL d   1      28.954 -13.218  -6.821  0.00  0.00     0.362 C 
ATOM     24  C   UNL d   1      27.749 -14.344  -4.930  0.00  0.00     0.130 C 
ATOM     25  O   UNL d   1      29.971 -13.269  -7.508  0.00  0.00    -0.238 OA
ATOM     26  C   UNL d   1      28.131 -15.763  -4.462  0.00  0.00     0.045 C 
BRANCH  23  27
ATOM     27  O   UNL d   1      27.785 -12.641  -7.248  0.00  0.00    -0.304 OA
BRANCH  27  28
ATOM     28  C   UNL d   1      27.625 -11.237  -6.924  0.00  0.00     0.176 C 
ATOM     29  C   UNL d   1      26.310 -10.701  -7.488  0.00  0.00     0.034 C 
ENDBRANCH  27  28
ENDBRANCH  23  27
ENDBRANCH  16  19
ENDBRANCH  14  15
ENDBRANCH  13  14
ENDBRANCH   1  13
BRANCH  11  30
ATOM     30  C   UNL d   1      25.016 -15.888  -1.513  0.00  0.00     0.044 C 
ATOM     31  C   UNL d   1      25.847 -16.987  -1.267  0.00  0.00     0.030 C 
ATOM     32  C   UNL d   1      25.347 -18.085  -0.564  0.00  0.00     0.002 C 
ATOM     33  C   UNL d   1      23.976 -18.220  -0.363  0.00  0.00     0.000 C 
ATOM     34  C   UNL d   1      23.115 -17.205  -0.770  0.00  0.00     0.002 C 
ATOM     35  C   UNL d   1      23.641 -16.011  -1.270  0.00  0.00     0.030 C 
ENDBRANCH  11  30
TORSDOF 7
ENDMDL
