MODEL 1
REMARK VINA RESULT:   -30.760      0.000      0.000
REMARK INTER + INTRA:         -35.573
REMARK INTER:                 -33.146
REMARK INTRA:                  -2.426
REMARK CONF_INDEPENDENT:        2.386
REMARK UNBOUND:                -2.426
REMARK  8 active torsions:
REMARK  status: ('A' for Active; 'I' for Inactive)
REMARK    1  A    between atoms: C_2  and  C_3 
REMARK    2  A    between atoms: C_2  and  C_27 
REMARK    3  A    between atoms: N_4  and  N_5 
REMARK       I    between atoms: N_5  and  C_6 
REMARK    4  A    between atoms: C_6  and  C_8 
REMARK    5  A    between atoms: N_11  and  C_12 
REMARK    6  A    between atoms: C_16  and  N_17 
REMARK    7  A    between atoms: C_18  and  C_19 
REMARK    8  A    between atoms: C_19  and  N_20 
ROOT
ATOM      1  C   UNL d   1      25.561 -17.343   0.031  0.00  0.00     0.170 C 
ATOM      2  N   UNL d   1      25.328 -18.570   0.621  0.00  0.00    -0.152 NA
ATOM      3  N   UNL d   1      24.023 -18.840   0.616  0.00  0.00     0.012 NA
ATOM      4  N   UNL d   1      23.377 -17.927  -0.134  0.00  0.00    -0.215 N 
ATOM      5  C   UNL d   1      24.335 -17.040  -0.659  0.00  0.00     0.096 C 
ENDROOT
BRANCH   1   6
ATOM      6  C   UNL d   1      27.040 -16.741   0.017  0.00  0.00     0.293 C 
ATOM      7  N   UNL d   1      27.347 -15.211   0.139  0.00  0.00    -0.242 N 
ATOM      8  H   UNL d   1      26.566 -14.586   0.300  0.00  0.00     0.192 HD
ATOM      9  O   UNL d   1      27.942 -17.606  -0.234  0.00  0.00    -0.264 OA
BRANCH   7  10
ATOM     10  N   UNL d   1      28.647 -14.440  -0.425  0.00  0.00    -0.188 NA
ATOM     11  C   UNL d   1      28.645 -13.428  -1.326  0.00  0.00     0.120 C 
BRANCH  11  12
ATOM     12  C   UNL d   1      29.857 -13.081  -2.378  0.00  0.00     0.057 C 
ATOM     13  C   UNL d   1      29.561 -11.652  -2.731  0.00  0.00     0.020 C 
BRANCH  12  14
ATOM     14  C   UNL d   1      29.820 -14.064  -3.551  0.00  0.00    -0.049 A 
ATOM     15  C   UNL d   1      30.286 -15.344  -3.249  0.00  0.00     0.008 A 
ATOM     16  C   UNL d   1      30.419 -16.319  -4.217  0.00  0.00     0.001 A 
ATOM     17  C   UNL d   1      29.983 -16.067  -5.509  0.00  0.00     0.000 A 
ATOM     18  C   UNL d   1      29.510 -14.799  -5.855  0.00  0.00     0.001 A 
ATOM     19  C   UNL d   1      29.447 -13.780  -4.886  0.00  0.00     0.008 A 
ENDBRANCH  12  14
ENDBRANCH  11  12
ENDBRANCH   7  10
ENDBRANCH   1   6
BRANCH   5  20
ATOM     20  C   UNL d   1      23.822 -15.987  -1.585  0.00  0.00     0.296 C 
BRANCH  20  21
ATOM     21  N   UNL d   1      24.867 -15.171  -2.215  0.00  0.00    -0.066 N 
ATOM     22  C   UNL d   1      24.321 -14.082  -3.133  0.00  0.00     0.235 C 
ATOM     23  C   UNL d   1      25.402 -13.104  -3.612  0.00  0.00     0.028 C 
ATOM     24  C   UNL d   1      25.927 -13.384  -4.990  0.00  0.00     0.002 C 
ATOM     25  C   UNL d   1      26.256 -14.818  -5.062  0.00  0.00     0.002 C 
ATOM     26  C   UNL d   1      26.681 -15.520  -3.699  0.00  0.00     0.028 C 
ATOM     27  C   UNL d   1      25.752 -16.147  -2.746  0.00  0.00     0.235 C 
ATOM     28  H   UNL d   1      25.426 -14.709  -1.486  0.00  0.00     0.280 HD
ENDBRANCH  20  21
ENDBRANCH   5  20
BRANCH   4  29
ATOM     29  C   UNL d   1      21.963 -17.889  -0.368  0.00  0.00     0.225 A 
ATOM     30  N   UNL d   1      21.412 -16.834  -0.973  0.00  0.00    -0.081 NA
ATOM     31  O   UNL d   1      20.105 -17.255  -1.270  0.00  0.00    -0.103 OA
ATOM     32  N   UNL d   1      19.905 -18.583  -0.895  0.00  0.00    -0.083 NA
ATOM     33  C   UNL d   1      21.043 -18.957  -0.319  0.00  0.00     0.201 A 
BRANCH  33  34
ATOM     34  N   UNL d   1      21.288 -20.194   0.165  0.00  0.00    -0.379 N 
ATOM     35  H   UNL d   1      20.691 -20.547   0.912  0.00  0.00     0.158 HD
ATOM     36  H   UNL d   1      22.225 -20.586   0.193  0.00  0.00     0.158 HD
ENDBRANCH  33  34
ENDBRANCH   4  29
TORSDOF 8
ENDMDL
MODEL 2
REMARK VINA RESULT:   -30.739      3.004      4.468
REMARK INTER + INTRA:         -34.571
REMARK INTER:                 -33.126
REMARK INTRA:                  -1.445
REMARK CONF_INDEPENDENT:        2.386
REMARK UNBOUND:                -1.445
REMARK  8 active torsions:
REMARK  status: ('A' for Active; 'I' for Inactive)
REMARK    1  A    between atoms: C_2  and  C_3 
REMARK    2  A    between atoms: C_2  and  C_27 
REMARK    3  A    between atoms: N_4  and  N_5 
REMARK       I    between atoms: N_5  and  C_6 
REMARK    4  A    between atoms: C_6  and  C_8 
REMARK    5  A    between atoms: N_11  and  C_12 
REMARK    6  A    between atoms: C_16  and  N_17 
REMARK    7  A    between atoms: C_18  and  C_19 
REMARK    8  A    between atoms: C_19  and  N_20 
ROOT
ATOM      1  C   UNL d   1      25.547 -17.357   0.030  0.00  0.00     0.170 C 
ATOM      2  N   UNL d   1      25.309 -18.564   0.656  0.00  0.00    -0.152 NA
ATOM      3  N   UNL d   1      24.003 -18.831   0.652  0.00  0.00     0.012 NA
ATOM      4  N   UNL d   1      23.364 -17.941  -0.129  0.00  0.00    -0.215 N 
ATOM      5  C   UNL d   1      24.327 -17.073  -0.676  0.00  0.00     0.096 C 
ENDROOT
BRANCH   1   6
ATOM      6  C   UNL d   1      27.028 -16.758   0.006  0.00  0.00     0.293 C 
ATOM      7  N   UNL d   1      27.623 -15.886   1.162  0.00  0.00    -0.242 N 
ATOM      8  H   UNL d   1      27.056 -15.755   1.991  0.00  0.00     0.192 HD
ATOM      9  O   UNL d   1      27.637 -16.945  -1.099  0.00  0.00    -0.264 OA
BRANCH   7  10
ATOM     10  N   UNL d   1      28.791 -14.781   1.033  0.00  0.00    -0.188 NA
ATOM     11  C   UNL d   1      29.992 -14.815   1.657  0.00  0.00     0.120 C 
BRANCH  11  12
ATOM     12  C   UNL d   1      30.887 -13.506   2.083  0.00  0.00     0.057 C 
ATOM     13  C   UNL d   1      32.258 -14.102   2.230  0.00  0.00     0.020 C 
BRANCH  12  14
ATOM     14  C   UNL d   1      30.310 -12.877   3.354  0.00  0.00    -0.049 A 
ATOM     15  C   UNL d   1      29.536 -13.742   4.128  0.00  0.00     0.008 A 
ATOM     16  C   UNL d   1      28.856 -13.308   5.248  0.00  0.00     0.001 A 
ATOM     17  C   UNL d   1      29.021 -12.003   5.688  0.00  0.00     0.000 A 
ATOM     18  C   UNL d   1      29.787 -11.103   4.943  0.00  0.00     0.001 A 
ATOM     19  C   UNL d   1      30.417 -11.525   3.757  0.00  0.00     0.008 A 
ENDBRANCH  12  14
ENDBRANCH  11  12
ENDBRANCH   7  10
ENDBRANCH   1   6
BRANCH   5  20
ATOM     20  C   UNL d   1      23.821 -16.048  -1.637  0.00  0.00     0.296 C 
BRANCH  20  21
ATOM     21  N   UNL d   1      24.869 -15.225  -2.254  0.00  0.00    -0.066 N 
ATOM     22  C   UNL d   1      24.325 -14.058  -3.073  0.00  0.00     0.235 C 
ATOM     23  C   UNL d   1      25.421 -13.085  -3.529  0.00  0.00     0.028 C 
ATOM     24  C   UNL d   1      25.882 -13.286  -4.943  0.00  0.00     0.002 C 
ATOM     25  C   UNL d   1      26.156 -14.722  -5.126  0.00  0.00     0.002 C 
ATOM     26  C   UNL d   1      26.609 -15.530  -3.832  0.00  0.00     0.028 C 
ATOM     27  C   UNL d   1      25.697 -16.190  -2.886  0.00  0.00     0.235 C 
ATOM     28  H   UNL d   1      25.472 -14.832  -1.520  0.00  0.00     0.280 HD
ENDBRANCH  20  21
ENDBRANCH   5  20
BRANCH   4  29
ATOM     29  C   UNL d   1      21.950 -17.907  -0.373  0.00  0.00     0.225 A 
ATOM     30  N   UNL d   1      21.396 -16.840  -0.953  0.00  0.00    -0.081 NA
ATOM     31  O   UNL d   1      20.094 -17.264  -1.271  0.00  0.00    -0.103 OA
ATOM     32  N   UNL d   1      19.902 -18.602  -0.934  0.00  0.00    -0.083 NA
ATOM     33  C   UNL d   1      21.038 -18.983  -0.360  0.00  0.00     0.201 A 
BRANCH  33  34
ATOM     34  N   UNL d   1      21.290 -20.231   0.093  0.00  0.00    -0.379 N 
ATOM     35  H   UNL d   1      20.499 -20.816   0.360  0.00  0.00     0.158 HD
ATOM     36  H   UNL d   1      22.138 -20.458   0.604  0.00  0.00     0.158 HD
ENDBRANCH  33  34
ENDBRANCH   4  29
TORSDOF 8
ENDMDL
MODEL 3
REMARK VINA RESULT:   -30.642      2.613      3.600
REMARK INTER + INTRA:         -34.417
REMARK INTER:                 -33.028
REMARK INTRA:                  -1.389
REMARK CONF_INDEPENDENT:        2.386
REMARK UNBOUND:                -1.389
REMARK  8 active torsions:
REMARK  status: ('A' for Active; 'I' for Inactive)
REMARK    1  A    between atoms: C_2  and  C_3 
REMARK    2  A    between atoms: C_2  and  C_27 
REMARK    3  A    between atoms: N_4  and  N_5 
REMARK       I    between atoms: N_5  and  C_6 
REMARK    4  A    between atoms: C_6  and  C_8 
REMARK    5  A    between atoms: N_11  and  C_12 
REMARK    6  A    between atoms: C_16  and  N_17 
REMARK    7  A    between atoms: C_18  and  C_19 
REMARK    8  A    between atoms: C_19  and  N_20 
ROOT
ATOM      1  C   UNL d   1      25.606 -17.454  -0.104  0.00  0.00     0.170 C 
ATOM      2  N   UNL d   1      25.368 -18.696   0.452  0.00  0.00    -0.152 NA
ATOM      3  N   UNL d   1      24.059 -18.943   0.474  0.00  0.00     0.012 NA
ATOM      4  N   UNL d   1      23.410 -17.996  -0.229  0.00  0.00    -0.215 N 
ATOM      5  C   UNL d   1      24.369 -17.108  -0.750  0.00  0.00     0.096 C 
ENDROOT
BRANCH   1   6
ATOM      6  C   UNL d   1      27.095 -16.876  -0.138  0.00  0.00     0.293 C 
ATOM      7  N   UNL d   1      28.035 -16.990  -1.385  0.00  0.00    -0.242 N 
ATOM      8  H   UNL d   1      27.648 -17.395  -2.229  0.00  0.00     0.192 HD
ATOM      9  O   UNL d   1      27.495 -16.427   0.987  0.00  0.00    -0.264 OA
BRANCH   7  10
ATOM     10  N   UNL d   1      29.648 -17.001  -1.379  0.00  0.00    -0.188 NA
ATOM     11  C   UNL d   1      30.437 -17.826  -0.652  0.00  0.00     0.120 C 
BRANCH  11  12
ATOM     12  C   UNL d   1      31.948 -17.476  -0.112  0.00  0.00     0.057 C 
ATOM     13  C   UNL d   1      32.297 -18.718   0.657  0.00  0.00     0.020 C 
BRANCH  12  14
ATOM     14  C   UNL d   1      31.917 -16.186   0.710  0.00  0.00    -0.049 A 
ATOM     15  C   UNL d   1      32.798 -16.165   1.791  0.00  0.00     0.008 A 
ATOM     16  C   UNL d   1      32.822 -15.123   2.695  0.00  0.00     0.001 A 
ATOM     17  C   UNL d   1      32.026 -14.008   2.476  0.00  0.00     0.000 A 
ATOM     18  C   UNL d   1      31.129 -13.985   1.406  0.00  0.00     0.001 A 
ATOM     19  C   UNL d   1      31.048 -15.083   0.528  0.00  0.00     0.008 A 
ENDBRANCH  12  14
ENDBRANCH  11  12
ENDBRANCH   7  10
ENDBRANCH   1   6
BRANCH   5  20
ATOM     20  C   UNL d   1      23.850 -16.017  -1.627  0.00  0.00     0.296 C 
BRANCH  20  21
ATOM     21  N   UNL d   1      24.892 -15.193  -2.252  0.00  0.00    -0.066 N 
ATOM     22  C   UNL d   1      24.340 -14.051  -3.101  0.00  0.00     0.235 C 
ATOM     23  C   UNL d   1      25.427 -13.073  -3.568  0.00  0.00     0.028 C 
ATOM     24  C   UNL d   1      25.903 -13.298  -4.974  0.00  0.00     0.002 C 
ATOM     25  C   UNL d   1      26.199 -14.733  -5.123  0.00  0.00     0.002 C 
ATOM     26  C   UNL d   1      26.651 -15.507  -3.808  0.00  0.00     0.028 C 
ATOM     27  C   UNL d   1      25.739 -16.160  -2.856  0.00  0.00     0.235 C 
ATOM     28  H   UNL d   1      25.482 -14.776  -1.521  0.00  0.00     0.280 HD
ENDBRANCH  20  21
ENDBRANCH   5  20
BRANCH   4  29
ATOM     29  C   UNL d   1      21.990 -17.927  -0.424  0.00  0.00     0.225 A 
ATOM     30  N   UNL d   1      21.446 -16.858  -1.010  0.00  0.00    -0.081 NA
ATOM     31  O   UNL d   1      20.122 -17.251  -1.272  0.00  0.00    -0.103 OA
ATOM     32  N   UNL d   1      19.904 -18.575  -0.895  0.00  0.00    -0.083 NA
ATOM     33  C   UNL d   1      21.049 -18.975  -0.352  0.00  0.00     0.201 A 
BRANCH  33  34
ATOM     34  N   UNL d   1      21.282 -20.219   0.122  0.00  0.00    -0.379 N 
ATOM     35  H   UNL d   1      20.495 -20.745   0.500  0.00  0.00     0.158 HD
ATOM     36  H   UNL d   1      22.168 -20.478   0.545  0.00  0.00     0.158 HD
ENDBRANCH  33  34
ENDBRANCH   4  29
TORSDOF 8
ENDMDL
MODEL 4
REMARK VINA RESULT:   -30.584      3.135      4.020
REMARK INTER + INTRA:         -34.410
REMARK INTER:                 -32.971
REMARK INTRA:                  -1.439
REMARK CONF_INDEPENDENT:        2.386
REMARK UNBOUND:                -1.439
REMARK  8 active torsions:
REMARK  status: ('A' for Active; 'I' for Inactive)
REMARK    1  A    between atoms: C_2  and  C_3 
REMARK    2  A    between atoms: C_2  and  C_27 
REMARK    3  A    between atoms: N_4  and  N_5 
REMARK       I    between atoms: N_5  and  C_6 
REMARK    4  A    between atoms: C_6  and  C_8 
REMARK    5  A    between atoms: N_11  and  C_12 
REMARK    6  A    between atoms: C_16  and  N_17 
REMARK    7  A    between atoms: C_18  and  C_19 
REMARK    8  A    between atoms: C_19  and  N_20 
ROOT
ATOM      1  C   UNL d   1      25.557 -17.349  -0.007  0.00  0.00     0.170 C 
ATOM      2  N   UNL d   1      25.322 -18.556   0.622  0.00  0.00    -0.152 NA
ATOM      3  N   UNL d   1      24.016 -18.821   0.627  0.00  0.00     0.012 NA
ATOM      4  N   UNL d   1      23.372 -17.930  -0.150  0.00  0.00    -0.215 N 
ATOM      5  C   UNL d   1      24.332 -17.063  -0.704  0.00  0.00     0.096 C 
ENDROOT
BRANCH   1   6
ATOM      6  C   UNL d   1      27.038 -16.751  -0.041  0.00  0.00     0.293 C 
ATOM      7  N   UNL d   1      28.223 -17.430  -0.808  0.00  0.00    -0.242 N 
ATOM      8  H   UNL d   1      28.015 -18.253  -1.360  0.00  0.00     0.192 HD
ATOM      9  O   UNL d   1      27.200 -15.740   0.719  0.00  0.00    -0.264 OA
BRANCH   7  10
ATOM     10  N   UNL d   1      29.794 -17.296  -0.468  0.00  0.00    -0.188 NA
ATOM     11  C   UNL d   1      30.816 -17.470  -1.339  0.00  0.00     0.120 C 
BRANCH  11  12
ATOM     12  C   UNL d   1      32.327 -17.984  -0.953  0.00  0.00     0.057 C 
ATOM     13  C   UNL d   1      32.955 -18.144  -2.307  0.00  0.00     0.020 C 
BRANCH  12  14
ATOM     14  C   UNL d   1      32.240 -19.263  -0.118  0.00  0.00    -0.049 A 
ATOM     15  C   UNL d   1      33.164 -19.340   0.925  0.00  0.00     0.008 A 
ATOM     16  C   UNL d   1      33.290 -20.470   1.707  0.00  0.00     0.001 A 
ATOM     17  C   UNL d   1      32.410 -21.527   1.531  0.00  0.00     0.000 A 
ATOM     18  C   UNL d   1      31.469 -21.493   0.500  0.00  0.00     0.001 A 
ATOM     19  C   UNL d   1      31.392 -20.373  -0.349  0.00  0.00     0.008 A 
ENDBRANCH  12  14
ENDBRANCH  11  12
ENDBRANCH   7  10
ENDBRANCH   1   6
BRANCH   5  20
ATOM     20  C   UNL d   1      23.821 -16.038  -1.662  0.00  0.00     0.296 C 
BRANCH  20  21
ATOM     21  N   UNL d   1      24.860 -15.178  -2.241  0.00  0.00    -0.066 N 
ATOM     22  C   UNL d   1      24.308 -14.077  -3.143  0.00  0.00     0.235 C 
ATOM     23  C   UNL d   1      25.375 -13.058  -3.565  0.00  0.00     0.028 C 
ATOM     24  C   UNL d   1      25.943 -13.284  -4.936  0.00  0.00     0.002 C 
ATOM     25  C   UNL d   1      26.311 -14.706  -5.040  0.00  0.00     0.002 C 
ATOM     26  C   UNL d   1      26.720 -15.436  -3.686  0.00  0.00     0.028 C 
ATOM     27  C   UNL d   1      25.784 -16.114  -2.776  0.00  0.00     0.235 C 
ATOM     28  H   UNL d   1      25.387 -14.722  -1.485  0.00  0.00     0.280 HD
ENDBRANCH  20  21
ENDBRANCH   5  20
BRANCH   4  29
ATOM     29  C   UNL d   1      21.957 -17.895  -0.384  0.00  0.00     0.225 A 
ATOM     30  N   UNL d   1      21.400 -16.828  -0.962  0.00  0.00    -0.081 NA
ATOM     31  O   UNL d   1      20.095 -17.250  -1.270  0.00  0.00    -0.103 OA
ATOM     32  N   UNL d   1      19.904 -18.588  -0.930  0.00  0.00    -0.083 NA
ATOM     33  C   UNL d   1      21.044 -18.969  -0.363  0.00  0.00     0.201 A 
BRANCH  33  34
ATOM     34  N   UNL d   1      21.297 -20.217   0.089  0.00  0.00    -0.379 N 
ATOM     35  H   UNL d   1      20.506 -20.808   0.343  0.00  0.00     0.158 HD
ATOM     36  H   UNL d   1      22.139 -20.440   0.613  0.00  0.00     0.158 HD
ENDBRANCH  33  34
ENDBRANCH   4  29
TORSDOF 8
ENDMDL
MODEL 5
REMARK VINA RESULT:   -30.357      1.502      2.457
REMARK INTER + INTRA:         -34.885
REMARK INTER:                 -32.744
REMARK INTRA:                  -2.141
REMARK CONF_INDEPENDENT:        2.386
REMARK UNBOUND:                -2.141
REMARK  8 active torsions:
REMARK  status: ('A' for Active; 'I' for Inactive)
REMARK    1  A    between atoms: C_2  and  C_3 
REMARK    2  A    between atoms: C_2  and  C_27 
REMARK    3  A    between atoms: N_4  and  N_5 
REMARK       I    between atoms: N_5  and  C_6 
REMARK    4  A    between atoms: C_6  and  C_8 
REMARK    5  A    between atoms: N_11  and  C_12 
REMARK    6  A    between atoms: C_16  and  N_17 
REMARK    7  A    between atoms: C_18  and  C_19 
REMARK    8  A    between atoms: C_19  and  N_20 
ROOT
ATOM      1  C   UNL d   1      25.570 -17.357  -0.012  0.00  0.00     0.170 C 
ATOM      2  N   UNL d   1      25.333 -18.569   0.606  0.00  0.00    -0.152 NA
ATOM      3  N   UNL d   1      24.026 -18.829   0.615  0.00  0.00     0.012 NA
ATOM      4  N   UNL d   1      23.382 -17.929  -0.151  0.00  0.00    -0.215 N 
ATOM      5  C   UNL d   1      24.342 -17.060  -0.701  0.00  0.00     0.096 C 
ENDROOT
BRANCH   1   6
ATOM      6  C   UNL d   1      27.053 -16.764  -0.048  0.00  0.00     0.293 C 
ATOM      7  N   UNL d   1      27.408 -15.305   0.391  0.00  0.00    -0.242 N 
ATOM      8  H   UNL d   1      26.664 -14.736   0.778  0.00  0.00     0.192 HD
ATOM      9  O   UNL d   1      27.903 -17.546  -0.591  0.00  0.00    -0.264 OA
BRANCH   7  10
ATOM     10  N   UNL d   1      28.657 -14.421  -0.118  0.00  0.00    -0.188 NA
ATOM     11  C   UNL d   1      28.640 -13.093  -0.380  0.00  0.00     0.120 C 
BRANCH  11  12
ATOM     12  C   UNL d   1      29.600 -12.317  -1.464  0.00  0.00     0.057 C 
ATOM     13  C   UNL d   1      30.593 -11.636  -0.566  0.00  0.00     0.020 C 
BRANCH  12  14
ATOM     14  C   UNL d   1      28.752 -11.381  -2.328  0.00  0.00    -0.049 A 
ATOM     15  C   UNL d   1      27.740 -10.714  -1.639  0.00  0.00     0.008 A 
ATOM     16  C   UNL d   1      26.819  -9.915  -2.286  0.00  0.00     0.001 A 
ATOM     17  C   UNL d   1      26.955  -9.676  -3.645  0.00  0.00     0.000 A 
ATOM     18  C   UNL d   1      27.954 -10.323  -4.375  0.00  0.00     0.001 A 
ATOM     19  C   UNL d   1      28.845 -11.201  -3.729  0.00  0.00     0.008 A 
ENDBRANCH  12  14
ENDBRANCH  11  12
ENDBRANCH   7  10
ENDBRANCH   1   6
BRANCH   5  20
ATOM     20  C   UNL d   1      23.831 -16.025  -1.647  0.00  0.00     0.296 C 
BRANCH  20  21
ATOM     21  N   UNL d   1      24.870 -15.165  -2.226  0.00  0.00    -0.066 N 
ATOM     22  C   UNL d   1      24.320 -14.069  -3.135  0.00  0.00     0.235 C 
ATOM     23  C   UNL d   1      25.387 -13.050  -3.558  0.00  0.00     0.028 C 
ATOM     24  C   UNL d   1      25.960 -13.282  -4.926  0.00  0.00     0.002 C 
ATOM     25  C   UNL d   1      26.331 -14.704  -5.022  0.00  0.00     0.002 C 
ATOM     26  C   UNL d   1      26.735 -15.427  -3.664  0.00  0.00     0.028 C 
ATOM     27  C   UNL d   1      25.797 -16.103  -2.754  0.00  0.00     0.235 C 
ATOM     28  H   UNL d   1      25.394 -14.705  -1.471  0.00  0.00     0.280 HD
ENDBRANCH  20  21
ENDBRANCH   5  20
BRANCH   4  29
ATOM     29  C   UNL d   1      21.966 -17.887  -0.378  0.00  0.00     0.225 A 
ATOM     30  N   UNL d   1      21.415 -16.829  -0.978  0.00  0.00    -0.081 NA
ATOM     31  O   UNL d   1      20.105 -17.247  -1.269  0.00  0.00    -0.103 OA
ATOM     32  N   UNL d   1      19.904 -18.574  -0.895  0.00  0.00    -0.083 NA
ATOM     33  C   UNL d   1      21.043 -18.952  -0.326  0.00  0.00     0.201 A 
BRANCH  33  34
ATOM     34  N   UNL d   1      21.288 -20.191   0.155  0.00  0.00    -0.379 N 
ATOM     35  H   UNL d   1      20.634 -20.584   0.831  0.00  0.00     0.158 HD
ATOM     36  H   UNL d   1      22.232 -20.548   0.268  0.00  0.00     0.158 HD
ENDBRANCH  33  34
ENDBRANCH   4  29
TORSDOF 8
ENDMDL
MODEL 6
REMARK VINA RESULT:   -30.164      1.909      2.640
REMARK INTER + INTRA:         -34.287
REMARK INTER:                 -32.550
REMARK INTRA:                  -1.736
REMARK CONF_INDEPENDENT:        2.386
REMARK UNBOUND:                -1.736
REMARK  8 active torsions:
REMARK  status: ('A' for Active; 'I' for Inactive)
REMARK    1  A    between atoms: C_2  and  C_3 
REMARK    2  A    between atoms: C_2  and  C_27 
REMARK    3  A    between atoms: N_4  and  N_5 
REMARK       I    between atoms: N_5  and  C_6 
REMARK    4  A    between atoms: C_6  and  C_8 
REMARK    5  A    between atoms: N_11  and  C_12 
REMARK    6  A    between atoms: C_16  and  N_17 
REMARK    7  A    between atoms: C_18  and  C_19 
REMARK    8  A    between atoms: C_19  and  N_20 
ROOT
ATOM      1  C   UNL d   1      25.553 -17.330   0.067  0.00  0.00     0.170 C 
ATOM      2  N   UNL d   1      25.322 -18.569   0.631  0.00  0.00    -0.152 NA
ATOM      3  N   UNL d   1      24.018 -18.843   0.614  0.00  0.00     0.012 NA
ATOM      4  N   UNL d   1      23.373 -17.918  -0.121  0.00  0.00    -0.215 N 
ATOM      5  C   UNL d   1      24.330 -17.017  -0.623  0.00  0.00     0.096 C 
ENDROOT
BRANCH   1   6
ATOM      6  C   UNL d   1      27.030 -16.721   0.073  0.00  0.00     0.293 C 
ATOM      7  N   UNL d   1      27.334 -15.200   0.278  0.00  0.00    -0.242 N 
ATOM      8  H   UNL d   1      26.552 -14.588   0.481  0.00  0.00     0.192 HD
ATOM      9  O   UNL d   1      27.933 -17.568  -0.235  0.00  0.00    -0.264 OA
BRANCH   7  10
ATOM     10  N   UNL d   1      28.625 -14.393  -0.255  0.00  0.00    -0.188 NA
ATOM     11  C   UNL d   1      29.203 -14.528  -1.472  0.00  0.00     0.120 C 
BRANCH  11  12
ATOM     12  C   UNL d   1      30.788 -14.270  -1.814  0.00  0.00     0.057 C 
ATOM     13  C   UNL d   1      30.931 -14.946  -3.147  0.00  0.00     0.020 C 
BRANCH  12  14
ATOM     14  C   UNL d   1      31.657 -14.846  -0.694  0.00  0.00    -0.049 A 
ATOM     15  C   UNL d   1      32.970 -15.135  -1.068  0.00  0.00     0.008 A 
ATOM     16  C   UNL d   1      33.855 -15.756  -0.210  0.00  0.00     0.001 A 
ATOM     17  C   UNL d   1      33.475 -16.012   1.099  0.00  0.00     0.000 A 
ATOM     18  C   UNL d   1      32.171 -15.739   1.517  0.00  0.00     0.001 A 
ATOM     19  C   UNL d   1      31.243 -15.178   0.619  0.00  0.00     0.008 A 
ENDBRANCH  12  14
ENDBRANCH  11  12
ENDBRANCH   7  10
ENDBRANCH   1   6
BRANCH   5  20
ATOM     20  C   UNL d   1      23.818 -15.948  -1.530  0.00  0.00     0.296 C 
BRANCH  20  21
ATOM     21  N   UNL d   1      24.865 -15.154  -2.185  0.00  0.00    -0.066 N 
ATOM     22  C   UNL d   1      24.321 -14.103  -3.148  0.00  0.00     0.235 C 
ATOM     23  C   UNL d   1      25.404 -13.142  -3.659  0.00  0.00     0.028 C 
ATOM     24  C   UNL d   1      25.937 -13.474  -5.022  0.00  0.00     0.002 C 
ATOM     25  C   UNL d   1      26.269 -14.909  -5.036  0.00  0.00     0.002 C 
ATOM     26  C   UNL d   1      26.687 -15.556  -3.644  0.00  0.00     0.028 C 
ATOM     27  C   UNL d   1      25.754 -16.148  -2.673  0.00  0.00     0.235 C 
ATOM     28  H   UNL d   1      25.419 -14.663  -1.472  0.00  0.00     0.280 HD
ENDBRANCH  20  21
ENDBRANCH   5  20
BRANCH   4  29
ATOM     29  C   UNL d   1      21.959 -17.880  -0.361  0.00  0.00     0.225 A 
ATOM     30  N   UNL d   1      21.412 -16.827  -0.972  0.00  0.00    -0.081 NA
ATOM     31  O   UNL d   1      20.105 -17.249  -1.273  0.00  0.00    -0.103 OA
ATOM     32  N   UNL d   1      19.904 -18.576  -0.895  0.00  0.00    -0.083 NA
ATOM     33  C   UNL d   1      21.039 -18.948  -0.313  0.00  0.00     0.201 A 
BRANCH  33  34
ATOM     34  N   UNL d   1      21.282 -20.183   0.177  0.00  0.00    -0.379 N 
ATOM     35  H   UNL d   1      20.505 -20.702   0.584  0.00  0.00     0.158 HD
ATOM     36  H   UNL d   1      22.179 -20.436   0.582  0.00  0.00     0.158 HD
ENDBRANCH  33  34
ENDBRANCH   4  29
TORSDOF 8
ENDMDL
MODEL 7
REMARK VINA RESULT:   -30.126      2.488      4.137
REMARK INTER + INTRA:         -34.329
REMARK INTER:                 -32.512
REMARK INTRA:                  -1.816
REMARK CONF_INDEPENDENT:        2.386
REMARK UNBOUND:                -1.816
REMARK  8 active torsions:
REMARK  status: ('A' for Active; 'I' for Inactive)
REMARK    1  A    between atoms: C_2  and  C_3 
REMARK    2  A    between atoms: C_2  and  C_27 
REMARK    3  A    between atoms: N_4  and  N_5 
REMARK       I    between atoms: N_5  and  C_6 
REMARK    4  A    between atoms: C_6  and  C_8 
REMARK    5  A    between atoms: N_11  and  C_12 
REMARK    6  A    between atoms: C_16  and  N_17 
REMARK    7  A    between atoms: C_18  and  C_19 
REMARK    8  A    between atoms: C_19  and  N_20 
ROOT
ATOM      1  C   UNL d   1      25.644 -17.583  -0.191  0.00  0.00     0.170 C 
ATOM      2  N   UNL d   1      25.404 -18.884   0.208  0.00  0.00    -0.152 NA
ATOM      3  N   UNL d   1      24.093 -19.121   0.229  0.00  0.00     0.012 NA
ATOM      4  N   UNL d   1      23.439 -18.086  -0.332  0.00  0.00    -0.215 N 
ATOM      5  C   UNL d   1      24.396 -17.147  -0.758  0.00  0.00     0.096 C 
ENDROOT
BRANCH   1   6
ATOM      6  C   UNL d   1      27.138 -17.018  -0.186  0.00  0.00     0.293 C 
ATOM      7  N   UNL d   1      27.714 -16.117   0.958  0.00  0.00    -0.242 N 
ATOM      8  H   UNL d   1      27.123 -15.944   1.762  0.00  0.00     0.192 HD
ATOM      9  O   UNL d   1      27.779 -17.258  -1.262  0.00  0.00    -0.264 OA
BRANCH   7  10
ATOM     10  N   UNL d   1      28.911 -15.043   0.830  0.00  0.00    -0.188 NA
ATOM     11  C   UNL d   1      29.479 -14.357   1.849  0.00  0.00     0.120 C 
BRANCH  11  12
ATOM     12  C   UNL d   1      30.171 -12.872   1.736  0.00  0.00     0.057 C 
ATOM     13  C   UNL d   1      31.327 -12.996   2.685  0.00  0.00     0.020 C 
BRANCH  12  14
ATOM     14  C   UNL d   1      29.144 -11.795   2.095  0.00  0.00    -0.049 A 
ATOM     15  C   UNL d   1      27.825 -12.248   2.153  0.00  0.00     0.008 A 
ATOM     16  C   UNL d   1      26.766 -11.387   2.360  0.00  0.00     0.001 A 
ATOM     17  C   UNL d   1      27.012 -10.048   2.623  0.00  0.00     0.000 A 
ATOM     18  C   UNL d   1      28.317  -9.552   2.575  0.00  0.00     0.001 A 
ATOM     19  C   UNL d   1      29.391 -10.415   2.286  0.00  0.00     0.008 A 
ENDBRANCH  12  14
ENDBRANCH  11  12
ENDBRANCH   7  10
ENDBRANCH   1   6
BRANCH   5  20
ATOM     20  C   UNL d   1      23.870 -15.949  -1.477  0.00  0.00     0.296 C 
BRANCH  20  21
ATOM     21  N   UNL d   1      24.849 -15.285  -2.346  0.00  0.00    -0.066 N 
ATOM     22  C   UNL d   1      26.029 -14.682  -1.588  0.00  0.00     0.235 C 
ATOM     23  C   UNL d   1      27.146 -14.185  -2.516  0.00  0.00     0.028 C 
ATOM     24  C   UNL d   1      27.128 -12.707  -2.773  0.00  0.00     0.002 C 
ATOM     25  C   UNL d   1      25.752 -12.332  -3.138  0.00  0.00     0.002 C 
ATOM     26  C   UNL d   1      24.873 -13.453  -3.848  0.00  0.00     0.028 C 
ATOM     27  C   UNL d   1      24.037 -14.440  -3.148  0.00  0.00     0.235 C 
ATOM     28  H   UNL d   1      25.229 -15.965  -3.017  0.00  0.00     0.280 HD
ENDBRANCH  20  21
ENDBRANCH   5  20
BRANCH   4  29
ATOM     29  C   UNL d   1      22.017 -17.981  -0.483  0.00  0.00     0.225 A 
ATOM     30  N   UNL d   1      21.481 -16.895  -1.046  0.00  0.00    -0.081 NA
ATOM     31  O   UNL d   1      20.141 -17.254  -1.270  0.00  0.00    -0.103 OA
ATOM     32  N   UNL d   1      19.902 -18.575  -0.895  0.00  0.00    -0.083 NA
ATOM     33  C   UNL d   1      21.052 -19.007  -0.389  0.00  0.00     0.201 A 
BRANCH  33  34
ATOM     34  N   UNL d   1      21.269 -20.259   0.070  0.00  0.00    -0.379 N 
ATOM     35  H   UNL d   1      22.225 -20.531   0.295  0.00  0.00     0.158 HD
ATOM     36  H   UNL d   1      20.693 -21.045  -0.217  0.00  0.00     0.158 HD
ENDBRANCH  33  34
ENDBRANCH   4  29
TORSDOF 8
ENDMDL
MODEL 8
REMARK VINA RESULT:   -30.116      2.658      4.273
REMARK INTER + INTRA:         -34.209
REMARK INTER:                 -32.503
REMARK INTRA:                  -1.707
REMARK CONF_INDEPENDENT:        2.386
REMARK UNBOUND:                -1.707
REMARK  8 active torsions:
REMARK  status: ('A' for Active; 'I' for Inactive)
REMARK    1  A    between atoms: C_2  and  C_3 
REMARK    2  A    between atoms: C_2  and  C_27 
REMARK    3  A    between atoms: N_4  and  N_5 
REMARK       I    between atoms: N_5  and  C_6 
REMARK    4  A    between atoms: C_6  and  C_8 
REMARK    5  A    between atoms: N_11  and  C_12 
REMARK    6  A    between atoms: C_16  and  N_17 
REMARK    7  A    between atoms: C_18  and  C_19 
REMARK    8  A    between atoms: C_19  and  N_20 
ROOT
ATOM      1  C   UNL d   1      25.483 -17.247   0.086  0.00  0.00     0.170 C 
ATOM      2  N   UNL d   1      25.274 -18.414   0.795  0.00  0.00    -0.152 NA
ATOM      3  N   UNL d   1      23.978 -18.725   0.792  0.00  0.00     0.012 NA
ATOM      4  N   UNL d   1      23.323 -17.917  -0.061  0.00  0.00    -0.215 N 
ATOM      5  C   UNL d   1      24.265 -17.057  -0.656  0.00  0.00     0.096 C 
ENDROOT
BRANCH   1   6
ATOM      6  C   UNL d   1      26.942 -16.601   0.039  0.00  0.00     0.293 C 
ATOM      7  N   UNL d   1      27.766 -16.240   1.320  0.00  0.00    -0.242 N 
ATOM      8  H   UNL d   1      27.372 -16.493   2.218  0.00  0.00     0.192 HD
ATOM      9  O   UNL d   1      27.324 -16.284  -1.136  0.00  0.00    -0.264 OA
BRANCH   7  10
ATOM     10  N   UNL d   1      28.909 -15.109   1.445  0.00  0.00    -0.188 NA
ATOM     11  C   UNL d   1      28.903 -14.060   2.301  0.00  0.00     0.120 C 
BRANCH  11  12
ATOM     12  C   UNL d   1      29.628 -12.609   2.044  0.00  0.00     0.057 C 
ATOM     13  C   UNL d   1      30.874 -12.734   2.871  0.00  0.00     0.020 C 
BRANCH  12  14
ATOM     14  C   UNL d   1      28.681 -11.479   2.456  0.00  0.00    -0.049 A 
ATOM     15  C   UNL d   1      27.590 -11.298   1.606  0.00  0.00     0.008 A 
ATOM     16  C   UNL d   1      26.699 -10.256   1.773  0.00  0.00     0.001 A 
ATOM     17  C   UNL d   1      26.819  -9.422   2.874  0.00  0.00     0.000 A 
ATOM     18  C   UNL d   1      27.897  -9.567   3.750  0.00  0.00     0.001 A 
ATOM     19  C   UNL d   1      28.850 -10.580   3.536  0.00  0.00     0.008 A 
ENDBRANCH  12  14
ENDBRANCH  11  12
ENDBRANCH   7  10
ENDBRANCH   1   6
BRANCH   5  20
ATOM     20  C   UNL d   1      23.742 -16.123  -1.696  0.00  0.00     0.296 C 
BRANCH  20  21
ATOM     21  N   UNL d   1      24.768 -15.292  -2.337  0.00  0.00    -0.066 N 
ATOM     22  C   UNL d   1      24.201 -14.081  -3.075  0.00  0.00     0.235 C 
ATOM     23  C   UNL d   1      25.287 -13.108  -3.552  0.00  0.00     0.028 C 
ATOM     24  C   UNL d   1      25.662 -13.256  -4.998  0.00  0.00     0.002 C 
ATOM     25  C   UNL d   1      25.898 -14.687  -5.256  0.00  0.00     0.002 C 
ATOM     26  C   UNL d   1      26.409 -15.557  -4.025  0.00  0.00     0.028 C 
ATOM     27  C   UNL d   1      25.540 -16.243  -3.057  0.00  0.00     0.235 C 
ATOM     28  H   UNL d   1      25.419 -14.941  -1.624  0.00  0.00     0.280 HD
ENDBRANCH  20  21
ENDBRANCH   5  20
BRANCH   4  29
ATOM     29  C   UNL d   1      21.913 -17.949  -0.327  0.00  0.00     0.225 A 
ATOM     30  N   UNL d   1      21.325 -16.926  -0.950  0.00  0.00    -0.081 NA
ATOM     31  O   UNL d   1      20.047 -17.413  -1.273  0.00  0.00    -0.103 OA
ATOM     32  N   UNL d   1      19.905 -18.747  -0.895  0.00  0.00    -0.083 NA
ATOM     33  C   UNL d   1      21.046 -19.062  -0.292  0.00  0.00     0.201 A 
BRANCH  33  34
ATOM     34  N   UNL d   1      21.342 -20.282   0.205  0.00  0.00    -0.379 N 
ATOM     35  H   UNL d   1      20.803 -20.623   1.001  0.00  0.00     0.158 HD
ATOM     36  H   UNL d   1      22.283 -20.663   0.176  0.00  0.00     0.158 HD
ENDBRANCH  33  34
ENDBRANCH   4  29
TORSDOF 8
ENDMDL
MODEL 9
REMARK VINA RESULT:   -30.105      1.625      2.015
REMARK INTER + INTRA:         -33.971
REMARK INTER:                 -32.491
REMARK INTRA:                  -1.480
REMARK CONF_INDEPENDENT:        2.386
REMARK UNBOUND:                -1.480
REMARK  8 active torsions:
REMARK  status: ('A' for Active; 'I' for Inactive)
REMARK    1  A    between atoms: C_2  and  C_3 
REMARK    2  A    between atoms: C_2  and  C_27 
REMARK    3  A    between atoms: N_4  and  N_5 
REMARK       I    between atoms: N_5  and  C_6 
REMARK    4  A    between atoms: C_6  and  C_8 
REMARK    5  A    between atoms: N_11  and  C_12 
REMARK    6  A    between atoms: C_16  and  N_17 
REMARK    7  A    between atoms: C_18  and  C_19 
REMARK    8  A    between atoms: C_19  and  N_20 
ROOT
ATOM      1  C   UNL d   1      25.581 -17.402  -0.016  0.00  0.00     0.170 C 
ATOM      2  N   UNL d   1      25.335 -18.613   0.601  0.00  0.00    -0.152 NA
ATOM      3  N   UNL d   1      24.026 -18.864   0.610  0.00  0.00     0.012 NA
ATOM      4  N   UNL d   1      23.388 -17.958  -0.154  0.00  0.00    -0.215 N 
ATOM      5  C   UNL d   1      24.355 -17.096  -0.704  0.00  0.00     0.096 C 
ENDROOT
BRANCH   1   6
ATOM      6  C   UNL d   1      27.068 -16.821  -0.052  0.00  0.00     0.293 C 
ATOM      7  N   UNL d   1      28.038 -17.013  -1.266  0.00  0.00    -0.242 N 
ATOM      8  H   UNL d   1      27.673 -17.474  -2.091  0.00  0.00     0.192 HD
ATOM      9  O   UNL d   1      27.440 -16.298   1.050  0.00  0.00    -0.264 OA
BRANCH   7  10
ATOM     10  N   UNL d   1      29.651 -17.016  -1.221  0.00  0.00    -0.188 NA
ATOM     11  C   UNL d   1      30.469 -16.171  -1.891  0.00  0.00     0.120 C 
BRANCH  11  12
ATOM     12  C   UNL d   1      31.994 -16.513  -2.395  0.00  0.00     0.057 C 
ATOM     13  C   UNL d   1      32.822 -15.665  -1.474  0.00  0.00     0.020 C 
BRANCH  12  14
ATOM     14  C   UNL d   1      32.131 -16.184  -3.884  0.00  0.00    -0.049 A 
ATOM     15  C   UNL d   1      33.388 -15.711  -4.260  0.00  0.00     0.008 A 
ATOM     16  C   UNL d   1      33.649 -15.270  -5.542  0.00  0.00     0.001 A 
ATOM     17  C   UNL d   1      32.674 -15.392  -6.521  0.00  0.00     0.000 A 
ATOM     18  C   UNL d   1      31.401 -15.861  -6.188  0.00  0.00     0.001 A 
ATOM     19  C   UNL d   1      31.110 -16.237  -4.863  0.00  0.00     0.008 A 
ENDBRANCH  12  14
ENDBRANCH  11  12
ENDBRANCH   7  10
ENDBRANCH   1   6
BRANCH   5  20
ATOM     20  C   UNL d   1      23.851 -16.055  -1.648  0.00  0.00     0.296 C 
BRANCH  20  21
ATOM     21  N   UNL d   1      24.898 -15.208  -2.232  0.00  0.00    -0.066 N 
ATOM     22  C   UNL d   1      24.352 -14.063  -3.082  0.00  0.00     0.235 C 
ATOM     23  C   UNL d   1      25.437 -13.063  -3.506  0.00  0.00     0.028 C 
ATOM     24  C   UNL d   1      25.955 -13.262  -4.901  0.00  0.00     0.002 C 
ATOM     25  C   UNL d   1      26.276 -14.691  -5.060  0.00  0.00     0.002 C 
ATOM     26  C   UNL d   1      26.703 -15.475  -3.743  0.00  0.00     0.028 C 
ATOM     27  C   UNL d   1      25.775 -16.154  -2.825  0.00  0.00     0.235 C 
ATOM     28  H   UNL d   1      25.461 -14.792  -1.480  0.00  0.00     0.280 HD
ENDBRANCH  20  21
ENDBRANCH   5  20
BRANCH   4  29
ATOM     29  C   UNL d   1      21.973 -17.904  -0.380  0.00  0.00     0.225 A 
ATOM     30  N   UNL d   1      21.430 -16.842  -0.981  0.00  0.00    -0.081 NA
ATOM     31  O   UNL d   1      20.116 -17.250  -1.270  0.00  0.00    -0.103 OA
ATOM     32  N   UNL d   1      19.905 -18.575  -0.895  0.00  0.00    -0.083 NA
ATOM     33  C   UNL d   1      21.041 -18.962  -0.326  0.00  0.00     0.201 A 
BRANCH  33  34
ATOM     34  N   UNL d   1      21.277 -20.202   0.156  0.00  0.00    -0.379 N 
ATOM     35  H   UNL d   1      22.203 -20.406   0.531  0.00  0.00     0.158 HD
ATOM     36  H   UNL d   1      20.816 -21.024  -0.223  0.00  0.00     0.158 HD
ENDBRANCH  33  34
ENDBRANCH   4  29
TORSDOF 8
ENDMDL
