MODEL 1
REMARK VINA RESULT:    -7.314      0.000      0.000
REMARK INTER + INTRA:         -14.777
REMARK INTER:                 -10.297
REMARK INTRA:                  -4.479
REMARK CONF_INDEPENDENT:        2.983
REMARK UNBOUND:                -4.479
REMARK  10 active torsions:
REMARK  status: ('A' for Active; 'I' for Inactive)
REMARK    1  A    between atoms: C_2  and  O_3 
REMARK    2  A    between atoms: O_3  and  C_4 
REMARK    3  A    between atoms: C_9  and  N_10 
REMARK       I    between atoms: N_10  and  C_11 
REMARK    4  A    between atoms: C_22  and  N_10 
REMARK    5  A    between atoms: C_11  and  C_13 
REMARK    6  A    between atoms: C_16  and  C_17 
REMARK       I    between atoms: C_17  and  N_18 
REMARK    7  A    between atoms: C_20  and  N_21 
REMARK    8  A    between atoms: C_22  and  C_25 
REMARK    9  A    between atoms: C_22  and  C_23 
REMARK       I    between atoms: C_25  and  N_27 
REMARK   10  A    between atoms: N_27  and  C_28 
ROOT
ATOM      1  N   UNL d   1      28.106 -15.031  -1.045  0.00  0.00    -0.297 N 
ATOM      2  C   UNL d   1      28.713 -13.985  -0.291  0.00  0.00     0.269 C 
ATOM      3  O   UNL d   1      29.703 -13.394  -0.719  0.00  0.00    -0.266 OA
ENDROOT
BRANCH   1   4
ATOM      4  C   UNL d   1      26.895 -15.943  -0.755  0.00  0.00     0.071 C 
ATOM      5  C   UNL d   1      27.040 -16.756   0.358  0.00  0.00     0.033 C 
ATOM      6  C   UNL d   1      26.407 -17.959   0.595  0.00  0.00     0.002 C 
ATOM      7  C   UNL d   1      25.322 -18.257  -0.157  0.00  0.00     0.003 C 
ATOM      8  C   UNL d   1      24.945 -17.402  -1.190  0.00  0.00     0.039 C 
ATOM      9  C   UNL d   1      25.624 -16.186  -1.547  0.00  0.00     0.095 C 
BRANCH   9  10
ATOM     10  O   UNL d   1      25.157 -15.369  -3.084  0.00  0.00    -0.349 OA
BRANCH  10  11
ATOM     11  C   UNL d   1      25.346 -13.502  -3.536  0.00  0.00     0.171 C 
ATOM     12  C   UNL d   1      26.203 -12.591  -2.771  0.00  0.00     0.034 C 
ENDBRANCH  10  11
ENDBRANCH   9  10
ENDBRANCH   1   4
BRANCH   1  13
ATOM     13  C   UNL d   1      28.878 -15.203  -2.225  0.00  0.00     0.185 C 
BRANCH  13  14
ATOM     14  C   UNL d   1      29.611 -16.274  -1.624  0.00  0.00     0.241 C 
ATOM     15  O   UNL d   1      29.509 -17.350  -2.334  0.00  0.00    -0.271 OA
ATOM     16  N   UNL d   1      30.662 -15.916  -0.179  0.00  0.00    -0.355 N 
ATOM     17  H   UNL d   1      30.686 -15.016   0.334  0.00  0.00     0.162 HD
BRANCH  16  18
ATOM     18  C   UNL d   1      32.113 -17.094   0.297  0.00  0.00     0.084 C 
ATOM     19  C   UNL d   1      32.281 -17.182   1.773  0.00  0.00     0.025 C 
ATOM     20  C   UNL d   1      33.062 -18.331   2.321  0.00  0.00     0.002 C 
ATOM     21  C   UNL d   1      32.801 -19.482   1.382  0.00  0.00     0.002 C 
ATOM     22  C   UNL d   1      32.004 -18.916   0.215  0.00  0.00     0.025 C 
ENDBRANCH  16  18
ENDBRANCH  13  14
BRANCH  13  23
ATOM     23  C   UNL d   1      28.219 -15.927  -3.455  0.00  0.00     0.031 C 
ATOM     24  C   UNL d   1      28.430 -15.207  -4.729  0.00  0.00     0.007 C 
ENDBRANCH  13  23
ENDBRANCH   1  13
BRANCH   2  25
ATOM     25  C   UNL d   1      28.235 -13.655   1.004  0.00  0.00     0.115 C 
ATOM     26  S   UNL d   1      26.755 -12.835   1.204  0.00  0.00     0.019 SA
ATOM     27  N   UNL d   1      26.655 -13.090   2.856  0.00  0.00    -0.203 NA
ATOM     28  C   UNL d   1      27.763 -13.740   3.258  0.00  0.00     0.155 C 
ATOM     29  C   UNL d   1      28.741 -14.005   2.228  0.00  0.00     0.065 C 
BRANCH  28  30
ATOM     30  C   UNL d   1      27.939 -14.265   4.620  0.00  0.00     0.270 C 
ATOM     31  N   UNL d   1      28.607 -15.441   4.780  0.00  0.00    -0.365 N 
ATOM     32  H   UNL d   1      28.994 -15.950   3.998  0.00  0.00     0.159 HD
ATOM     33  H   UNL d   1      28.627 -15.829   5.713  0.00  0.00     0.159 HD
ATOM     34  O   UNL d   1      27.519 -13.676   5.617  0.00  0.00    -0.266 OA
ENDBRANCH  28  30
BRANCH  29  35
ATOM     35  N   UNL d   1      29.858 -14.777   2.405  0.00  0.00    -0.299 NA
ATOM     36  H   UNL d   1      29.992 -15.117   3.369  0.00  0.00     0.124 HD
ATOM     37  H   UNL d   1      30.009 -15.574   1.783  0.00  0.00     0.124 HD
ENDBRANCH  29  35
ENDBRANCH   2  25
TORSDOF 10
ENDMDL
MODEL 2
REMARK VINA RESULT:    -6.745      2.695      5.403
REMARK INTER + INTRA:         -13.987
REMARK INTER:                  -9.728
REMARK INTRA:                  -4.259
REMARK CONF_INDEPENDENT:        2.983
REMARK UNBOUND:                -4.259
REMARK  10 active torsions:
REMARK  status: ('A' for Active; 'I' for Inactive)
REMARK    1  A    between atoms: C_2  and  O_3 
REMARK    2  A    between atoms: O_3  and  C_4 
REMARK    3  A    between atoms: C_9  and  N_10 
REMARK       I    between atoms: N_10  and  C_11 
REMARK    4  A    between atoms: C_22  and  N_10 
REMARK    5  A    between atoms: C_11  and  C_13 
REMARK    6  A    between atoms: C_16  and  C_17 
REMARK       I    between atoms: C_17  and  N_18 
REMARK    7  A    between atoms: C_20  and  N_21 
REMARK    8  A    between atoms: C_22  and  C_25 
REMARK    9  A    between atoms: C_22  and  C_23 
REMARK       I    between atoms: C_25  and  N_27 
REMARK   10  A    between atoms: N_27  and  C_28 
ROOT
ATOM      1  N   UNL d   1      27.707 -15.150  -1.286  0.00  0.00    -0.297 N 
ATOM      2  C   UNL d   1      26.404 -15.190  -0.709  0.00  0.00     0.269 C 
ATOM      3  O   UNL d   1      25.905 -14.180  -0.214  0.00  0.00    -0.266 OA
ENDROOT
BRANCH   1   4
ATOM      4  C   UNL d   1      28.576 -16.242  -1.945  0.00  0.00     0.071 C 
ATOM      5  C   UNL d   1      29.257 -17.054  -1.051  0.00  0.00     0.033 C 
ATOM      6  C   UNL d   1      30.423 -17.753  -1.287  0.00  0.00     0.002 C 
ATOM      7  C   UNL d   1      30.802 -17.927  -2.574  0.00  0.00     0.003 C 
ATOM      8  C   UNL d   1      30.070 -17.324  -3.595  0.00  0.00     0.039 C 
ATOM      9  C   UNL d   1      28.904 -16.504  -3.403  0.00  0.00     0.095 C 
BRANCH   9  10
ATOM     10  O   UNL d   1      28.266 -15.585  -4.817  0.00  0.00    -0.349 OA
BRANCH  10  11
ATOM     11  C   UNL d   1      26.491 -14.868  -5.058  0.00  0.00     0.171 C 
ATOM     12  C   UNL d   1      25.622 -14.525  -3.929  0.00  0.00     0.034 C 
ENDBRANCH  10  11
ENDBRANCH   9  10
ENDBRANCH   1   4
BRANCH   1  13
ATOM     13  C   UNL d   1      28.207 -13.832  -1.111  0.00  0.00     0.185 C 
BRANCH  13  14
ATOM     14  C   UNL d   1      28.852 -14.208   0.108  0.00  0.00     0.241 C 
ATOM     15  O   UNL d   1      30.122 -14.369  -0.080  0.00  0.00    -0.271 OA
ATOM     16  N   UNL d   1      27.888 -14.190   1.654  0.00  0.00    -0.355 N 
ATOM     17  H   UNL d   1      26.863 -14.048   1.717  0.00  0.00     0.162 HD
BRANCH  16  18
ATOM     18  C   UNL d   1      28.772 -14.071   3.363  0.00  0.00     0.084 C 
ATOM     19  C   UNL d   1      28.249 -12.934   4.169  0.00  0.00     0.025 C 
ATOM     20  C   UNL d   1      28.517 -12.936   5.638  0.00  0.00     0.002 C 
ATOM     21  C   UNL d   1      28.526 -14.388   6.046  0.00  0.00     0.002 C 
ATOM     22  C   UNL d   1      28.431 -15.198   4.761  0.00  0.00     0.025 C 
ENDBRANCH  16  18
ENDBRANCH  13  14
BRANCH  13  23
ATOM     23  C   UNL d   1      29.430 -13.371  -1.984  0.00  0.00     0.031 C 
ATOM     24  C   UNL d   1      29.104 -12.243  -2.882  0.00  0.00     0.007 C 
ENDBRANCH  13  23
ENDBRANCH   1  13
BRANCH   2  25
ATOM     25  C   UNL d   1      25.687 -16.411  -0.624  0.00  0.00     0.115 C 
ATOM     26  S   UNL d   1      26.332 -17.743   0.220  0.00  0.00     0.019 SA
ATOM     27  N   UNL d   1      24.910 -18.630   0.224  0.00  0.00    -0.203 NA
ATOM     28  C   UNL d   1      23.976 -17.946  -0.461  0.00  0.00     0.155 C 
ATOM     29  C   UNL d   1      24.414 -16.697  -1.042  0.00  0.00     0.065 C 
BRANCH  28  30
ATOM     30  C   UNL d   1      22.564 -18.354  -0.526  0.00  0.00     0.270 C 
ATOM     31  N   UNL d   1      22.237 -19.619  -0.142  0.00  0.00    -0.365 N 
ATOM     32  H   UNL d   1      22.927 -20.273   0.197  0.00  0.00     0.159 HD
ATOM     33  H   UNL d   1      21.279 -19.906  -0.291  0.00  0.00     0.159 HD
ATOM     34  O   UNL d   1      21.672 -17.593  -0.901  0.00  0.00    -0.266 OA
ENDBRANCH  28  30
BRANCH  29  35
ATOM     35  N   UNL d   1      23.582 -15.792  -1.645  0.00  0.00    -0.299 NA
ATOM     36  H   UNL d   1      22.628 -15.766  -1.255  0.00  0.00     0.124 HD
ATOM     37  H   UNL d   1      23.894 -14.823  -1.738  0.00  0.00     0.124 HD
ENDBRANCH  29  35
ENDBRANCH   2  25
TORSDOF 10
ENDMDL
MODEL 3
REMARK VINA RESULT:    -6.377      2.404      5.669
REMARK INTER + INTRA:         -14.645
REMARK INTER:                  -9.360
REMARK INTRA:                  -5.285
REMARK CONF_INDEPENDENT:        2.983
REMARK UNBOUND:                -5.285
REMARK  10 active torsions:
REMARK  status: ('A' for Active; 'I' for Inactive)
REMARK    1  A    between atoms: C_2  and  O_3 
REMARK    2  A    between atoms: O_3  and  C_4 
REMARK    3  A    between atoms: C_9  and  N_10 
REMARK       I    between atoms: N_10  and  C_11 
REMARK    4  A    between atoms: C_22  and  N_10 
REMARK    5  A    between atoms: C_11  and  C_13 
REMARK    6  A    between atoms: C_16  and  C_17 
REMARK       I    between atoms: C_17  and  N_18 
REMARK    7  A    between atoms: C_20  and  N_21 
REMARK    8  A    between atoms: C_22  and  C_25 
REMARK    9  A    between atoms: C_22  and  C_23 
REMARK       I    between atoms: C_25  and  N_27 
REMARK   10  A    between atoms: N_27  and  C_28 
ROOT
ATOM      1  N   UNL d   1      29.705 -15.442  -1.298  0.00  0.00    -0.297 N 
ATOM      2  C   UNL d   1      29.921 -14.982  -2.630  0.00  0.00     0.269 C 
ATOM      3  O   UNL d   1      31.045 -14.659  -3.009  0.00  0.00    -0.266 OA
ENDROOT
BRANCH   1   4
ATOM      4  C   UNL d   1      28.427 -15.884  -0.554  0.00  0.00     0.071 C 
ATOM      5  C   UNL d   1      28.273 -17.256  -0.439  0.00  0.00     0.033 C 
ATOM      6  C   UNL d   1      27.088 -17.948  -0.286  0.00  0.00     0.002 C 
ATOM      7  C   UNL d   1      25.995 -17.246   0.089  0.00  0.00     0.003 C 
ATOM      8  C   UNL d   1      26.074 -15.860   0.212  0.00  0.00     0.039 C 
ATOM      9  C   UNL d   1      27.255 -15.075  -0.030  0.00  0.00     0.095 C 
BRANCH   9  10
ATOM     10  O   UNL d   1      27.088 -13.281  -0.095  0.00  0.00    -0.349 OA
BRANCH  10  11
ATOM     11  C   UNL d   1      26.964 -12.050   1.386  0.00  0.00     0.171 C 
ATOM     12  C   UNL d   1      27.869 -10.907   1.536  0.00  0.00     0.034 C 
ENDBRANCH  10  11
ENDBRANCH   9  10
ENDBRANCH   1   4
BRANCH   1  13
ATOM     13  C   UNL d   1      30.954 -15.383  -0.624  0.00  0.00     0.185 C 
BRANCH  13  14
ATOM     14  C   UNL d   1      30.462 -14.374   0.261  0.00  0.00     0.241 C 
ATOM     15  O   UNL d   1      30.028 -13.355  -0.407  0.00  0.00    -0.271 OA
ATOM     16  N   UNL d   1      30.342 -14.749   2.041  0.00  0.00    -0.355 N 
ATOM     17  H   UNL d   1      30.717 -15.599   2.498  0.00  0.00     0.162 HD
BRANCH  16  18
ATOM     18  C   UNL d   1      29.158 -13.739   3.180  0.00  0.00     0.084 C 
ATOM     19  C   UNL d   1      27.956 -14.532   3.556  0.00  0.00     0.025 C 
ATOM     20  C   UNL d   1      27.155 -14.075   4.730  0.00  0.00     0.002 C 
ATOM     21  C   UNL d   1      28.150 -13.457   5.682  0.00  0.00     0.002 C 
ATOM     22  C   UNL d   1      29.484 -13.422   4.950  0.00  0.00     0.025 C 
ENDBRANCH  16  18
ENDBRANCH  13  14
BRANCH  13  23
ATOM     23  C   UNL d   1      31.318 -16.534   0.384  0.00  0.00     0.031 C 
ATOM     24  C   UNL d   1      31.693 -17.795  -0.292  0.00  0.00     0.007 C 
ENDBRANCH  13  23
ENDBRANCH   1  13
BRANCH   2  25
ATOM     25  C   UNL d   1      28.831 -14.814  -3.523  0.00  0.00     0.115 C 
ATOM     26  S   UNL d   1      28.533 -15.950  -4.757  0.00  0.00     0.019 SA
ATOM     27  N   UNL d   1      27.013 -15.364  -5.147  0.00  0.00    -0.203 NA
ATOM     28  C   UNL d   1      26.762 -14.282  -4.387  0.00  0.00     0.155 C 
ATOM     29  C   UNL d   1      27.828 -13.881  -3.498  0.00  0.00     0.065 C 
BRANCH  28  30
ATOM     30  C   UNL d   1      25.456 -13.606  -4.353  0.00  0.00     0.270 C 
ATOM     31  N   UNL d   1      25.415 -12.293  -3.997  0.00  0.00    -0.365 N 
ATOM     32  H   UNL d   1      26.250 -11.770  -3.773  0.00  0.00     0.159 HD
ATOM     33  H   UNL d   1      24.499 -11.880  -3.884  0.00  0.00     0.159 HD
ATOM     34  O   UNL d   1      24.406 -14.180  -4.645  0.00  0.00    -0.266 OA
ENDBRANCH  28  30
BRANCH  29  35
ATOM     35  N   UNL d   1      27.714 -12.902  -2.547  0.00  0.00    -0.299 NA
ATOM     36  H   UNL d   1      26.772 -12.818  -2.135  0.00  0.00     0.124 HD
ATOM     37  H   UNL d   1      28.381 -12.888  -1.773  0.00  0.00     0.124 HD
ENDBRANCH  29  35
ENDBRANCH   2  25
TORSDOF 10
ENDMDL
MODEL 4
REMARK VINA RESULT:    -6.240      3.066      6.433
REMARK INTER + INTRA:         -15.182
REMARK INTER:                  -9.223
REMARK INTRA:                  -5.959
REMARK CONF_INDEPENDENT:        2.983
REMARK UNBOUND:                -5.959
REMARK  10 active torsions:
REMARK  status: ('A' for Active; 'I' for Inactive)
REMARK    1  A    between atoms: C_2  and  O_3 
REMARK    2  A    between atoms: O_3  and  C_4 
REMARK    3  A    between atoms: C_9  and  N_10 
REMARK       I    between atoms: N_10  and  C_11 
REMARK    4  A    between atoms: C_22  and  N_10 
REMARK    5  A    between atoms: C_11  and  C_13 
REMARK    6  A    between atoms: C_16  and  C_17 
REMARK       I    between atoms: C_17  and  N_18 
REMARK    7  A    between atoms: C_20  and  N_21 
REMARK    8  A    between atoms: C_22  and  C_25 
REMARK    9  A    between atoms: C_22  and  C_23 
REMARK       I    between atoms: C_25  and  N_27 
REMARK   10  A    between atoms: N_27  and  C_28 
ROOT
ATOM      1  N   UNL d   1      27.111 -14.403  -3.531  0.00  0.00    -0.297 N 
ATOM      2  C   UNL d   1      28.096 -15.127  -4.263  0.00  0.00     0.269 C 
ATOM      3  O   UNL d   1      27.846 -15.576  -5.380  0.00  0.00    -0.266 OA
ENDROOT
BRANCH   1   4
ATOM      4  C   UNL d   1      27.136 -13.758  -2.129  0.00  0.00     0.071 C 
ATOM      5  C   UNL d   1      26.971 -12.382  -2.124  0.00  0.00     0.033 C 
ATOM      6  C   UNL d   1      27.408 -11.497  -1.160  0.00  0.00     0.002 C 
ATOM      7  C   UNL d   1      27.769 -12.003   0.041  0.00  0.00     0.003 C 
ATOM      8  C   UNL d   1      27.777 -13.384   0.232  0.00  0.00     0.039 C 
ATOM      9  C   UNL d   1      27.427 -14.358  -0.766  0.00  0.00     0.095 C 
BRANCH   9  10
ATOM     10  O   UNL d   1      27.772 -16.094  -0.421  0.00  0.00    -0.349 OA
BRANCH  10  11
ATOM     11  C   UNL d   1      27.031 -17.191   0.982  0.00  0.00     0.171 C 
ATOM     12  C   UNL d   1      26.680 -18.600   0.776  0.00  0.00     0.034 C 
ENDBRANCH  10  11
ENDBRANCH   9  10
ENDBRANCH   1   4
BRANCH   1  13
ATOM     13  C   UNL d   1      25.927 -14.390  -4.315  0.00  0.00     0.185 C 
BRANCH  13  14
ATOM     14  C   UNL d   1      25.149 -14.832  -3.200  0.00  0.00     0.241 C 
ATOM     15  O   UNL d   1      24.003 -14.233  -3.179  0.00  0.00    -0.271 OA
ATOM     16  N   UNL d   1      25.769 -16.216  -2.189  0.00  0.00    -0.355 N 
ATOM     17  H   UNL d   1      26.709 -16.643  -2.275  0.00  0.00     0.162 HD
BRANCH  16  18
ATOM     18  C   UNL d   1      24.563 -17.256  -1.103  0.00  0.00     0.084 C 
ATOM     19  C   UNL d   1      23.354 -16.474  -0.728  0.00  0.00     0.025 C 
ATOM     20  C   UNL d   1      22.155 -17.225  -0.250  0.00  0.00     0.002 C 
ATOM     21  C   UNL d   1      22.174 -18.536  -0.996  0.00  0.00     0.002 C 
ATOM     22  C   UNL d   1      23.486 -18.576  -1.766  0.00  0.00     0.025 C 
ENDBRANCH  16  18
ENDBRANCH  13  14
BRANCH  13  23
ATOM     23  C   UNL d   1      25.255 -13.005  -4.637  0.00  0.00     0.031 C 
ATOM     24  C   UNL d   1      26.195 -12.034  -5.235  0.00  0.00     0.007 C 
ENDBRANCH  13  23
ENDBRANCH   1  13
BRANCH   2  25
ATOM     25  C   UNL d   1      29.361 -15.413  -3.687  0.00  0.00     0.115 C 
ATOM     26  S   UNL d   1      30.689 -14.377  -3.941  0.00  0.00     0.019 SA
ATOM     27  N   UNL d   1      31.659 -15.073  -2.766  0.00  0.00    -0.203 NA
ATOM     28  C   UNL d   1      31.002 -16.117  -2.230  0.00  0.00     0.155 C 
ATOM     29  C   UNL d   1      29.704 -16.399  -2.799  0.00  0.00     0.065 C 
BRANCH  28  30
ATOM     30  C   UNL d   1      31.491 -16.863  -1.060  0.00  0.00     0.270 C 
ATOM     31  N   UNL d   1      30.583 -17.305  -0.148  0.00  0.00    -0.365 N 
ATOM     32  H   UNL d   1      29.592 -17.150  -0.257  0.00  0.00     0.159 HD
ATOM     33  H   UNL d   1      30.953 -17.726   0.694  0.00  0.00     0.159 HD
ATOM     34  O   UNL d   1      32.685 -17.112  -0.886  0.00  0.00    -0.266 OA
ENDBRANCH  28  30
BRANCH  29  35
ATOM     35  N   UNL d   1      28.825 -17.321  -2.298  0.00  0.00    -0.299 NA
ATOM     36  H   UNL d   1      29.027 -17.619  -1.332  0.00  0.00     0.124 HD
ATOM     37  H   UNL d   1      27.823 -17.123  -2.346  0.00  0.00     0.124 HD
ENDBRANCH  29  35
ENDBRANCH   2  25
TORSDOF 10
ENDMDL
MODEL 5
REMARK VINA RESULT:    -5.664      2.686      5.620
REMARK INTER + INTRA:         -14.138
REMARK INTER:                  -8.647
REMARK INTRA:                  -5.491
REMARK CONF_INDEPENDENT:        2.983
REMARK UNBOUND:                -5.491
REMARK  10 active torsions:
REMARK  status: ('A' for Active; 'I' for Inactive)
REMARK    1  A    between atoms: C_2  and  O_3 
REMARK    2  A    between atoms: O_3  and  C_4 
REMARK    3  A    between atoms: C_9  and  N_10 
REMARK       I    between atoms: N_10  and  C_11 
REMARK    4  A    between atoms: C_22  and  N_10 
REMARK    5  A    between atoms: C_11  and  C_13 
REMARK    6  A    between atoms: C_16  and  C_17 
REMARK       I    between atoms: C_17  and  N_18 
REMARK    7  A    between atoms: C_20  and  N_21 
REMARK    8  A    between atoms: C_22  and  C_25 
REMARK    9  A    between atoms: C_22  and  C_23 
REMARK       I    between atoms: C_25  and  N_27 
REMARK   10  A    between atoms: N_27  and  C_28 
ROOT
ATOM      1  N   UNL d   1      28.118 -14.831  -2.687  0.00  0.00    -0.297 N 
ATOM      2  C   UNL d   1      29.204 -15.702  -2.385  0.00  0.00     0.269 C 
ATOM      3  O   UNL d   1      29.335 -16.773  -2.977  0.00  0.00    -0.266 OA
ENDROOT
BRANCH   1   4
ATOM      4  C   UNL d   1      27.698 -13.466  -2.103  0.00  0.00     0.071 C 
ATOM      5  C   UNL d   1      27.782 -12.407  -2.992  0.00  0.00     0.033 C 
ATOM      6  C   UNL d   1      27.948 -11.073  -2.681  0.00  0.00     0.002 C 
ATOM      7  C   UNL d   1      27.714 -10.691  -1.405  0.00  0.00     0.003 C 
ATOM      8  C   UNL d   1      27.411 -11.653  -0.443  0.00  0.00     0.039 C 
ATOM      9  C   UNL d   1      27.321 -13.067  -0.688  0.00  0.00     0.095 C 
BRANCH   9  10
ATOM     10  O   UNL d   1      27.201 -14.172   0.732  0.00  0.00    -0.349 OA
BRANCH  10  11
ATOM     11  C   UNL d   1      27.032 -13.692   2.593  0.00  0.00     0.171 C 
ATOM     12  C   UNL d   1      27.438 -12.381   3.107  0.00  0.00     0.034 C 
ENDBRANCH  10  11
ENDBRANCH   9  10
ENDBRANCH   1   4
BRANCH   1  13
ATOM     13  C   UNL d   1      27.325 -15.471  -3.677  0.00  0.00     0.185 C 
BRANCH  13  14
ATOM     14  C   UNL d   1      26.186 -15.463  -2.812  0.00  0.00     0.241 C 
ATOM     15  O   UNL d   1      25.152 -14.987  -3.426  0.00  0.00    -0.271 OA
ATOM     16  N   UNL d   1      26.318 -16.260  -1.179  0.00  0.00    -0.355 N 
ATOM     17  H   UNL d   1      27.194 -16.621  -0.760  0.00  0.00     0.162 HD
BRANCH  16  18
ATOM     18  C   UNL d   1      24.738 -16.836  -0.236  0.00  0.00     0.084 C 
ATOM     19  C   UNL d   1      23.500 -16.496  -0.989  0.00  0.00     0.025 C 
ATOM     20  C   UNL d   1      22.240 -17.209  -0.622  0.00  0.00     0.002 C 
ATOM     21  C   UNL d   1      22.668 -18.588  -0.184  0.00  0.00     0.002 C 
ATOM     22  C   UNL d   1      24.190 -18.577  -0.149  0.00  0.00     0.025 C 
ENDBRANCH  16  18
ENDBRANCH  13  14
BRANCH  13  23
ATOM     23  C   UNL d   1      26.803 -14.617  -4.890  0.00  0.00     0.031 C 
ATOM     24  C   UNL d   1      27.847 -14.363  -5.906  0.00  0.00     0.007 C 
ENDBRANCH  13  23
ENDBRANCH   1  13
BRANCH   2  25
ATOM     25  C   UNL d   1      30.114 -15.391  -1.342  0.00  0.00     0.115 C 
ATOM     26  S   UNL d   1      31.585 -14.599  -1.676  0.00  0.00     0.019 SA
ATOM     27  N   UNL d   1      31.944 -14.252  -0.077  0.00  0.00    -0.203 NA
ATOM     28  C   UNL d   1      30.986 -14.784   0.703  0.00  0.00     0.155 C 
ATOM     29  C   UNL d   1      29.957 -15.527   0.012  0.00  0.00     0.065 C 
BRANCH  28  30
ATOM     30  C   UNL d   1      30.897 -14.539   2.151  0.00  0.00     0.270 C 
ATOM     31  N   UNL d   1      32.053 -14.392   2.855  0.00  0.00    -0.365 N 
ATOM     32  H   UNL d   1      32.960 -14.430   2.413  0.00  0.00     0.159 HD
ATOM     33  H   UNL d   1      31.967 -14.325   3.860  0.00  0.00     0.159 HD
ATOM     34  O   UNL d   1      29.820 -14.451   2.742  0.00  0.00    -0.266 OA
ENDBRANCH  28  30
BRANCH  29  35
ATOM     35  N   UNL d   1      28.825 -16.016   0.608  0.00  0.00    -0.299 NA
ATOM     36  H   UNL d   1      28.655 -15.654   1.558  0.00  0.00     0.124 HD
ATOM     37  H   UNL d   1      27.939 -15.959   0.103  0.00  0.00     0.124 HD
ENDBRANCH  29  35
ENDBRANCH   2  25
TORSDOF 10
ENDMDL
MODEL 6
REMARK VINA RESULT:    -5.624      1.999      4.231
REMARK INTER + INTRA:         -14.749
REMARK INTER:                  -8.607
REMARK INTRA:                  -6.143
REMARK CONF_INDEPENDENT:        2.983
REMARK UNBOUND:                -6.143
REMARK  10 active torsions:
REMARK  status: ('A' for Active; 'I' for Inactive)
REMARK    1  A    between atoms: C_2  and  O_3 
REMARK    2  A    between atoms: O_3  and  C_4 
REMARK    3  A    between atoms: C_9  and  N_10 
REMARK       I    between atoms: N_10  and  C_11 
REMARK    4  A    between atoms: C_22  and  N_10 
REMARK    5  A    between atoms: C_11  and  C_13 
REMARK    6  A    between atoms: C_16  and  C_17 
REMARK       I    between atoms: C_17  and  N_18 
REMARK    7  A    between atoms: C_20  and  N_21 
REMARK    8  A    between atoms: C_22  and  C_25 
REMARK    9  A    between atoms: C_22  and  C_23 
REMARK       I    between atoms: C_25  and  N_27 
REMARK   10  A    between atoms: N_27  and  C_28 
ROOT
ATOM      1  N   UNL d   1      26.755 -14.251  -2.527  0.00  0.00    -0.297 N 
ATOM      2  C   UNL d   1      27.191 -13.036  -1.923  0.00  0.00     0.269 C 
ATOM      3  O   UNL d   1      27.297 -12.007  -2.588  0.00  0.00    -0.266 OA
ENDROOT
BRANCH   1   4
ATOM      4  C   UNL d   1      26.554 -15.671  -1.958  0.00  0.00     0.071 C 
ATOM      5  C   UNL d   1      25.240 -16.114  -1.961  0.00  0.00     0.033 C 
ATOM      6  C   UNL d   1      24.681 -17.062  -1.129  0.00  0.00     0.002 C 
ATOM      7  C   UNL d   1      25.522 -17.866  -0.439  0.00  0.00     0.003 C 
ATOM      8  C   UNL d   1      26.897 -17.653  -0.515  0.00  0.00     0.039 C 
ATOM      9  C   UNL d   1      27.532 -16.619  -1.288  0.00  0.00     0.095 C 
BRANCH   9  10
ATOM     10  O   UNL d   1      29.292 -16.325  -1.036  0.00  0.00    -0.349 OA
BRANCH  10  11
ATOM     11  C   UNL d   1      30.663 -17.623  -0.637  0.00  0.00     0.171 C 
ATOM     12  C   UNL d   1      32.054 -17.242  -0.376  0.00  0.00     0.034 C 
ENDBRANCH  10  11
ENDBRANCH   9  10
ENDBRANCH   1   4
BRANCH   1  13
ATOM     13  C   UNL d   1      26.556 -13.988  -3.909  0.00  0.00     0.185 C 
BRANCH  13  14
ATOM     14  C   UNL d   1      27.356 -15.118  -4.268  0.00  0.00     0.241 C 
ATOM     15  O   UNL d   1      26.820 -15.759  -5.256  0.00  0.00    -0.271 OA
ATOM     16  N   UNL d   1      28.982 -15.331  -3.475  0.00  0.00    -0.355 N 
ATOM     17  H   UNL d   1      29.339 -14.766  -2.683  0.00  0.00     0.162 HD
BRANCH  16  18
ATOM     18  C   UNL d   1      30.346 -16.413  -4.304  0.00  0.00     0.084 C 
ATOM     19  C   UNL d   1      30.029 -17.863  -4.202  0.00  0.00     0.025 C 
ATOM     20  C   UNL d   1      30.741 -18.801  -5.120  0.00  0.00     0.002 C 
ATOM     21  C   UNL d   1      30.970 -18.026  -6.393  0.00  0.00     0.002 C 
ATOM     22  C   UNL d   1      30.531 -16.596  -6.113  0.00  0.00     0.025 C 
ENDBRANCH  16  18
ENDBRANCH  13  14
BRANCH  13  23
ATOM     23  C   UNL d   1      25.173 -14.366  -4.554  0.00  0.00     0.031 C 
ATOM     24  C   UNL d   1      24.029 -13.700  -3.895  0.00  0.00     0.007 C 
ENDBRANCH  13  23
ENDBRANCH   1  13
BRANCH   2  25
ATOM     25  C   UNL d   1      27.584 -13.006  -0.561  0.00  0.00     0.115 C 
ATOM     26  S   UNL d   1      26.473 -12.582   0.659  0.00  0.00     0.019 SA
ATOM     27  N   UNL d   1      27.440 -13.078   1.933  0.00  0.00    -0.203 NA
ATOM     28  C   UNL d   1      28.616 -13.504   1.439  0.00  0.00     0.155 C 
ATOM     29  C   UNL d   1      28.770 -13.394   0.006  0.00  0.00     0.065 C 
BRANCH  28  30
ATOM     30  C   UNL d   1      29.647 -14.157   2.260  0.00  0.00     0.270 C 
ATOM     31  N   UNL d   1      30.339 -15.200   1.724  0.00  0.00    -0.365 N 
ATOM     32  H   UNL d   1      30.176 -15.526   0.782  0.00  0.00     0.159 HD
ATOM     33  H   UNL d   1      30.969 -15.693   2.342  0.00  0.00     0.159 HD
ATOM     34  O   UNL d   1      29.915 -13.787   3.404  0.00  0.00    -0.266 OA
ENDBRANCH  28  30
BRANCH  29  35
ATOM     35  N   UNL d   1      29.827 -13.905  -0.699  0.00  0.00    -0.299 NA
ATOM     36  H   UNL d   1      30.361 -14.631  -0.198  0.00  0.00     0.124 HD
ATOM     37  H   UNL d   1      29.664 -14.254  -1.646  0.00  0.00     0.124 HD
ENDBRANCH  29  35
ENDBRANCH   2  25
TORSDOF 10
ENDMDL
MODEL 7
REMARK VINA RESULT:    -5.267      2.745      5.650
REMARK INTER + INTRA:         -14.132
REMARK INTER:                  -8.250
REMARK INTRA:                  -5.882
REMARK CONF_INDEPENDENT:        2.983
REMARK UNBOUND:                -5.882
REMARK  10 active torsions:
REMARK  status: ('A' for Active; 'I' for Inactive)
REMARK    1  A    between atoms: C_2  and  O_3 
REMARK    2  A    between atoms: O_3  and  C_4 
REMARK    3  A    between atoms: C_9  and  N_10 
REMARK       I    between atoms: N_10  and  C_11 
REMARK    4  A    between atoms: C_22  and  N_10 
REMARK    5  A    between atoms: C_11  and  C_13 
REMARK    6  A    between atoms: C_16  and  C_17 
REMARK       I    between atoms: C_17  and  N_18 
REMARK    7  A    between atoms: C_20  and  N_21 
REMARK    8  A    between atoms: C_22  and  C_25 
REMARK    9  A    between atoms: C_22  and  C_23 
REMARK       I    between atoms: C_25  and  N_27 
REMARK   10  A    between atoms: N_27  and  C_28 
ROOT
ATOM      1  N   UNL d   1      29.035 -16.013  -0.176  0.00  0.00    -0.297 N 
ATOM      2  C   UNL d   1      28.540 -17.324  -0.437  0.00  0.00     0.269 C 
ATOM      3  O   UNL d   1      29.292 -18.212  -0.836  0.00  0.00    -0.266 OA
ENDROOT
BRANCH   1   4
ATOM      4  C   UNL d   1      28.335 -14.722   0.299  0.00  0.00     0.071 C 
ATOM      5  C   UNL d   1      28.429 -14.484   1.661  0.00  0.00     0.033 C 
ATOM      6  C   UNL d   1      27.561 -13.743   2.436  0.00  0.00     0.002 C 
ATOM      7  C   UNL d   1      26.699 -12.916   1.799  0.00  0.00     0.003 C 
ATOM      8  C   UNL d   1      26.652 -12.912   0.406  0.00  0.00     0.039 C 
ATOM      9  C   UNL d   1      27.463 -13.733  -0.451  0.00  0.00     0.095 C 
BRANCH   9  10
ATOM     10  O   UNL d   1      27.059 -13.792  -2.207  0.00  0.00    -0.349 OA
BRANCH  10  11
ATOM     11  C   UNL d   1      25.428 -13.222  -3.066  0.00  0.00     0.171 C 
ATOM     12  C   UNL d   1      24.879 -13.903  -4.242  0.00  0.00     0.034 C 
ENDBRANCH  10  11
ENDBRANCH   9  10
ENDBRANCH   1   4
BRANCH   1  13
ATOM     13  C   UNL d   1      30.417 -16.011  -0.504  0.00  0.00     0.185 C 
BRANCH  13  14
ATOM     14  C   UNL d   1      30.143 -15.431  -1.782  0.00  0.00     0.241 C 
ATOM     15  O   UNL d   1      30.929 -14.428  -2.004  0.00  0.00    -0.271 OA
ATOM     16  N   UNL d   1      28.966 -16.268  -2.892  0.00  0.00    -0.355 N 
ATOM     17  H   UNL d   1      28.372 -17.076  -2.632  0.00  0.00     0.162 HD
BRANCH  16  18
ATOM     18  C   UNL d   1      29.000 -15.936  -4.791  0.00  0.00     0.084 C 
ATOM     19  C   UNL d   1      27.997 -14.909  -5.183  0.00  0.00     0.025 C 
ATOM     20  C   UNL d   1      28.158 -14.245  -6.511  0.00  0.00     0.002 C 
ATOM     21  C   UNL d   1      29.645 -14.175  -6.751  0.00  0.00     0.002 C 
ATOM     22  C   UNL d   1      30.302 -14.960  -5.625  0.00  0.00     0.025 C 
ENDBRANCH  16  18
ENDBRANCH  13  14
BRANCH  13  23
ATOM     23  C   UNL d   1      31.341 -14.917   0.146  0.00  0.00     0.031 C 
ATOM     24  C   UNL d   1      31.911 -15.339   1.443  0.00  0.00     0.007 C 
ENDBRANCH  13  23
ENDBRANCH   1  13
BRANCH   2  25
ATOM     25  C   UNL d   1      27.156 -17.613  -0.316  0.00  0.00     0.115 C 
ATOM     26  S   UNL d   1      26.572 -18.550   0.981  0.00  0.00     0.019 SA
ATOM     27  N   UNL d   1      24.956 -18.199   0.713  0.00  0.00    -0.203 NA
ATOM     28  C   UNL d   1      24.860 -17.428  -0.385  0.00  0.00     0.155 C 
ATOM     29  C   UNL d   1      26.106 -17.140  -1.059  0.00  0.00     0.065 C 
BRANCH  28  30
ATOM     30  C   UNL d   1      23.603 -16.802  -0.824  0.00  0.00     0.270 C 
ATOM     31  N   UNL d   1      22.436 -17.242  -0.279  0.00  0.00    -0.365 N 
ATOM     32  H   UNL d   1      22.410 -17.968   0.422  0.00  0.00     0.159 HD
ATOM     33  H   UNL d   1      21.582 -16.867  -0.669  0.00  0.00     0.159 HD
ATOM     34  O   UNL d   1      23.571 -15.891  -1.652  0.00  0.00    -0.266 OA
ENDBRANCH  28  30
BRANCH  29  35
ATOM     35  N   UNL d   1      26.236 -16.260  -2.100  0.00  0.00    -0.299 NA
ATOM     36  H   UNL d   1      25.581 -15.465  -2.068  0.00  0.00     0.124 HD
ATOM     37  H   UNL d   1      27.161 -15.878  -2.308  0.00  0.00     0.124 HD
ENDBRANCH  29  35
ENDBRANCH   2  25
TORSDOF 10
ENDMDL
MODEL 8
REMARK VINA RESULT:    -5.034      3.005      5.892
REMARK INTER + INTRA:         -13.754
REMARK INTER:                  -8.017
REMARK INTRA:                  -5.737
REMARK CONF_INDEPENDENT:        2.983
REMARK UNBOUND:                -5.737
REMARK  10 active torsions:
REMARK  status: ('A' for Active; 'I' for Inactive)
REMARK    1  A    between atoms: C_2  and  O_3 
REMARK    2  A    between atoms: O_3  and  C_4 
REMARK    3  A    between atoms: C_9  and  N_10 
REMARK       I    between atoms: N_10  and  C_11 
REMARK    4  A    between atoms: C_22  and  N_10 
REMARK    5  A    between atoms: C_11  and  C_13 
REMARK    6  A    between atoms: C_16  and  C_17 
REMARK       I    between atoms: C_17  and  N_18 
REMARK    7  A    between atoms: C_20  and  N_21 
REMARK    8  A    between atoms: C_22  and  C_25 
REMARK    9  A    between atoms: C_22  and  C_23 
REMARK       I    between atoms: C_25  and  N_27 
REMARK   10  A    between atoms: N_27  and  C_28 
ROOT
ATOM      1  N   UNL d   1      27.330 -15.848  -1.360  0.00  0.00    -0.297 N 
ATOM      2  C   UNL d   1      28.648 -16.388  -1.309  0.00  0.00     0.269 C 
ATOM      3  O   UNL d   1      28.960 -17.205  -0.444  0.00  0.00    -0.266 OA
ENDROOT
BRANCH   1   4
ATOM      4  C   UNL d   1      26.676 -14.812  -2.299  0.00  0.00     0.071 C 
ATOM      5  C   UNL d   1      25.850 -15.355  -3.270  0.00  0.00     0.033 C 
ATOM      6  C   UNL d   1      25.527 -14.799  -4.491  0.00  0.00     0.002 C 
ATOM      7  C   UNL d   1      25.778 -13.482  -4.668  0.00  0.00     0.003 C 
ATOM      8  C   UNL d   1      26.429 -12.764  -3.666  0.00  0.00     0.039 C 
ATOM      9  C   UNL d   1      26.876 -13.312  -2.414  0.00  0.00     0.095 C 
BRANCH   9  10
ATOM     10  O   UNL d   1      27.944 -12.300  -1.373  0.00  0.00    -0.349 OA
BRANCH  10  11
ATOM     11  C   UNL d   1      27.431 -11.175   0.109  0.00  0.00     0.171 C 
ATOM     12  C   UNL d   1      27.014 -11.721   1.403  0.00  0.00     0.034 C 
ENDBRANCH  10  11
ENDBRANCH   9  10
ENDBRANCH   1   4
BRANCH   1  13
ATOM     13  C   UNL d   1      26.606 -16.397  -0.268  0.00  0.00     0.185 C 
BRANCH  13  14
ATOM     14  C   UNL d   1      26.922 -15.265   0.547  0.00  0.00     0.241 C 
ATOM     15  O   UNL d   1      25.916 -14.454   0.608  0.00  0.00    -0.271 OA
ATOM     16  N   UNL d   1      28.494 -15.258   1.470  0.00  0.00    -0.355 N 
ATOM     17  H   UNL d   1      29.251 -15.956   1.363  0.00  0.00     0.162 HD
BRANCH  16  18
ATOM     18  C   UNL d   1      28.720 -14.129   3.016  0.00  0.00     0.084 C 
ATOM     19  C   UNL d   1      27.482 -14.078   3.839  0.00  0.00     0.025 C 
ATOM     20  C   UNL d   1      27.598 -13.599   5.249  0.00  0.00     0.002 C 
ATOM     21  C   UNL d   1      28.961 -14.043   5.717  0.00  0.00     0.002 C 
ATOM     22  C   UNL d   1      29.668 -14.623   4.499  0.00  0.00     0.025 C 
ENDBRANCH  16  18
ENDBRANCH  13  14
BRANCH  13  23
ATOM     23  C   UNL d   1      25.036 -16.332  -0.300  0.00  0.00     0.031 C 
ATOM     24  C   UNL d   1      24.422 -17.530  -0.911  0.00  0.00     0.007 C 
ENDBRANCH  13  23
ENDBRANCH   1  13
BRANCH   2  25
ATOM     25  C   UNL d   1      29.650 -15.939  -2.208  0.00  0.00     0.115 C 
ATOM     26  S   UNL d   1      30.074 -16.863  -3.574  0.00  0.00     0.019 SA
ATOM     27  N   UNL d   1      30.969 -15.655  -4.311  0.00  0.00    -0.203 NA
ATOM     28  C   UNL d   1      30.994 -14.583  -3.499  0.00  0.00     0.155 C 
ATOM     29  C   UNL d   1      30.315 -14.741  -2.233  0.00  0.00     0.065 C 
BRANCH  28  30
ATOM     30  C   UNL d   1      31.559 -13.284  -3.895  0.00  0.00     0.270 C 
ATOM     31  N   UNL d   1      32.027 -13.141  -5.166  0.00  0.00    -0.365 N 
ATOM     32  H   UNL d   1      31.984 -13.890  -5.842  0.00  0.00     0.159 HD
ATOM     33  H   UNL d   1      32.499 -12.274  -5.381  0.00  0.00     0.159 HD
ATOM     34  O   UNL d   1      31.611 -12.323  -3.127  0.00  0.00    -0.266 OA
ENDBRANCH  28  30
BRANCH  29  35
ATOM     35  N   UNL d   1      30.104 -13.727  -1.337  0.00  0.00    -0.299 NA
ATOM     36  H   UNL d   1      30.032 -12.791  -1.764  0.00  0.00     0.124 HD
ATOM     37  H   UNL d   1      29.334 -13.811  -0.671  0.00  0.00     0.124 HD
ENDBRANCH  29  35
ENDBRANCH   2  25
TORSDOF 10
ENDMDL
MODEL 9
REMARK VINA RESULT:    -5.003      3.664      7.062
REMARK INTER + INTRA:         -13.783
REMARK INTER:                  -7.986
REMARK INTRA:                  -5.797
REMARK CONF_INDEPENDENT:        2.983
REMARK UNBOUND:                -5.797
REMARK  10 active torsions:
REMARK  status: ('A' for Active; 'I' for Inactive)
REMARK    1  A    between atoms: C_2  and  O_3 
REMARK    2  A    between atoms: O_3  and  C_4 
REMARK    3  A    between atoms: C_9  and  N_10 
REMARK       I    between atoms: N_10  and  C_11 
REMARK    4  A    between atoms: C_22  and  N_10 
REMARK    5  A    between atoms: C_11  and  C_13 
REMARK    6  A    between atoms: C_16  and  C_17 
REMARK       I    between atoms: C_17  and  N_18 
REMARK    7  A    between atoms: C_20  and  N_21 
REMARK    8  A    between atoms: C_22  and  C_25 
REMARK    9  A    between atoms: C_22  and  C_23 
REMARK       I    between atoms: C_25  and  N_27 
REMARK   10  A    between atoms: N_27  and  C_28 
ROOT
ATOM      1  N   UNL d   1      27.533 -13.736  -4.576  0.00  0.00    -0.297 N 
ATOM      2  C   UNL d   1      27.609 -15.049  -5.124  0.00  0.00     0.269 C 
ATOM      3  O   UNL d   1      26.621 -15.575  -5.635  0.00  0.00    -0.266 OA
ENDROOT
BRANCH   1   4
ATOM      4  C   UNL d   1      28.581 -12.852  -3.867  0.00  0.00     0.071 C 
ATOM      5  C   UNL d   1      28.913 -11.691  -4.548  0.00  0.00     0.033 C 
ATOM      6  C   UNL d   1      30.091 -10.979  -4.451  0.00  0.00     0.002 C 
ATOM      7  C   UNL d   1      30.894 -11.235  -3.392  0.00  0.00     0.003 C 
ATOM      8  C   UNL d   1      30.559 -12.255  -2.504  0.00  0.00     0.039 C 
ATOM      9  C   UNL d   1      29.396 -13.095  -2.610  0.00  0.00     0.095 C 
BRANCH   9  10
ATOM     10  O   UNL d   1      29.285 -14.537  -1.534  0.00  0.00    -0.349 OA
BRANCH  10  11
ATOM     11  C   UNL d   1      28.736 -14.593   0.315  0.00  0.00     0.171 C 
ATOM     12  C   UNL d   1      27.361 -14.310   0.736  0.00  0.00     0.034 C 
ENDBRANCH  10  11
ENDBRANCH   9  10
ENDBRANCH   1   4
BRANCH   1  13
ATOM     13  C   UNL d   1      26.190 -13.294  -4.720  0.00  0.00     0.185 C 
BRANCH  13  14
ATOM     14  C   UNL d   1      25.901 -13.639  -3.363  0.00  0.00     0.241 C 
ATOM     15  O   UNL d   1      25.351 -12.643  -2.749  0.00  0.00    -0.271 OA
ATOM     16  N   UNL d   1      26.141 -15.363  -2.824  0.00  0.00    -0.355 N 
ATOM     17  H   UNL d   1      26.592 -16.107  -3.387  0.00  0.00     0.162 HD
BRANCH  16  18
ATOM     18  C   UNL d   1      25.226 -16.044  -1.269  0.00  0.00     0.084 C 
ATOM     19  C   UNL d   1      24.154 -17.005  -1.645  0.00  0.00     0.025 C 
ATOM     20  C   UNL d   1      23.630 -17.918  -0.586  0.00  0.00     0.002 C 
ATOM     21  C   UNL d   1      24.802 -18.199   0.322  0.00  0.00     0.002 C 
ATOM     22  C   UNL d   1      25.936 -17.298  -0.146  0.00  0.00     0.025 C 
ENDBRANCH  16  18
ENDBRANCH  13  14
BRANCH  13  23
ATOM     23  C   UNL d   1      25.904 -11.749  -4.719  0.00  0.00     0.031 C 
ATOM     24  C   UNL d   1      25.932 -11.156  -6.073  0.00  0.00     0.007 C 
ENDBRANCH  13  23
ENDBRANCH   1  13
BRANCH   2  25
ATOM     25  C   UNL d   1      28.804 -15.807  -5.023  0.00  0.00     0.115 C 
ATOM     26  S   UNL d   1      29.963 -15.777  -6.271  0.00  0.00     0.019 SA
ATOM     27  N   UNL d   1      31.166 -16.537  -5.387  0.00  0.00    -0.203 NA
ATOM     28  C   UNL d   1      30.671 -16.862  -4.179  0.00  0.00     0.155 C 
ATOM     29  C   UNL d   1      29.280 -16.535  -3.964  0.00  0.00     0.065 C 
BRANCH  28  30
ATOM     30  C   UNL d   1      31.497 -17.401  -3.088  0.00  0.00     0.270 C 
ATOM     31  N   UNL d   1      31.224 -17.008  -1.814  0.00  0.00    -0.365 N 
ATOM     32  H   UNL d   1      30.468 -16.374  -1.597  0.00  0.00     0.159 HD
ATOM     33  H   UNL d   1      31.867 -17.313  -1.096  0.00  0.00     0.159 HD
ATOM     34  O   UNL d   1      32.412 -18.201  -3.285  0.00  0.00    -0.266 OA
ENDBRANCH  28  30
BRANCH  29  35
ATOM     35  N   UNL d   1      28.636 -16.650  -2.761  0.00  0.00    -0.299 NA
ATOM     36  H   UNL d   1      29.098 -17.284  -2.092  0.00  0.00     0.124 HD
ATOM     37  H   UNL d   1      28.394 -15.800  -2.249  0.00  0.00     0.124 HD
ENDBRANCH  29  35
ENDBRANCH   2  25
TORSDOF 10
ENDMDL
