MODEL 1
REMARK VINA RESULT:    -8.085      0.000      0.000
REMARK INTER + INTRA:         -12.406
REMARK INTER:                 -10.471
REMARK INTRA:                  -1.935
REMARK CONF_INDEPENDENT:        2.386
REMARK UNBOUND:                -1.935
REMARK  8 active torsions:
REMARK  status: ('A' for Active; 'I' for Inactive)
REMARK    1  A    between atoms: C_2  and  C_3 
REMARK    2  A    between atoms: C_3  and  C_4 
REMARK    3  A    between atoms: C_4  and  N_5 
REMARK       I    between atoms: N_5  and  C_6 
REMARK       I    between atoms: C_6  and  N_8 
REMARK    4  A    between atoms: N_8  and  N_9 
REMARK       I    between atoms: N_9  and  C_10 
REMARK    5  A    between atoms: C_12  and  C_10 
REMARK    6  A    between atoms: C_12  and  O_14 
REMARK    7  A    between atoms: O_14  and  C_15 
REMARK    8  A    between atoms: C_18  and  O_19 
ROOT
ATOM      1  N   UNL d   1      23.995 -17.963  -0.530  0.00  0.00    -0.264 N 
ATOM      2  C   UNL d   1      25.241 -17.866   0.058  0.00  0.00     0.265 C 
ATOM      3  O   UNL d   1      25.471 -18.574   1.045  0.00  0.00    -0.269 OA
ATOM      4  H   UNL d   1      23.543 -17.185  -1.011  0.00  0.00     0.190 HD
ENDROOT
BRANCH   2   5
ATOM      5  C   UNL d   1      26.308 -16.863  -0.578  0.00  0.00     0.218 C 
ATOM      6  C   UNL d   1      27.297 -16.443   0.526  0.00  0.00     0.050 C 
BRANCH   5   7
ATOM      7  O   UNL d   1      25.978 -15.638  -1.266  0.00  0.00    -0.337 OA
BRANCH   7   8
ATOM      8  C   UNL d   1      26.435 -15.430  -2.541  0.00  0.00     0.070 A 
ATOM      9  C   UNL d   1      25.537 -15.256  -3.598  0.00  0.00     0.039 A 
ATOM     10  C   UNL d   1      26.006 -15.188  -4.933  0.00  0.00     0.039 A 
ATOM     11  C   UNL d   1      27.378 -15.196  -5.215  0.00  0.00     0.068 A 
ATOM     12  C   UNL d   1      28.252 -15.387  -4.165  0.00  0.00     0.039 A 
ATOM     13  C   UNL d   1      27.768 -15.566  -2.876  0.00  0.00     0.039 A 
BRANCH  11  14
ATOM     14  O   UNL d   1      27.779 -15.047  -6.516  0.00  0.00    -0.356 OA
ATOM     15  C   UNL d   1      28.934 -14.220  -6.709  0.00  0.00     0.210 C 
ENDBRANCH  11  14
ENDBRANCH   7   8
ENDBRANCH   5   7
ENDBRANCH   2   5
BRANCH   1  16
ATOM     16  N   UNL d   1      23.095 -18.918  -0.012  0.00  0.00    -0.249 N 
ATOM     17  C   UNL d   1      21.769 -18.802  -0.338  0.00  0.00     0.334 C 
ATOM     18  N   UNL d   1      20.981 -19.833   0.099  0.00  0.00    -0.342 N 
ATOM     19  O   UNL d   1      21.345 -17.843  -0.989  0.00  0.00    -0.246 OA
ATOM     20  H   UNL d   1      21.393 -20.600   0.609  0.00  0.00     0.164 HD
ATOM     21  H   UNL d   1      23.499 -19.664   0.549  0.00  0.00     0.192 HD
BRANCH  18  22
ATOM     22  C   UNL d   1      19.560 -19.839  -0.202  0.00  0.00     0.124 C 
BRANCH  22  23
ATOM     23  C   UNL d   1      18.755 -20.772   0.698  0.00  0.00     0.019 C 
BRANCH  23  24
ATOM     24  C   UNL d   1      18.587 -20.186   2.103  0.00  0.00    -0.003 C 
ATOM     25  C   UNL d   1      19.816 -20.448   2.961  0.00  0.00     0.005 C 
ENDBRANCH  23  24
ENDBRANCH  22  23
ENDBRANCH  18  22
ENDBRANCH   1  16
TORSDOF 8
ENDMDL
MODEL 2
REMARK VINA RESULT:    -7.702      1.157      1.488
REMARK INTER + INTRA:         -11.922
REMARK INTER:                 -10.088
REMARK INTRA:                  -1.833
REMARK CONF_INDEPENDENT:        2.386
REMARK UNBOUND:                -1.833
REMARK  8 active torsions:
REMARK  status: ('A' for Active; 'I' for Inactive)
REMARK    1  A    between atoms: C_2  and  C_3 
REMARK    2  A    between atoms: C_3  and  C_4 
REMARK    3  A    between atoms: C_4  and  N_5 
REMARK       I    between atoms: N_5  and  C_6 
REMARK       I    between atoms: C_6  and  N_8 
REMARK    4  A    between atoms: N_8  and  N_9 
REMARK       I    between atoms: N_9  and  C_10 
REMARK    5  A    between atoms: C_12  and  C_10 
REMARK    6  A    between atoms: C_12  and  O_14 
REMARK    7  A    between atoms: O_14  and  C_15 
REMARK    8  A    between atoms: C_18  and  O_19 
ROOT
ATOM      1  N   UNL d   1      23.159 -17.694  -0.827  0.00  0.00    -0.264 N 
ATOM      2  C   UNL d   1      24.522 -17.581  -0.635  0.00  0.00     0.265 C 
ATOM      3  O   UNL d   1      25.063 -18.370   0.148  0.00  0.00    -0.269 OA
ATOM      4  H   UNL d   1      22.559 -16.901  -1.057  0.00  0.00     0.190 HD
ENDROOT
BRANCH   2   5
ATOM      5  C   UNL d   1      25.313 -16.454  -1.442  0.00  0.00     0.218 C 
ATOM      6  C   UNL d   1      26.257 -15.728  -0.464  0.00  0.00     0.050 C 
BRANCH   5   7
ATOM      7  O   UNL d   1      24.692 -15.399  -2.209  0.00  0.00    -0.337 OA
BRANCH   7   8
ATOM      8  C   UNL d   1      25.379 -14.815  -3.240  0.00  0.00     0.070 A 
ATOM      9  C   UNL d   1      26.453 -15.477  -3.843  0.00  0.00     0.039 A 
ATOM     10  C   UNL d   1      27.252 -14.815  -4.808  0.00  0.00     0.039 A 
ATOM     11  C   UNL d   1      26.928 -13.525  -5.248  0.00  0.00     0.068 A 
ATOM     12  C   UNL d   1      25.878 -12.877  -4.632  0.00  0.00     0.039 A 
ATOM     13  C   UNL d   1      25.176 -13.500  -3.608  0.00  0.00     0.039 A 
BRANCH  11  14
ATOM     14  O   UNL d   1      27.687 -12.963  -6.241  0.00  0.00    -0.356 OA
ATOM     15  C   UNL d   1      28.559 -13.868  -6.930  0.00  0.00     0.210 C 
ENDBRANCH  11  14
ENDBRANCH   7   8
ENDBRANCH   5   7
ENDBRANCH   2   5
BRANCH   1  16
ATOM     16  N   UNL d   1      22.488 -18.751  -0.176  0.00  0.00    -0.249 N 
ATOM     17  C   UNL d   1      21.165 -18.956  -0.469  0.00  0.00     0.334 C 
ATOM     18  N   UNL d   1      20.619 -20.072   0.106  0.00  0.00    -0.342 N 
ATOM     19  O   UNL d   1      20.540 -18.190  -1.208  0.00  0.00    -0.246 OA
ATOM     20  H   UNL d   1      21.189 -20.671   0.685  0.00  0.00     0.164 HD
ATOM     21  H   UNL d   1      23.046 -19.325   0.451  0.00  0.00     0.192 HD
BRANCH  18  22
ATOM     22  C   UNL d   1      19.229 -20.413  -0.145  0.00  0.00     0.124 C 
BRANCH  22  23
ATOM     23  C   UNL d   1      18.583 -21.195   0.995  0.00  0.00     0.019 C 
BRANCH  23  24
ATOM     24  C   UNL d   1      18.569 -20.381   2.293  0.00  0.00    -0.003 C 
ATOM     25  C   UNL d   1      19.913 -20.451   3.002  0.00  0.00     0.005 C 
ENDBRANCH  23  24
ENDBRANCH  22  23
ENDBRANCH  18  22
ENDBRANCH   1  16
TORSDOF 8
ENDMDL
MODEL 3
REMARK VINA RESULT:    -7.629      1.432      1.562
REMARK INTER + INTRA:         -11.878
REMARK INTER:                 -10.016
REMARK INTRA:                  -1.862
REMARK CONF_INDEPENDENT:        2.386
REMARK UNBOUND:                -1.862
REMARK  8 active torsions:
REMARK  status: ('A' for Active; 'I' for Inactive)
REMARK    1  A    between atoms: C_2  and  C_3 
REMARK    2  A    between atoms: C_3  and  C_4 
REMARK    3  A    between atoms: C_4  and  N_5 
REMARK       I    between atoms: N_5  and  C_6 
REMARK       I    between atoms: C_6  and  N_8 
REMARK    4  A    between atoms: N_8  and  N_9 
REMARK       I    between atoms: N_9  and  C_10 
REMARK    5  A    between atoms: C_12  and  C_10 
REMARK    6  A    between atoms: C_12  and  O_14 
REMARK    7  A    between atoms: O_14  and  C_15 
REMARK    8  A    between atoms: C_18  and  O_19 
ROOT
ATOM      1  N   UNL d   1      23.283 -17.664  -0.923  0.00  0.00    -0.264 N 
ATOM      2  C   UNL d   1      24.623 -17.454  -0.662  0.00  0.00     0.265 C 
ATOM      3  O   UNL d   1      25.168 -18.178   0.180  0.00  0.00    -0.269 OA
ATOM      4  H   UNL d   1      22.648 -16.921  -1.215  0.00  0.00     0.190 HD
ENDROOT
BRANCH   2   5
ATOM      5  C   UNL d   1      25.385 -16.307  -1.469  0.00  0.00     0.218 C 
ATOM      6  C   UNL d   1      26.230 -15.492  -0.471  0.00  0.00     0.050 C 
BRANCH   5   7
ATOM      7  O   UNL d   1      24.742 -15.319  -2.303  0.00  0.00    -0.337 OA
BRANCH   7   8
ATOM      8  C   UNL d   1      25.466 -14.668  -3.265  0.00  0.00     0.070 A 
ATOM      9  C   UNL d   1      25.268 -13.304  -3.502  0.00  0.00     0.039 A 
ATOM     10  C   UNL d   1      25.910 -12.665  -4.592  0.00  0.00     0.039 A 
ATOM     11  C   UNL d   1      26.826 -13.357  -5.393  0.00  0.00     0.068 A 
ATOM     12  C   UNL d   1      26.998 -14.706  -5.161  0.00  0.00     0.039 A 
ATOM     13  C   UNL d   1      26.275 -15.341  -4.160  0.00  0.00     0.039 A 
BRANCH  11  14
ATOM     14  O   UNL d   1      27.478 -12.670  -6.383  0.00  0.00    -0.356 OA
ATOM     15  C   UNL d   1      26.937 -11.379  -6.690  0.00  0.00     0.210 C 
ENDBRANCH  11  14
ENDBRANCH   7   8
ENDBRANCH   5   7
ENDBRANCH   2   5
BRANCH   1  16
ATOM     16  N   UNL d   1      22.646 -18.739  -0.268  0.00  0.00    -0.249 N 
ATOM     17  C   UNL d   1      21.314 -18.950  -0.514  0.00  0.00     0.334 C 
ATOM     18  N   UNL d   1      20.798 -20.081   0.059  0.00  0.00    -0.342 N 
ATOM     19  O   UNL d   1      20.655 -18.175  -1.214  0.00  0.00    -0.246 OA
ATOM     20  H   UNL d   1      21.395 -20.686   0.603  0.00  0.00     0.164 HD
ATOM     21  H   UNL d   1      23.231 -19.320   0.326  0.00  0.00     0.192 HD
BRANCH  18  22
ATOM     22  C   UNL d   1      19.403 -20.428  -0.146  0.00  0.00     0.124 C 
BRANCH  22  23
ATOM     23  C   UNL d   1      18.766 -21.110   1.061  0.00  0.00     0.019 C 
BRANCH  23  24
ATOM     24  C   UNL d   1      18.775 -20.195   2.290  0.00  0.00    -0.003 C 
ATOM     25  C   UNL d   1      20.173 -20.075   2.878  0.00  0.00     0.005 C 
ENDBRANCH  23  24
ENDBRANCH  22  23
ENDBRANCH  18  22
ENDBRANCH   1  16
TORSDOF 8
ENDMDL
MODEL 4
REMARK VINA RESULT:    -7.396      1.443      1.775
REMARK INTER + INTRA:         -11.662
REMARK INTER:                  -9.783
REMARK INTRA:                  -1.880
REMARK CONF_INDEPENDENT:        2.386
REMARK UNBOUND:                -1.880
REMARK  8 active torsions:
REMARK  status: ('A' for Active; 'I' for Inactive)
REMARK    1  A    between atoms: C_2  and  C_3 
REMARK    2  A    between atoms: C_3  and  C_4 
REMARK    3  A    between atoms: C_4  and  N_5 
REMARK       I    between atoms: N_5  and  C_6 
REMARK       I    between atoms: C_6  and  N_8 
REMARK    4  A    between atoms: N_8  and  N_9 
REMARK       I    between atoms: N_9  and  C_10 
REMARK    5  A    between atoms: C_12  and  C_10 
REMARK    6  A    between atoms: C_12  and  O_14 
REMARK    7  A    between atoms: O_14  and  C_15 
REMARK    8  A    between atoms: C_18  and  O_19 
ROOT
ATOM      1  N   UNL d   1      23.700 -17.411  -1.281  0.00  0.00    -0.264 N 
ATOM      2  C   UNL d   1      25.052 -17.196  -1.098  0.00  0.00     0.265 C 
ATOM      3  O   UNL d   1      25.638 -17.884  -0.254  0.00  0.00    -0.269 OA
ATOM      4  H   UNL d   1      23.053 -16.679  -1.573  0.00  0.00     0.190 HD
ENDROOT
BRANCH   2   5
ATOM      5  C   UNL d   1      25.775 -16.089  -1.992  0.00  0.00     0.218 C 
ATOM      6  C   UNL d   1      26.279 -14.968  -1.062  0.00  0.00     0.050 C 
BRANCH   5   7
ATOM      7  O   UNL d   1      25.165 -15.401  -3.105  0.00  0.00    -0.337 OA
BRANCH   7   8
ATOM      8  C   UNL d   1      25.939 -14.639  -3.939  0.00  0.00     0.070 A 
ATOM      9  C   UNL d   1      25.777 -13.251  -3.987  0.00  0.00     0.039 A 
ATOM     10  C   UNL d   1      26.473 -12.481  -4.952  0.00  0.00     0.039 A 
ATOM     11  C   UNL d   1      27.406 -13.075  -5.810  0.00  0.00     0.068 A 
ATOM     12  C   UNL d   1      27.542 -14.448  -5.765  0.00  0.00     0.039 A 
ATOM     13  C   UNL d   1      26.768 -15.199  -4.890  0.00  0.00     0.039 A 
BRANCH  11  14
ATOM     14  O   UNL d   1      28.109 -12.273  -6.668  0.00  0.00    -0.356 OA
ATOM     15  C   UNL d   1      28.908 -12.965  -7.637  0.00  0.00     0.210 C 
ENDBRANCH  11  14
ENDBRANCH   7   8
ENDBRANCH   5   7
ENDBRANCH   2   5
BRANCH   1  16
ATOM     16  N   UNL d   1      23.095 -18.454  -0.548  0.00  0.00    -0.249 N 
ATOM     17  C   UNL d   1      21.735 -18.604  -0.638  0.00  0.00     0.334 C 
ATOM     18  N   UNL d   1      21.238 -19.708   0.000  0.00  0.00    -0.342 N 
ATOM     19  O   UNL d   1      21.036 -17.802  -1.264  0.00  0.00    -0.246 OA
ATOM     20  H   UNL d   1      21.866 -20.338   0.478  0.00  0.00     0.164 HD
ATOM     21  H   UNL d   1      23.718 -19.059  -0.020  0.00  0.00     0.192 HD
BRANCH  18  22
ATOM     22  C   UNL d   1      19.814 -19.992  -0.040  0.00  0.00     0.124 C 
BRANCH  22  23
ATOM     23  C   UNL d   1      19.075 -19.558   1.223  0.00  0.00     0.019 C 
BRANCH  23  24
ATOM     24  C   UNL d   1      18.461 -20.759   1.951  0.00  0.00    -0.003 C 
ATOM     25  C   UNL d   1      17.837 -21.739   0.969  0.00  0.00     0.005 C 
ENDBRANCH  23  24
ENDBRANCH  22  23
ENDBRANCH  18  22
ENDBRANCH   1  16
TORSDOF 8
ENDMDL
MODEL 5
REMARK VINA RESULT:    -6.750      4.641      9.160
REMARK INTER + INTRA:         -10.921
REMARK INTER:                  -9.136
REMARK INTRA:                  -1.785
REMARK CONF_INDEPENDENT:        2.386
REMARK UNBOUND:                -1.785
REMARK  8 active torsions:
REMARK  status: ('A' for Active; 'I' for Inactive)
REMARK    1  A    between atoms: C_2  and  C_3 
REMARK    2  A    between atoms: C_3  and  C_4 
REMARK    3  A    between atoms: C_4  and  N_5 
REMARK       I    between atoms: N_5  and  C_6 
REMARK       I    between atoms: C_6  and  N_8 
REMARK    4  A    between atoms: N_8  and  N_9 
REMARK       I    between atoms: N_9  and  C_10 
REMARK    5  A    between atoms: C_12  and  C_10 
REMARK    6  A    between atoms: C_12  and  O_14 
REMARK    7  A    between atoms: O_14  and  C_15 
REMARK    8  A    between atoms: C_18  and  O_19 
ROOT
ATOM      1  N   UNL d   1      25.816 -12.862  -2.835  0.00  0.00    -0.264 N 
ATOM      2  C   UNL d   1      25.302 -14.136  -2.692  0.00  0.00     0.265 C 
ATOM      3  O   UNL d   1      24.410 -14.491  -3.471  0.00  0.00    -0.269 OA
ATOM      4  H   UNL d   1      26.184 -12.317  -2.055  0.00  0.00     0.190 HD
ENDROOT
BRANCH   2   5
ATOM      5  C   UNL d   1      25.898 -15.073  -1.545  0.00  0.00     0.218 C 
ATOM      6  C   UNL d   1      26.505 -16.325  -2.206  0.00  0.00     0.050 C 
BRANCH   5   7
ATOM      7  O   UNL d   1      25.147 -15.576  -0.419  0.00  0.00    -0.337 OA
BRANCH   7   8
ATOM      8  C   UNL d   1      24.241 -16.587  -0.604  0.00  0.00     0.070 A 
ATOM      9  C   UNL d   1      22.896 -16.299  -0.849  0.00  0.00     0.039 A 
ATOM     10  C   UNL d   1      21.936 -17.341  -0.895  0.00  0.00     0.039 A 
ATOM     11  C   UNL d   1      22.326 -18.683  -0.794  0.00  0.00     0.068 A 
ATOM     12  C   UNL d   1      23.654 -18.952  -0.533  0.00  0.00     0.039 A 
ATOM     13  C   UNL d   1      24.560 -17.912  -0.378  0.00  0.00     0.039 A 
BRANCH  11  14
ATOM     14  O   UNL d   1      21.369 -19.653  -0.925  0.00  0.00    -0.356 OA
ATOM     15  C   UNL d   1      20.131 -19.387  -0.252  0.00  0.00     0.210 C 
ENDBRANCH  11  14
ENDBRANCH   7   8
ENDBRANCH   5   7
ENDBRANCH   2   5
BRANCH   1  16
ATOM     16  N   UNL d   1      25.342 -12.079  -3.909  0.00  0.00    -0.249 N 
ATOM     17  C   UNL d   1      25.928 -10.859  -4.128  0.00  0.00     0.334 C 
ATOM     18  N   UNL d   1      25.501 -10.215  -5.258  0.00  0.00    -0.342 N 
ATOM     19  O   UNL d   1      26.781 -10.404  -3.361  0.00  0.00    -0.246 OA
ATOM     20  H   UNL d   1      24.814 -10.651  -5.857  0.00  0.00     0.164 HD
ATOM     21  H   UNL d   1      24.612 -12.491  -4.484  0.00  0.00     0.192 HD
BRANCH  18  22
ATOM     22  C   UNL d   1      26.061  -8.923  -5.614  0.00  0.00     0.124 C 
BRANCH  22  23
ATOM     23  C   UNL d   1      25.011  -7.913  -6.069  0.00  0.00     0.019 C 
BRANCH  23  24
ATOM     24  C   UNL d   1      23.593  -8.410  -5.771  0.00  0.00    -0.003 C 
ATOM     25  C   UNL d   1      22.722  -7.292  -5.218  0.00  0.00     0.005 C 
ENDBRANCH  23  24
ENDBRANCH  22  23
ENDBRANCH  18  22
ENDBRANCH   1  16
TORSDOF 8
ENDMDL
MODEL 6
REMARK VINA RESULT:    -6.687      2.643      4.975
REMARK INTER + INTRA:         -10.944
REMARK INTER:                  -9.073
REMARK INTRA:                  -1.871
REMARK CONF_INDEPENDENT:        2.386
REMARK UNBOUND:                -1.871
REMARK  8 active torsions:
REMARK  status: ('A' for Active; 'I' for Inactive)
REMARK    1  A    between atoms: C_2  and  C_3 
REMARK    2  A    between atoms: C_3  and  C_4 
REMARK    3  A    between atoms: C_4  and  N_5 
REMARK       I    between atoms: N_5  and  C_6 
REMARK       I    between atoms: C_6  and  N_8 
REMARK    4  A    between atoms: N_8  and  N_9 
REMARK       I    between atoms: N_9  and  C_10 
REMARK    5  A    between atoms: C_12  and  C_10 
REMARK    6  A    between atoms: C_12  and  O_14 
REMARK    7  A    between atoms: O_14  and  C_15 
REMARK    8  A    between atoms: C_18  and  O_19 
ROOT
ATOM      1  N   UNL d   1      23.900 -17.154  -0.715  0.00  0.00    -0.264 N 
ATOM      2  C   UNL d   1      25.240 -16.972  -0.435  0.00  0.00     0.265 C 
ATOM      3  O   UNL d   1      25.808 -17.827   0.256  0.00  0.00    -0.269 OA
ATOM      4  H   UNL d   1      23.250 -16.382  -0.861  0.00  0.00     0.190 HD
ENDROOT
BRANCH   2   5
ATOM      5  C   UNL d   1      25.974 -15.685  -1.029  0.00  0.00     0.218 C 
ATOM      6  C   UNL d   1      26.178 -15.897  -2.542  0.00  0.00     0.050 C 
BRANCH   5   7
ATOM      7  O   UNL d   1      27.234 -15.163  -0.555  0.00  0.00    -0.337 OA
BRANCH   7   8
ATOM      8  C   UNL d   1      27.301 -14.558   0.672  0.00  0.00     0.070 A 
ATOM      9  C   UNL d   1      26.500 -13.450   0.961  0.00  0.00     0.039 A 
ATOM     10  C   UNL d   1      26.673 -12.737   2.174  0.00  0.00     0.039 A 
ATOM     11  C   UNL d   1      27.577 -13.182   3.147  0.00  0.00     0.068 A 
ATOM     12  C   UNL d   1      28.374 -14.266   2.841  0.00  0.00     0.039 A 
ATOM     13  C   UNL d   1      28.270 -14.882   1.601  0.00  0.00     0.039 A 
BRANCH  11  14
ATOM     14  O   UNL d   1      27.647 -12.503   4.334  0.00  0.00    -0.356 OA
ATOM     15  C   UNL d   1      27.819 -13.321   5.498  0.00  0.00     0.210 C 
ENDBRANCH  11  14
ENDBRANCH   7   8
ENDBRANCH   5   7
ENDBRANCH   2   5
BRANCH   1  16
ATOM     16  N   UNL d   1      23.288 -18.341  -0.259  0.00  0.00    -0.249 N 
ATOM     17  C   UNL d   1      21.936 -18.481  -0.437  0.00  0.00     0.334 C 
ATOM     18  N   UNL d   1      21.437 -19.706  -0.082  0.00  0.00    -0.342 N 
ATOM     19  O   UNL d   1      21.245 -17.567  -0.896  0.00  0.00    -0.246 OA
ATOM     20  H   UNL d   1      22.059 -20.421   0.268  0.00  0.00     0.164 HD
ATOM     21  H   UNL d   1      23.903 -19.043   0.145  0.00  0.00     0.192 HD
BRANCH  18  22
ATOM     22  C   UNL d   1      20.021 -19.989  -0.243  0.00  0.00     0.124 C 
BRANCH  22  23
ATOM     23  C   UNL d   1      19.150 -19.344   0.831  0.00  0.00     0.019 C 
BRANCH  23  24
ATOM     24  C   UNL d   1      18.505 -20.400   1.736  0.00  0.00    -0.003 C 
ATOM     25  C   UNL d   1      18.024 -21.596   0.930  0.00  0.00     0.005 C 
ENDBRANCH  23  24
ENDBRANCH  22  23
ENDBRANCH  18  22
ENDBRANCH   1  16
TORSDOF 8
ENDMDL
MODEL 7
REMARK VINA RESULT:    -6.408      4.111      8.128
REMARK INTER + INTRA:         -10.682
REMARK INTER:                  -8.795
REMARK INTRA:                  -1.888
REMARK CONF_INDEPENDENT:        2.386
REMARK UNBOUND:                -1.888
REMARK  8 active torsions:
REMARK  status: ('A' for Active; 'I' for Inactive)
REMARK    1  A    between atoms: C_2  and  C_3 
REMARK    2  A    between atoms: C_3  and  C_4 
REMARK    3  A    between atoms: C_4  and  N_5 
REMARK       I    between atoms: N_5  and  C_6 
REMARK       I    between atoms: C_6  and  N_8 
REMARK    4  A    between atoms: N_8  and  N_9 
REMARK       I    between atoms: N_9  and  C_10 
REMARK    5  A    between atoms: C_12  and  C_10 
REMARK    6  A    between atoms: C_12  and  O_14 
REMARK    7  A    between atoms: O_14  and  C_15 
REMARK    8  A    between atoms: C_18  and  O_19 
ROOT
ATOM      1  N   UNL d   1      27.258 -15.049   0.730  0.00  0.00    -0.264 N 
ATOM      2  C   UNL d   1      27.404 -15.886  -0.358  0.00  0.00     0.265 C 
ATOM      3  O   UNL d   1      28.362 -16.669  -0.361  0.00  0.00    -0.269 OA
ATOM      4  H   UNL d   1      26.835 -14.123   0.670  0.00  0.00     0.190 HD
ENDROOT
BRANCH   2   5
ATOM      5  C   UNL d   1      26.326 -15.803  -1.532  0.00  0.00     0.218 C 
ATOM      6  C   UNL d   1      26.799 -14.749  -2.552  0.00  0.00     0.050 C 
BRANCH   5   7
ATOM      7  O   UNL d   1      24.921 -15.532  -1.343  0.00  0.00    -0.337 OA
BRANCH   7   8
ATOM      8  C   UNL d   1      24.045 -16.571  -1.172  0.00  0.00     0.070 A 
ATOM      9  C   UNL d   1      22.697 -16.325  -0.895  0.00  0.00     0.039 A 
ATOM     10  C   UNL d   1      21.825 -17.395  -0.574  0.00  0.00     0.039 A 
ATOM     11  C   UNL d   1      22.267 -18.723  -0.624  0.00  0.00     0.068 A 
ATOM     12  C   UNL d   1      23.603 -18.950  -0.880  0.00  0.00     0.039 A 
ATOM     13  C   UNL d   1      24.468 -17.883  -1.080  0.00  0.00     0.039 A 
BRANCH  11  14
ATOM     14  O   UNL d   1      21.362 -19.723  -0.384  0.00  0.00    -0.356 OA
ATOM     15  C   UNL d   1      19.987 -19.357  -0.555  0.00  0.00     0.210 C 
ENDBRANCH  11  14
ENDBRANCH   7   8
ENDBRANCH   5   7
ENDBRANCH   2   5
BRANCH   1  16
ATOM     16  N   UNL d   1      28.166 -15.196   1.800  0.00  0.00    -0.249 N 
ATOM     17  C   UNL d   1      28.069 -14.327   2.856  0.00  0.00     0.334 C 
ATOM     18  N   UNL d   1      28.900 -14.609   3.907  0.00  0.00    -0.342 N 
ATOM     19  O   UNL d   1      27.277 -13.381   2.844  0.00  0.00    -0.246 OA
ATOM     20  H   UNL d   1      29.511 -15.412   3.864  0.00  0.00     0.164 HD
ATOM     21  H   UNL d   1      28.821 -15.971   1.737  0.00  0.00     0.192 HD
BRANCH  18  22
ATOM     22  C   UNL d   1      28.877 -13.775   5.096  0.00  0.00     0.124 C 
BRANCH  22  23
ATOM     23  C   UNL d   1      29.492 -14.449   6.319  0.00  0.00     0.019 C 
BRANCH  23  24
ATOM     24  C   UNL d   1      29.073 -13.747   7.615  0.00  0.00    -0.003 C 
ATOM     25  C   UNL d   1      28.160 -12.564   7.330  0.00  0.00     0.005 C 
ENDBRANCH  23  24
ENDBRANCH  22  23
ENDBRANCH  18  22
ENDBRANCH   1  16
TORSDOF 8
ENDMDL
MODEL 8
REMARK VINA RESULT:    -6.332      4.233      8.205
REMARK INTER + INTRA:         -10.606
REMARK INTER:                  -8.718
REMARK INTRA:                  -1.889
REMARK CONF_INDEPENDENT:        2.386
REMARK UNBOUND:                -1.889
REMARK  8 active torsions:
REMARK  status: ('A' for Active; 'I' for Inactive)
REMARK    1  A    between atoms: C_2  and  C_3 
REMARK    2  A    between atoms: C_3  and  C_4 
REMARK    3  A    between atoms: C_4  and  N_5 
REMARK       I    between atoms: N_5  and  C_6 
REMARK       I    between atoms: C_6  and  N_8 
REMARK    4  A    between atoms: N_8  and  N_9 
REMARK       I    between atoms: N_9  and  C_10 
REMARK    5  A    between atoms: C_12  and  C_10 
REMARK    6  A    between atoms: C_12  and  O_14 
REMARK    7  A    between atoms: O_14  and  C_15 
REMARK    8  A    between atoms: C_18  and  O_19 
ROOT
ATOM      1  N   UNL d   1      27.268 -15.107   0.747  0.00  0.00    -0.264 N 
ATOM      2  C   UNL d   1      27.634 -15.809  -0.384  0.00  0.00     0.265 C 
ATOM      3  O   UNL d   1      28.710 -16.419  -0.363  0.00  0.00    -0.269 OA
ATOM      4  H   UNL d   1      26.698 -14.261   0.720  0.00  0.00     0.190 HD
ENDROOT
BRANCH   2   5
ATOM      5  C   UNL d   1      26.646 -15.801  -1.637  0.00  0.00     0.218 C 
ATOM      6  C   UNL d   1      27.179 -14.789  -2.670  0.00  0.00     0.050 C 
BRANCH   5   7
ATOM      7  O   UNL d   1      25.227 -15.546  -1.567  0.00  0.00    -0.337 OA
BRANCH   7   8
ATOM      8  C   UNL d   1      24.385 -16.515  -1.089  0.00  0.00     0.070 A 
ATOM      9  C   UNL d   1      24.849 -17.817  -0.878  0.00  0.00     0.039 A 
ATOM     10  C   UNL d   1      23.946 -18.851  -0.524  0.00  0.00     0.039 A 
ATOM     11  C   UNL d   1      22.595 -18.575  -0.285  0.00  0.00     0.068 A 
ATOM     12  C   UNL d   1      22.146 -17.290  -0.516  0.00  0.00     0.039 A 
ATOM     13  C   UNL d   1      23.024 -16.316  -0.972  0.00  0.00     0.039 A 
BRANCH  11  14
ATOM     14  O   UNL d   1      21.783 -19.596   0.132  0.00  0.00    -0.356 OA
ATOM     15  C   UNL d   1      20.416 -19.502  -0.289  0.00  0.00     0.210 C 
ENDBRANCH  11  14
ENDBRANCH   7   8
ENDBRANCH   5   7
ENDBRANCH   2   5
BRANCH   1  16
ATOM     16  N   UNL d   1      28.108 -15.196   1.878  0.00  0.00    -0.249 N 
ATOM     17  C   UNL d   1      27.785 -14.454   2.984  0.00  0.00     0.334 C 
ATOM     18  N   UNL d   1      28.574 -14.687   4.079  0.00  0.00    -0.342 N 
ATOM     19  O   UNL d   1      26.844 -13.655   2.976  0.00  0.00    -0.246 OA
ATOM     20  H   UNL d   1      29.316 -15.370   4.028  0.00  0.00     0.164 HD
ATOM     21  H   UNL d   1      28.889 -15.843   1.813  0.00  0.00     0.192 HD
BRANCH  18  22
ATOM     22  C   UNL d   1      28.320 -13.978   5.322  0.00  0.00     0.124 C 
BRANCH  22  23
ATOM     23  C   UNL d   1      29.386 -14.225   6.386  0.00  0.00     0.019 C 
BRANCH  23  24
ATOM     24  C   UNL d   1      29.147 -13.358   7.627  0.00  0.00    -0.003 C 
ATOM     25  C   UNL d   1      30.144 -13.684   8.728  0.00  0.00     0.005 C 
ENDBRANCH  23  24
ENDBRANCH  22  23
ENDBRANCH  18  22
ENDBRANCH   1  16
TORSDOF 8
ENDMDL
MODEL 9
REMARK VINA RESULT:    -6.305      2.203      4.145
REMARK INTER + INTRA:         -10.365
REMARK INTER:                  -8.691
REMARK INTRA:                  -1.674
REMARK CONF_INDEPENDENT:        2.386
REMARK UNBOUND:                -1.674
REMARK  8 active torsions:
REMARK  status: ('A' for Active; 'I' for Inactive)
REMARK    1  A    between atoms: C_2  and  C_3 
REMARK    2  A    between atoms: C_3  and  C_4 
REMARK    3  A    between atoms: C_4  and  N_5 
REMARK       I    between atoms: N_5  and  C_6 
REMARK       I    between atoms: C_6  and  N_8 
REMARK    4  A    between atoms: N_8  and  N_9 
REMARK       I    between atoms: N_9  and  C_10 
REMARK    5  A    between atoms: C_12  and  C_10 
REMARK    6  A    between atoms: C_12  and  O_14 
REMARK    7  A    between atoms: O_14  and  C_15 
REMARK    8  A    between atoms: C_18  and  O_19 
ROOT
ATOM      1  N   UNL d   1      25.438 -16.005  -2.613  0.00  0.00    -0.264 N 
ATOM      2  C   UNL d   1      25.599 -15.110  -3.652  0.00  0.00     0.265 C 
ATOM      3  O   UNL d   1      24.614 -14.450  -4.004  0.00  0.00    -0.269 OA
ATOM      4  H   UNL d   1      25.978 -16.866  -2.529  0.00  0.00     0.190 HD
ENDROOT
BRANCH   2   5
ATOM      5  C   UNL d   1      27.041 -14.972  -4.322  0.00  0.00     0.218 C 
ATOM      6  C   UNL d   1      27.576 -13.556  -4.035  0.00  0.00     0.050 C 
BRANCH   5   7
ATOM      7  O   UNL d   1      27.326 -15.200  -5.719  0.00  0.00    -0.337 OA
BRANCH   7   8
ATOM      8  C   UNL d   1      28.556 -14.870  -6.224  0.00  0.00     0.070 A 
ATOM      9  C   UNL d   1      28.720 -13.719  -7.000  0.00  0.00     0.039 A 
ATOM     10  C   UNL d   1      29.956 -13.457  -7.641  0.00  0.00     0.039 A 
ATOM     11  C   UNL d   1      31.064 -14.289  -7.435  0.00  0.00     0.068 A 
ATOM     12  C   UNL d   1      30.883 -15.431  -6.683  0.00  0.00     0.039 A 
ATOM     13  C   UNL d   1      29.634 -15.731  -6.155  0.00  0.00     0.039 A 
BRANCH  11  14
ATOM     14  O   UNL d   1      32.256 -13.945  -8.014  0.00  0.00    -0.356 OA
ATOM     15  C   UNL d   1      32.152 -13.210  -9.240  0.00  0.00     0.210 C 
ENDBRANCH  11  14
ENDBRANCH   7   8
ENDBRANCH   5   7
ENDBRANCH   2   5
BRANCH   1  16
ATOM     16  N   UNL d   1      24.182 -16.051  -1.972  0.00  0.00    -0.249 N 
ATOM     17  C   UNL d   1      23.854 -17.181  -1.268  0.00  0.00     0.334 C 
ATOM     18  N   UNL d   1      22.677 -17.101  -0.575  0.00  0.00    -0.342 N 
ATOM     19  O   UNL d   1      24.587 -18.174  -1.263  0.00  0.00    -0.246 OA
ATOM     20  H   UNL d   1      22.132 -16.251  -0.603  0.00  0.00     0.164 HD
ATOM     21  H   UNL d   1      23.606 -15.216  -2.043  0.00  0.00     0.192 HD
BRANCH  18  22
ATOM     22  C   UNL d   1      22.229 -18.226   0.228  0.00  0.00     0.124 C 
BRANCH  22  23
ATOM     23  C   UNL d   1      21.130 -19.047  -0.441  0.00  0.00     0.019 C 
BRANCH  23  24
ATOM     24  C   UNL d   1      20.273 -19.783   0.594  0.00  0.00    -0.003 C 
ATOM     25  C   UNL d   1      18.941 -20.215   0.001  0.00  0.00     0.005 C 
ENDBRANCH  23  24
ENDBRANCH  22  23
ENDBRANCH  18  22
ENDBRANCH   1  16
TORSDOF 8
ENDMDL
