MODEL 1
REMARK VINA RESULT:   -10.638      0.000      0.000
REMARK INTER + INTRA:         -13.022
REMARK INTER:                 -12.427
REMARK INTRA:                  -0.594
REMARK CONF_INDEPENDENT:        1.790
REMARK UNBOUND:                -0.594
REMARK  6 active torsions:
REMARK  status: ('A' for Active; 'I' for Inactive)
REMARK       I    between atoms: N_13  and  C_14 
REMARK    1  A    between atoms: C_14  and  C_16 
REMARK    2  A    between atoms: C_16  and  S_17 
REMARK    3  A    between atoms: S_17  and  C_18 
REMARK    4  A    between atoms: C_21  and  N_22 
REMARK    5  A    between atoms: N_22  and  C_23 
REMARK    6  A    between atoms: C_23  and  C_24 
ROOT
ATOM      1  C   UNL d   1      27.918 -12.451  -1.637  0.00  0.00     0.033 C 
ATOM      2  C   UNL d   1      27.526 -11.946  -3.035  0.00  0.00     0.097 C 
ATOM      3  C   UNL d   1      26.654 -10.698  -2.853  0.00  0.00     0.122 C 
ATOM      4  C   UNL d   1      26.577  -9.855  -4.092  0.00  0.00     0.203 C 
ATOM      5  O   UNL d   1      27.120  -8.739  -4.159  0.00  0.00    -0.279 OA
ATOM      6  N   UNL d   1      25.891 -10.369  -5.155  0.00  0.00    -0.227 NA
ATOM      7  C   UNL d   1      26.581 -11.332  -5.916  0.00  0.00     0.042 A 
ATOM      8  C   UNL d   1      26.805 -10.906  -7.239  0.00  0.00     0.026 A 
ATOM      9  C   UNL d   1      27.613 -11.641  -8.087  0.00  0.00     0.002 A 
ATOM     10  C   UNL d   1      28.159 -12.832  -7.617  0.00  0.00     0.002 A 
ATOM     11  C   UNL d   1      27.885 -13.302  -6.304  0.00  0.00     0.031 A 
ATOM     12  C   UNL d   1      27.092 -12.555  -5.407  0.00  0.00     0.059 A 
ATOM     13  N   UNL d   1      26.940 -12.959  -3.983  0.00  0.00    -0.311 N 
ATOM     14  C   UNL d   1      26.191 -14.139  -3.676  0.00  0.00     0.234 C 
ATOM     15  O   UNL d   1      25.724 -14.829  -4.592  0.00  0.00    -0.272 OA
ATOM     16  H   UNL d   1      24.926 -10.628  -4.981  0.00  0.00     0.136 HD
ENDROOT
BRANCH  14  17
ATOM     17  C   UNL d   1      25.922 -14.561  -2.175  0.00  0.00     0.184 C 
BRANCH  17  18
ATOM     18  S   UNL d   1      26.936 -15.997  -1.612  0.00  0.00    -0.092 SA
BRANCH  18  19
ATOM     19  C   UNL d   1      25.796 -17.162  -0.910  0.00  0.00     0.160 A 
ATOM     20  N   UNL d   1      25.968 -17.755   0.251  0.00  0.00    -0.133 NA
ATOM     21  N   UNL d   1      24.862 -18.524   0.615  0.00  0.00    -0.123 NA
ATOM     22  C   UNL d   1      23.879 -18.497  -0.266  0.00  0.00     0.190 A 
ATOM     23  S   UNL d   1      24.254 -17.489  -1.619  0.00  0.00    -0.022 SA
BRANCH  22  24
ATOM     24  N   UNL d   1      22.725 -19.198  -0.095  0.00  0.00    -0.363 N 
ATOM     25  H   UNL d   1      22.839 -20.155   0.205  0.00  0.00     0.162 HD
BRANCH  24  26
ATOM     26  C   UNL d   1      21.393 -18.752  -0.469  0.00  0.00     0.160 C 
BRANCH  26  27
ATOM     27  C   UNL d   1      20.255 -19.478   0.247  0.00  0.00    -0.041 C 
ATOM     28  C   UNL d   1      20.173 -19.618   1.640  0.00  0.00     0.009 C 
ATOM     29  C   UNL d   1      19.221 -20.452   2.232  0.00  0.00     0.001 C 
ATOM     30  C   UNL d   1      18.239 -21.051   1.455  0.00  0.00     0.000 C 
ATOM     31  C   UNL d   1      18.205 -20.808   0.085  0.00  0.00     0.001 C 
ATOM     32  C   UNL d   1      19.231 -20.071  -0.521  0.00  0.00     0.009 C 
ENDBRANCH  26  27
ENDBRANCH  24  26
ENDBRANCH  22  24
ENDBRANCH  18  19
ENDBRANCH  17  18
ENDBRANCH  14  17
TORSDOF 6
ENDMDL
MODEL 2
REMARK VINA RESULT:    -9.898      3.881      9.341
REMARK INTER + INTRA:         -12.600
REMARK INTER:                 -11.687
REMARK INTRA:                  -0.913
REMARK CONF_INDEPENDENT:        1.790
REMARK UNBOUND:                -0.913
REMARK  6 active torsions:
REMARK  status: ('A' for Active; 'I' for Inactive)
REMARK       I    between atoms: N_13  and  C_14 
REMARK    1  A    between atoms: C_14  and  C_16 
REMARK    2  A    between atoms: C_16  and  S_17 
REMARK    3  A    between atoms: S_17  and  C_18 
REMARK    4  A    between atoms: C_21  and  N_22 
REMARK    5  A    between atoms: N_22  and  C_23 
REMARK    6  A    between atoms: C_23  and  C_24 
ROOT
ATOM      1  C   UNL d   1      26.782 -13.852   0.346  0.00  0.00     0.033 C 
ATOM      2  C   UNL d   1      26.151 -15.229   0.086  0.00  0.00     0.097 C 
ATOM      3  C   UNL d   1      27.280 -16.265   0.069  0.00  0.00     0.122 C 
ATOM      4  C   UNL d   1      26.788 -17.667   0.277  0.00  0.00     0.203 C 
ATOM      5  O   UNL d   1      27.030 -18.298   1.320  0.00  0.00    -0.279 OA
ATOM      6  N   UNL d   1      26.051 -18.226  -0.729  0.00  0.00    -0.227 NA
ATOM      7  C   UNL d   1      24.704 -17.819  -0.793  0.00  0.00     0.042 A 
ATOM      8  C   UNL d   1      23.813 -18.887  -0.575  0.00  0.00     0.026 A 
ATOM      9  C   UNL d   1      22.458 -18.653  -0.431  0.00  0.00     0.002 A 
ATOM     10  C   UNL d   1      21.992 -17.347  -0.555  0.00  0.00     0.002 A 
ATOM     11  C   UNL d   1      22.878 -16.272  -0.840  0.00  0.00     0.031 A 
ATOM     12  C   UNL d   1      24.269 -16.478  -0.958  0.00  0.00     0.059 A 
ATOM     13  N   UNL d   1      25.214 -15.336  -1.089  0.00  0.00    -0.311 N 
ATOM     14  C   UNL d   1      25.216 -14.576  -2.302  0.00  0.00     0.234 C 
ATOM     15  O   UNL d   1      24.405 -14.846  -3.199  0.00  0.00    -0.272 OA
ATOM     16  H   UNL d   1      26.492 -18.259  -1.641  0.00  0.00     0.136 HD
ENDROOT
BRANCH  14  17
ATOM     17  C   UNL d   1      26.263 -13.412  -2.529  0.00  0.00     0.184 C 
BRANCH  17  18
ATOM     18  S   UNL d   1      26.306 -12.776  -4.261  0.00  0.00    -0.092 SA
BRANCH  18  19
ATOM     19  C   UNL d   1      27.479 -13.786  -5.128  0.00  0.00     0.160 A 
ATOM     20  N   UNL d   1      27.295 -15.059  -5.405  0.00  0.00    -0.133 NA
ATOM     21  N   UNL d   1      28.318 -15.575  -6.202  0.00  0.00    -0.123 NA
ATOM     22  C   UNL d   1      29.248 -14.691  -6.516  0.00  0.00     0.190 A 
ATOM     23  S   UNL d   1      28.907 -13.133  -5.852  0.00  0.00    -0.022 SA
BRANCH  22  24
ATOM     24  N   UNL d   1      30.333 -15.010  -7.272  0.00  0.00    -0.363 N 
ATOM     25  H   UNL d   1      30.299 -14.703  -8.233  0.00  0.00     0.162 HD
BRANCH  24  26
ATOM     26  C   UNL d   1      31.423 -15.885  -6.872  0.00  0.00     0.160 C 
BRANCH  26  27
ATOM     27  C   UNL d   1      31.009 -17.329  -6.590  0.00  0.00    -0.041 C 
ATOM     28  C   UNL d   1      30.587 -17.789  -5.334  0.00  0.00     0.009 C 
ATOM     29  C   UNL d   1      30.405 -19.151  -5.082  0.00  0.00     0.001 C 
ATOM     30  C   UNL d   1      30.503 -20.071  -6.118  0.00  0.00     0.000 C 
ATOM     31  C   UNL d   1      30.772 -19.625  -7.408  0.00  0.00     0.001 C 
ATOM     32  C   UNL d   1      31.073 -18.275  -7.634  0.00  0.00     0.009 C 
ENDBRANCH  26  27
ENDBRANCH  24  26
ENDBRANCH  22  24
ENDBRANCH  18  19
ENDBRANCH  17  18
ENDBRANCH  14  17
TORSDOF 6
ENDMDL
MODEL 3
REMARK VINA RESULT:    -9.686      4.946      7.448
REMARK INTER + INTRA:         -12.184
REMARK INTER:                 -11.476
REMARK INTRA:                  -0.708
REMARK CONF_INDEPENDENT:        1.790
REMARK UNBOUND:                -0.708
REMARK  6 active torsions:
REMARK  status: ('A' for Active; 'I' for Inactive)
REMARK       I    between atoms: N_13  and  C_14 
REMARK    1  A    between atoms: C_14  and  C_16 
REMARK    2  A    between atoms: C_16  and  S_17 
REMARK    3  A    between atoms: S_17  and  C_18 
REMARK    4  A    between atoms: C_21  and  N_22 
REMARK    5  A    between atoms: N_22  and  C_23 
REMARK    6  A    between atoms: C_23  and  C_24 
ROOT
ATOM      1  C   UNL d   1      32.013 -16.122  -7.993  0.00  0.00     0.033 C 
ATOM      2  C   UNL d   1      31.618 -17.430  -7.291  0.00  0.00     0.097 C 
ATOM      3  C   UNL d   1      31.155 -18.418  -8.368  0.00  0.00     0.122 C 
ATOM      4  C   UNL d   1      31.174 -19.843  -7.898  0.00  0.00     0.203 C 
ATOM      5  O   UNL d   1      31.994 -20.666  -8.338  0.00  0.00    -0.279 OA
ATOM      6  N   UNL d   1      30.253 -20.201  -6.955  0.00  0.00    -0.227 NA
ATOM      7  C   UNL d   1      30.555 -19.818  -5.634  0.00  0.00     0.042 A 
ATOM      8  C   UNL d   1      30.735 -20.926  -4.784  0.00  0.00     0.026 A 
ATOM      9  C   UNL d   1      31.202 -20.753  -3.494  0.00  0.00     0.002 A 
ATOM     10  C   UNL d   1      31.445 -19.459  -3.043  0.00  0.00     0.002 A 
ATOM     11  C   UNL d   1      31.204 -18.331  -3.874  0.00  0.00     0.031 A 
ATOM     12  C   UNL d   1      30.760 -18.480  -5.205  0.00  0.00     0.059 A 
ATOM     13  N   UNL d   1      30.667 -17.317  -6.127  0.00  0.00    -0.311 N 
ATOM     14  C   UNL d   1      29.660 -16.327  -5.893  0.00  0.00     0.234 C 
ATOM     15  O   UNL d   1      28.917 -16.426  -4.907  0.00  0.00    -0.272 OA
ATOM     16  H   UNL d   1      29.281 -20.041  -7.195  0.00  0.00     0.136 HD
ENDROOT
BRANCH  14  17
ATOM     17  C   UNL d   1      29.459 -15.120  -6.895  0.00  0.00     0.184 C 
BRANCH  17  18
ATOM     18  S   UNL d   1      28.661 -13.642  -6.132  0.00  0.00    -0.092 SA
BRANCH  18  19
ATOM     19  C   UNL d   1      27.341 -14.260  -5.121  0.00  0.00     0.160 A 
ATOM     20  N   UNL d   1      26.502 -15.200  -5.496  0.00  0.00    -0.133 NA
ATOM     21  N   UNL d   1      25.644 -15.581  -4.463  0.00  0.00    -0.123 NA
ATOM     22  C   UNL d   1      25.850 -14.931  -3.332  0.00  0.00     0.190 A 
ATOM     23  S   UNL d   1      27.150 -13.800  -3.465  0.00  0.00    -0.022 SA
BRANCH  22  24
ATOM     24  N   UNL d   1      25.102 -15.151  -2.216  0.00  0.00    -0.363 N 
ATOM     25  H   UNL d   1      24.364 -14.483  -2.049  0.00  0.00     0.162 HD
BRANCH  24  26
ATOM     26  C   UNL d   1      25.383 -16.133  -1.182  0.00  0.00     0.160 C 
BRANCH  26  27
ATOM     27  C   UNL d   1      24.231 -17.093  -0.887  0.00  0.00    -0.041 C 
ATOM     28  C   UNL d   1      24.404 -18.453  -0.590  0.00  0.00     0.009 C 
ATOM     29  C   UNL d   1      23.316 -19.326  -0.519  0.00  0.00     0.001 C 
ATOM     30  C   UNL d   1      22.019 -18.833  -0.599  0.00  0.00     0.000 C 
ATOM     31  C   UNL d   1      21.815 -17.464  -0.742  0.00  0.00     0.001 C 
ATOM     32  C   UNL d   1      22.907 -16.608  -0.935  0.00  0.00     0.009 C 
ENDBRANCH  26  27
ENDBRANCH  24  26
ENDBRANCH  22  24
ENDBRANCH  18  19
ENDBRANCH  17  18
ENDBRANCH  14  17
TORSDOF 6
ENDMDL
MODEL 4
REMARK VINA RESULT:    -9.076      3.137      4.866
REMARK INTER + INTRA:         -12.270
REMARK INTER:                 -10.866
REMARK INTRA:                  -1.404
REMARK CONF_INDEPENDENT:        1.790
REMARK UNBOUND:                -1.404
REMARK  6 active torsions:
REMARK  status: ('A' for Active; 'I' for Inactive)
REMARK       I    between atoms: N_13  and  C_14 
REMARK    1  A    between atoms: C_14  and  C_16 
REMARK    2  A    between atoms: C_16  and  S_17 
REMARK    3  A    between atoms: S_17  and  C_18 
REMARK    4  A    between atoms: C_21  and  N_22 
REMARK    5  A    between atoms: N_22  and  C_23 
REMARK    6  A    between atoms: C_23  and  C_24 
ROOT
ATOM      1  C   UNL d   1      29.166 -11.893  -4.340  0.00  0.00     0.033 C 
ATOM      2  C   UNL d   1      29.718 -13.079  -5.147  0.00  0.00     0.097 C 
ATOM      3  C   UNL d   1      30.352 -12.519  -6.425  0.00  0.00     0.122 C 
ATOM      4  C   UNL d   1      31.307 -13.480  -7.071  0.00  0.00     0.203 C 
ATOM      5  O   UNL d   1      32.533 -13.275  -7.084  0.00  0.00    -0.279 OA
ATOM      6  N   UNL d   1      30.775 -14.601  -7.640  0.00  0.00    -0.227 NA
ATOM      7  C   UNL d   1      30.427 -15.631  -6.745  0.00  0.00     0.042 A 
ATOM      8  C   UNL d   1      31.180 -16.801  -6.959  0.00  0.00     0.026 A 
ATOM      9  C   UNL d   1      31.100 -17.860  -6.073  0.00  0.00     0.002 A 
ATOM     10  C   UNL d   1      30.226 -17.759  -4.995  0.00  0.00     0.002 A 
ATOM     11  C   UNL d   1      29.414 -16.607  -4.808  0.00  0.00     0.031 A 
ATOM     12  C   UNL d   1      29.500 -15.499  -5.678  0.00  0.00     0.059 A 
ATOM     13  N   UNL d   1      28.778 -14.230  -5.392  0.00  0.00    -0.311 N 
ATOM     14  C   UNL d   1      27.350 -14.209  -5.493  0.00  0.00     0.234 C 
ATOM     15  O   UNL d   1      26.737 -15.250  -5.767  0.00  0.00    -0.272 OA
ATOM     16  H   UNL d   1      30.070 -14.449  -8.353  0.00  0.00     0.136 HD
ENDROOT
BRANCH  14  17
ATOM     17  C   UNL d   1      26.542 -12.864  -5.290  0.00  0.00     0.184 C 
BRANCH  17  18
ATOM     18  S   UNL d   1      25.774 -12.702  -3.620  0.00  0.00    -0.092 SA
BRANCH  18  19
ATOM     19  C   UNL d   1      25.796 -14.326  -2.906  0.00  0.00     0.160 A 
ATOM     20  N   UNL d   1      25.252 -15.386  -3.465  0.00  0.00    -0.133 NA
ATOM     21  N   UNL d   1      25.524 -16.553  -2.750  0.00  0.00    -0.123 NA
ATOM     22  C   UNL d   1      26.266 -16.360  -1.674  0.00  0.00     0.190 A 
ATOM     23  S   UNL d   1      26.699 -14.698  -1.480  0.00  0.00    -0.022 SA
BRANCH  22  24
ATOM     24  N   UNL d   1      26.622 -17.375  -0.841  0.00  0.00    -0.363 N 
ATOM     25  H   UNL d   1      27.487 -17.842  -1.069  0.00  0.00     0.162 HD
BRANCH  24  26
ATOM     26  C   UNL d   1      25.796 -17.941   0.213  0.00  0.00     0.160 C 
BRANCH  26  27
ATOM     27  C   UNL d   1      24.299 -17.961  -0.093  0.00  0.00    -0.041 C 
ATOM     28  C   UNL d   1      23.566 -19.133  -0.333  0.00  0.00     0.009 C 
ATOM     29  C   UNL d   1      22.250 -19.086  -0.797  0.00  0.00     0.001 C 
ATOM     30  C   UNL d   1      21.588 -17.868  -0.894  0.00  0.00     0.000 C 
ATOM     31  C   UNL d   1      22.243 -16.700  -0.518  0.00  0.00     0.001 C 
ATOM     32  C   UNL d   1      23.600 -16.738  -0.170  0.00  0.00     0.009 C 
ENDBRANCH  26  27
ENDBRANCH  24  26
ENDBRANCH  22  24
ENDBRANCH  18  19
ENDBRANCH  17  18
ENDBRANCH  14  17
TORSDOF 6
ENDMDL
MODEL 5
REMARK VINA RESULT:    -7.698      4.063      8.673
REMARK INTER + INTRA:         -12.277
REMARK INTER:                  -9.487
REMARK INTRA:                  -2.789
REMARK CONF_INDEPENDENT:        1.790
REMARK UNBOUND:                -2.789
REMARK  6 active torsions:
REMARK  status: ('A' for Active; 'I' for Inactive)
REMARK       I    between atoms: N_13  and  C_14 
REMARK    1  A    between atoms: C_14  and  C_16 
REMARK    2  A    between atoms: C_16  and  S_17 
REMARK    3  A    between atoms: S_17  and  C_18 
REMARK    4  A    between atoms: C_21  and  N_22 
REMARK    5  A    between atoms: N_22  and  C_23 
REMARK    6  A    between atoms: C_23  and  C_24 
ROOT
ATOM      1  C   UNL d   1      26.876 -11.772  -2.047  0.00  0.00     0.033 C 
ATOM      2  C   UNL d   1      26.793 -13.295  -1.866  0.00  0.00     0.097 C 
ATOM      3  C   UNL d   1      28.211 -13.861  -2.005  0.00  0.00     0.122 C 
ATOM      4  C   UNL d   1      28.351 -15.234  -1.415  0.00  0.00     0.203 C 
ATOM      5  O   UNL d   1      29.011 -15.438  -0.382  0.00  0.00    -0.279 OA
ATOM      6  N   UNL d   1      27.714 -16.257  -2.058  0.00  0.00    -0.227 NA
ATOM      7  C   UNL d   1      26.329 -16.354  -1.821  0.00  0.00     0.042 A 
ATOM      8  C   UNL d   1      25.981 -17.555  -1.173  0.00  0.00     0.026 A 
ATOM      9  C   UNL d   1      24.695 -17.755  -0.707  0.00  0.00     0.002 A 
ATOM     10  C   UNL d   1      23.745 -16.764  -0.935  0.00  0.00     0.002 A 
ATOM     11  C   UNL d   1      24.072 -15.577  -1.645  0.00  0.00     0.031 A 
ATOM     12  C   UNL d   1      25.384 -15.332  -2.102  0.00  0.00     0.059 A 
ATOM     13  N   UNL d   1      25.768 -14.024  -2.696  0.00  0.00    -0.311 N 
ATOM     14  C   UNL d   1      25.245 -13.668  -3.981  0.00  0.00     0.234 C 
ATOM     15  O   UNL d   1      24.450 -14.425  -4.553  0.00  0.00    -0.272 OA
ATOM     16  H   UNL d   1      27.953 -16.389  -3.034  0.00  0.00     0.136 HD
ENDROOT
BRANCH  14  17
ATOM     17  C   UNL d   1      25.694 -12.330  -4.697  0.00  0.00     0.184 C 
BRANCH  17  18
ATOM     18  S   UNL d   1      27.055 -12.562  -5.922  0.00  0.00    -0.092 SA
BRANCH  18  19
ATOM     19  C   UNL d   1      27.965 -13.988  -5.386  0.00  0.00     0.160 A 
ATOM     20  N   UNL d   1      27.488 -15.213  -5.392  0.00  0.00    -0.133 NA
ATOM     21  N   UNL d   1      28.455 -16.154  -5.038  0.00  0.00    -0.123 NA
ATOM     22  C   UNL d   1      29.639 -15.630  -4.777  0.00  0.00     0.190 A 
ATOM     23  S   UNL d   1      29.641 -13.913  -4.971  0.00  0.00    -0.022 SA
BRANCH  22  24
ATOM     24  N   UNL d   1      30.705 -16.387  -4.398  0.00  0.00    -0.363 N 
ATOM     25  H   UNL d   1      31.566 -15.881  -4.249  0.00  0.00     0.162 HD
BRANCH  24  26
ATOM     26  C   UNL d   1      30.751 -17.839  -4.364  0.00  0.00     0.160 C 
BRANCH  26  27
ATOM     27  C   UNL d   1      30.824 -18.505  -5.738  0.00  0.00    -0.041 C 
ATOM     28  C   UNL d   1      30.431 -19.829  -5.986  0.00  0.00     0.009 C 
ATOM     29  C   UNL d   1      30.697 -20.449  -7.210  0.00  0.00     0.001 C 
ATOM     30  C   UNL d   1      31.231 -19.716  -8.262  0.00  0.00     0.000 C 
ATOM     31  C   UNL d   1      31.489 -18.359  -8.090  0.00  0.00     0.001 C 
ATOM     32  C   UNL d   1      31.336 -17.770  -6.828  0.00  0.00     0.009 C 
ENDBRANCH  26  27
ENDBRANCH  24  26
ENDBRANCH  22  24
ENDBRANCH  18  19
ENDBRANCH  17  18
ENDBRANCH  14  17
TORSDOF 6
ENDMDL
