MODEL 1
REMARK VINA RESULT:    -9.514      0.000      0.000
REMARK INTER + INTRA:         -13.368
REMARK INTER:                 -11.901
REMARK INTRA:                  -1.467
REMARK CONF_INDEPENDENT:        2.386
REMARK UNBOUND:                -1.467
REMARK  8 active torsions:
REMARK  status: ('A' for Active; 'I' for Inactive)
REMARK    1  A    between atoms: C_3  and  C_4 
REMARK    2  A    between atoms: C_4  and  C_5 
REMARK       I    between atoms: C_5  and  N_7 
REMARK    3  A    between atoms: N_7  and  CA_8 
REMARK    4  A    between atoms: CA_8  and  C_9 
REMARK    5  A    between atoms: CA_8  and  C_20 
REMARK    6  A    between atoms: C_9  and  C_10 
REMARK    7  A    between atoms: C_16  and  O_17 
REMARK    8  A    between atoms: C_28  and  O_29 
ROOT
ATOM      1  C   UNL d   1      31.154 -20.000  -1.288  0.00  0.00     0.222 C 
ATOM      2  O   UNL d   1      31.504 -19.854  -2.453  0.00  0.00    -0.273 OA
ATOM      3  N   UNL d   1      30.708 -18.924  -0.557  0.00  0.00    -0.346 N 
ATOM      4  H   UNL d   1      31.111 -18.704   0.354  0.00  0.00     0.163 HD
ENDROOT
BRANCH   3   5
ATOM      5  CA  UNL d   1      30.289 -17.697  -1.293  0.00  0.00     0.189 C 
BRANCH   5   6
ATOM      6  C   UNL d   1      29.159 -16.981  -0.524  0.00  0.00     0.077 C 
BRANCH   6   7
ATOM      7  C   UNL d   1      27.930 -16.605  -1.333  0.00  0.00    -0.028 C 
ATOM      8  C   UNL d   1      27.876 -15.961  -2.555  0.00  0.00     0.096 C 
ATOM      9  N   UNL d   1      26.571 -15.628  -2.802  0.00  0.00    -0.365 N 
ATOM     10  C   UNL d   1      25.743 -16.204  -1.882  0.00  0.00     0.043 C 
ATOM     11  H   UNL d   1      26.266 -14.909  -3.439  0.00  0.00     0.165 HD
ATOM     12  C   UNL d   1      24.351 -16.151  -1.770  0.00  0.00     0.033 C 
ATOM     13  C   UNL d   1      26.571 -16.875  -0.985  0.00  0.00     0.001 C 
ATOM     14  C   UNL d   1      23.778 -16.977  -0.802  0.00  0.00     0.039 C 
ATOM     15  C   UNL d   1      24.586 -17.711   0.066  0.00  0.00     0.066 C 
ATOM     16  C   UNL d   1      25.973 -17.622   0.035  0.00  0.00     0.050 C 
BRANCH  15  17
ATOM     17  O   UNL d   1      24.055 -18.575   0.980  0.00  0.00    -0.361 OA
ATOM     18  H   UNL d   1      23.654 -19.310   0.497  0.00  0.00     0.217 HD
ENDBRANCH  15  17
ENDBRANCH   6   7
ENDBRANCH   5   6
BRANCH   5  19
ATOM     19  C   UNL d   1      31.456 -16.679  -1.506  0.00  0.00     0.197 C 
ATOM     20  O   UNL d   1      32.448 -16.860  -0.732  0.00  0.00    -0.646 OA
ATOM     21  OXT UNL d   1      31.299 -15.816  -2.415  0.00  0.00    -0.646 OA
ENDBRANCH   5  19
ENDBRANCH   3   5
BRANCH   1  22
ATOM     22  C   UNL d   1      31.227 -21.356  -0.565  0.00  0.00     0.148 C 
BRANCH  22  23
ATOM     23  C   UNL d   1      30.983 -21.439   0.961  0.00  0.00     0.033 C 
ATOM     24  C   UNL d   1      31.936 -21.076   1.862  0.00  0.00    -0.036 C 
ATOM     25  C   UNL d   1      33.319 -20.619   1.470  0.00  0.00     0.050 C 
ATOM     26  C   UNL d   1      31.669 -21.196   3.319  0.00  0.00     0.005 A 
ATOM     27  C   UNL d   1      32.594 -20.957   4.337  0.00  0.00     0.017 A 
ATOM     28  C   UNL d   1      30.400 -21.575   3.731  0.00  0.00     0.092 A 
ATOM     29  C   UNL d   1      32.241 -21.139   5.687  0.00  0.00     0.037 A 
ATOM     30  C   UNL d   1      30.968 -21.574   6.037  0.00  0.00     0.068 A 
ATOM     31  C   UNL d   1      30.029 -21.800   5.057  0.00  0.00     0.074 A 
ATOM     32  O   UNL d   1      29.377 -21.724   2.819  0.00  0.00    -0.274 OA
ATOM     33  C   UNL d   1      29.713 -22.007   1.518  0.00  0.00     0.295 C 
ATOM     34  O   UNL d   1      28.867 -22.653   0.920  0.00  0.00    -0.259 OA
BRANCH  30  35
ATOM     35  O   UNL d   1      30.673 -21.750   7.355  0.00  0.00    -0.361 OA
ATOM     36  H   UNL d   1      30.198 -22.591   7.457  0.00  0.00     0.217 HD
ENDBRANCH  30  35
ENDBRANCH  22  23
ENDBRANCH   1  22
TORSDOF 8
ENDMDL
MODEL 2
REMARK VINA RESULT:    -8.673      5.709      8.290
REMARK INTER + INTRA:         -13.977
REMARK INTER:                 -11.059
REMARK INTRA:                  -2.918
REMARK CONF_INDEPENDENT:        2.386
REMARK UNBOUND:                -2.918
REMARK  8 active torsions:
REMARK  status: ('A' for Active; 'I' for Inactive)
REMARK    1  A    between atoms: C_3  and  C_4 
REMARK    2  A    between atoms: C_4  and  C_5 
REMARK       I    between atoms: C_5  and  N_7 
REMARK    3  A    between atoms: N_7  and  CA_8 
REMARK    4  A    between atoms: CA_8  and  C_9 
REMARK    5  A    between atoms: CA_8  and  C_20 
REMARK    6  A    between atoms: C_9  and  C_10 
REMARK    7  A    between atoms: C_16  and  O_17 
REMARK    8  A    between atoms: C_28  and  O_29 
ROOT
ATOM      1  C   UNL d   1      28.018 -15.120  -4.700  0.00  0.00     0.222 C 
ATOM      2  O   UNL d   1      27.142 -15.306  -5.536  0.00  0.00    -0.273 OA
ATOM      3  N   UNL d   1      29.344 -15.223  -5.049  0.00  0.00    -0.346 N 
ATOM      4  H   UNL d   1      29.982 -15.820  -4.523  0.00  0.00     0.163 HD
ENDROOT
BRANCH   3   5
ATOM      5  CA  UNL d   1      29.698 -15.169  -6.497  0.00  0.00     0.189 C 
BRANCH   5   6
ATOM      6  C   UNL d   1      30.125 -13.737  -6.882  0.00  0.00     0.077 C 
BRANCH   6   7
ATOM      7  C   UNL d   1      29.078 -12.889  -7.582  0.00  0.00    -0.028 C 
ATOM      8  C   UNL d   1      28.991 -12.575  -8.926  0.00  0.00     0.096 C 
ATOM      9  N   UNL d   1      28.029 -11.612  -9.076  0.00  0.00    -0.365 N 
ATOM     10  C   UNL d   1      27.346 -11.426  -7.909  0.00  0.00     0.043 C 
ATOM     11  H   UNL d   1      27.954 -10.984  -9.860  0.00  0.00     0.165 HD
ATOM     12  C   UNL d   1      26.280 -10.570  -7.620  0.00  0.00     0.033 C 
ATOM     13  C   UNL d   1      27.946 -12.265  -6.973  0.00  0.00     0.001 C 
ATOM     14  C   UNL d   1      25.691 -10.720  -6.364  0.00  0.00     0.039 C 
ATOM     15  C   UNL d   1      26.235 -11.603  -5.431  0.00  0.00     0.066 C 
ATOM     16  C   UNL d   1      27.392 -12.328  -5.690  0.00  0.00     0.050 C 
BRANCH  15  17
ATOM     17  O   UNL d   1      25.644 -11.818  -4.219  0.00  0.00    -0.361 OA
ATOM     18  H   UNL d   1      24.780 -12.221  -4.376  0.00  0.00     0.217 HD
ENDBRANCH  15  17
ENDBRANCH   6   7
ENDBRANCH   5   6
BRANCH   5  19
ATOM     19  C   UNL d   1      30.854 -16.146  -6.885  0.00  0.00     0.197 C 
ATOM     20  O   UNL d   1      31.110 -17.022  -6.000  0.00  0.00    -0.646 OA
ATOM     21  OXT UNL d   1      31.389 -15.974  -8.016  0.00  0.00    -0.646 OA
ENDBRANCH   5  19
ENDBRANCH   3   5
BRANCH   1  22
ATOM     22  C   UNL d   1      27.704 -14.808  -3.227  0.00  0.00     0.148 C 
BRANCH  22  23
ATOM     23  C   UNL d   1      26.455 -15.421  -2.549  0.00  0.00     0.033 C 
ATOM     24  C   UNL d   1      26.554 -16.418  -1.628  0.00  0.00    -0.036 C 
ATOM     25  C   UNL d   1      27.862 -17.052  -1.226  0.00  0.00     0.050 C 
ATOM     26  C   UNL d   1      25.327 -16.997  -1.021  0.00  0.00     0.005 A 
ATOM     27  C   UNL d   1      25.287 -18.086  -0.150  0.00  0.00     0.017 A 
ATOM     28  C   UNL d   1      24.102 -16.424  -1.329  0.00  0.00     0.092 A 
ATOM     29  C   UNL d   1      24.061 -18.575   0.336  0.00  0.00     0.037 A 
ATOM     30  C   UNL d   1      22.859 -17.994  -0.051  0.00  0.00     0.068 A 
ATOM     31  C   UNL d   1      22.867 -16.906  -0.895  0.00  0.00     0.074 A 
ATOM     32  O   UNL d   1      24.031 -15.274  -2.086  0.00  0.00    -0.274 OA
ATOM     33  C   UNL d   1      25.071 -15.003  -2.942  0.00  0.00     0.295 C 
ATOM     34  O   UNL d   1      24.744 -14.362  -3.928  0.00  0.00    -0.259 OA
BRANCH  30  35
ATOM     35  O   UNL d   1      21.695 -18.507   0.432  0.00  0.00    -0.361 OA
ATOM     36  H   UNL d   1      21.901 -19.289   0.971  0.00  0.00     0.217 HD
ENDBRANCH  30  35
ENDBRANCH  22  23
ENDBRANCH   1  22
TORSDOF 8
ENDMDL
MODEL 3
REMARK VINA RESULT:    -7.951      6.973     10.352
REMARK INTER + INTRA:         -12.945
REMARK INTER:                 -10.338
REMARK INTRA:                  -2.607
REMARK CONF_INDEPENDENT:        2.386
REMARK UNBOUND:                -2.607
REMARK  8 active torsions:
REMARK  status: ('A' for Active; 'I' for Inactive)
REMARK    1  A    between atoms: C_3  and  C_4 
REMARK    2  A    between atoms: C_4  and  C_5 
REMARK       I    between atoms: C_5  and  N_7 
REMARK    3  A    between atoms: N_7  and  CA_8 
REMARK    4  A    between atoms: CA_8  and  C_9 
REMARK    5  A    between atoms: CA_8  and  C_20 
REMARK    6  A    between atoms: C_9  and  C_10 
REMARK    7  A    between atoms: C_16  and  O_17 
REMARK    8  A    between atoms: C_28  and  O_29 
ROOT
ATOM      1  C   UNL d   1      27.624 -12.648   3.241  0.00  0.00     0.222 C 
ATOM      2  O   UNL d   1      27.197 -13.059   4.313  0.00  0.00    -0.273 OA
ATOM      3  N   UNL d   1      27.569 -11.307   2.941  0.00  0.00    -0.346 N 
ATOM      4  H   UNL d   1      27.149 -10.979   2.072  0.00  0.00     0.163 HD
ENDROOT
BRANCH   3   5
ATOM      5  CA  UNL d   1      27.360 -10.342   4.059  0.00  0.00     0.189 C 
BRANCH   5   6
ATOM      6  C   UNL d   1      28.704 -10.045   4.757  0.00  0.00     0.077 C 
BRANCH   6   7
ATOM      7  C   UNL d   1      29.480 -11.248   5.262  0.00  0.00    -0.028 C 
ATOM      8  C   UNL d   1      30.538 -11.899   4.655  0.00  0.00     0.096 C 
ATOM      9  N   UNL d   1      30.780 -13.055   5.348  0.00  0.00    -0.365 N 
ATOM     10  C   UNL d   1      30.050 -13.087   6.502  0.00  0.00     0.043 C 
ATOM     11  H   UNL d   1      31.264 -13.860   4.985  0.00  0.00     0.165 HD
ATOM     12  C   UNL d   1      30.006 -14.055   7.509  0.00  0.00     0.033 C 
ATOM     13  C   UNL d   1      29.273 -11.931   6.500  0.00  0.00     0.001 C 
ATOM     14  C   UNL d   1      29.270 -13.728   8.648  0.00  0.00     0.039 C 
ATOM     15  C   UNL d   1      28.535 -12.544   8.696  0.00  0.00     0.066 C 
ATOM     16  C   UNL d   1      28.470 -11.672   7.615  0.00  0.00     0.050 C 
BRANCH  15  17
ATOM     17  O   UNL d   1      27.856 -12.167   9.819  0.00  0.00    -0.361 OA
ATOM     18  H   UNL d   1      27.892 -11.203   9.879  0.00  0.00     0.217 HD
ENDBRANCH  15  17
ENDBRANCH   6   7
ENDBRANCH   5   6
BRANCH   5  19
ATOM     19  C   UNL d   1      26.740  -8.986   3.594  0.00  0.00     0.197 C 
ATOM     20  O   UNL d   1      27.029  -8.000   4.344  0.00  0.00    -0.646 OA
ATOM     21  OXT UNL d   1      26.047  -9.010   2.538  0.00  0.00    -0.646 OA
ENDBRANCH   5  19
ENDBRANCH   3   5
BRANCH   1  22
ATOM     22  C   UNL d   1      28.199 -13.583   2.164  0.00  0.00     0.148 C 
BRANCH  22  23
ATOM     23  C   UNL d   1      27.537 -13.662   0.767  0.00  0.00     0.033 C 
ATOM     24  C   UNL d   1      27.161 -14.848   0.215  0.00  0.00    -0.036 C 
ATOM     25  C   UNL d   1      27.401 -16.184   0.874  0.00  0.00     0.050 C 
ATOM     26  C   UNL d   1      26.553 -14.881  -1.140  0.00  0.00     0.005 A 
ATOM     27  C   UNL d   1      26.222 -16.033  -1.855  0.00  0.00     0.017 A 
ATOM     28  C   UNL d   1      26.277 -13.677  -1.771  0.00  0.00     0.092 A 
ATOM     29  C   UNL d   1      25.683 -15.945  -3.152  0.00  0.00     0.037 A 
ATOM     30  C   UNL d   1      25.480 -14.710  -3.756  0.00  0.00     0.068 A 
ATOM     31  C   UNL d   1      25.778 -13.555  -3.068  0.00  0.00     0.074 A 
ATOM     32  O   UNL d   1      26.454 -12.478  -1.114  0.00  0.00    -0.274 OA
ATOM     33  C   UNL d   1      27.358 -12.440  -0.081  0.00  0.00     0.295 C 
ATOM     34  O   UNL d   1      27.878 -11.346   0.079  0.00  0.00    -0.259 OA
BRANCH  30  35
ATOM     35  O   UNL d   1      24.968 -14.672  -5.017  0.00  0.00    -0.361 OA
ATOM     36  H   UNL d   1      24.225 -14.045  -5.031  0.00  0.00     0.217 HD
ENDBRANCH  30  35
ENDBRANCH  22  23
ENDBRANCH   1  22
TORSDOF 8
ENDMDL
MODEL 4
REMARK VINA RESULT:    -7.912      5.190      8.179
REMARK INTER + INTRA:         -13.064
REMARK INTER:                 -10.298
REMARK INTRA:                  -2.766
REMARK CONF_INDEPENDENT:        2.386
REMARK UNBOUND:                -2.766
REMARK  8 active torsions:
REMARK  status: ('A' for Active; 'I' for Inactive)
REMARK    1  A    between atoms: C_3  and  C_4 
REMARK    2  A    between atoms: C_4  and  C_5 
REMARK       I    between atoms: C_5  and  N_7 
REMARK    3  A    between atoms: N_7  and  CA_8 
REMARK    4  A    between atoms: CA_8  and  C_9 
REMARK    5  A    between atoms: CA_8  and  C_20 
REMARK    6  A    between atoms: C_9  and  C_10 
REMARK    7  A    between atoms: C_16  and  O_17 
REMARK    8  A    between atoms: C_28  and  O_29 
ROOT
ATOM      1  C   UNL d   1      29.142 -14.972  -2.354  0.00  0.00     0.222 C 
ATOM      2  O   UNL d   1      29.936 -14.053  -2.190  0.00  0.00    -0.273 OA
ATOM      3  N   UNL d   1      28.742 -15.326  -3.621  0.00  0.00    -0.346 N 
ATOM      4  H   UNL d   1      27.753 -15.395  -3.861  0.00  0.00     0.163 HD
ENDROOT
BRANCH   3   5
ATOM      5  CA  UNL d   1      29.564 -14.860  -4.775  0.00  0.00     0.189 C 
BRANCH   5   6
ATOM      6  C   UNL d   1      30.879 -15.664  -4.845  0.00  0.00     0.077 C 
BRANCH   6   7
ATOM      7  C   UNL d   1      30.770 -17.154  -4.577  0.00  0.00    -0.028 C 
ATOM      8  C   UNL d   1      30.602 -17.795  -3.364  0.00  0.00     0.096 C 
ATOM      9  N   UNL d   1      30.780 -19.137  -3.563  0.00  0.00    -0.365 N 
ATOM     10  C   UNL d   1      30.864 -19.421  -4.896  0.00  0.00     0.043 C 
ATOM     11  H   UNL d   1      31.016 -19.805  -2.846  0.00  0.00     0.165 HD
ATOM     12  C   UNL d   1      31.022 -20.649  -5.544  0.00  0.00     0.033 C 
ATOM     13  C   UNL d   1      30.796 -18.196  -5.556  0.00  0.00     0.001 C 
ATOM     14  C   UNL d   1      30.919 -20.629  -6.936  0.00  0.00     0.039 C 
ATOM     15  C   UNL d   1      30.784 -19.419  -7.616  0.00  0.00     0.066 C 
ATOM     16  C   UNL d   1      30.789 -18.197  -6.954  0.00  0.00     0.050 C 
BRANCH  15  17
ATOM     17  O   UNL d   1      30.618 -19.374  -8.970  0.00  0.00    -0.361 OA
ATOM     18  H   UNL d   1      29.715 -19.657  -9.169  0.00  0.00     0.217 HD
ENDBRANCH  15  17
ENDBRANCH   6   7
ENDBRANCH   5   6
BRANCH   5  19
ATOM     19  C   UNL d   1      28.832 -15.000  -6.148  0.00  0.00     0.197 C 
ATOM     20  O   UNL d   1      27.648 -15.457  -6.060  0.00  0.00    -0.646 OA
ATOM     21  OXT UNL d   1      29.473 -14.637  -7.175  0.00  0.00    -0.646 OA
ENDBRANCH   5  19
ENDBRANCH   3   5
BRANCH   1  22
ATOM     22  C   UNL d   1      28.519 -15.749  -1.181  0.00  0.00     0.148 C 
BRANCH  22  23
ATOM     23  C   UNL d   1      26.998 -16.033  -1.156  0.00  0.00     0.033 C 
ATOM     24  C   UNL d   1      26.484 -17.144  -0.559  0.00  0.00    -0.036 C 
ATOM     25  C   UNL d   1      27.336 -18.216   0.074  0.00  0.00     0.050 C 
ATOM     26  C   UNL d   1      25.019 -17.391  -0.580  0.00  0.00     0.005 A 
ATOM     27  C   UNL d   1      24.381 -18.536  -0.099  0.00  0.00     0.017 A 
ATOM     28  C   UNL d   1      24.190 -16.417  -1.117  0.00  0.00     0.092 A 
ATOM     29  C   UNL d   1      22.986 -18.680  -0.205  0.00  0.00     0.037 A 
ATOM     30  C   UNL d   1      22.212 -17.692  -0.804  0.00  0.00     0.068 A 
ATOM     31  C   UNL d   1      22.810 -16.544  -1.270  0.00  0.00     0.074 A 
ATOM     32  O   UNL d   1      24.699 -15.199  -1.515  0.00  0.00    -0.274 OA
ATOM     33  C   UNL d   1      26.026 -15.140  -1.864  0.00  0.00     0.295 C 
ATOM     34  O   UNL d   1      26.281 -14.279  -2.691  0.00  0.00    -0.259 OA
BRANCH  30  35
ATOM     35  O   UNL d   1      20.866 -17.879  -0.897  0.00  0.00    -0.361 OA
ATOM     36  H   UNL d   1      20.459 -17.051  -1.203  0.00  0.00     0.217 HD
ENDBRANCH  30  35
ENDBRANCH  22  23
ENDBRANCH   1  22
TORSDOF 8
ENDMDL
MODEL 5
REMARK VINA RESULT:    -7.878      5.431      9.790
REMARK INTER + INTRA:         -12.774
REMARK INTER:                 -10.264
REMARK INTRA:                  -2.510
REMARK CONF_INDEPENDENT:        2.386
REMARK UNBOUND:                -2.510
REMARK  8 active torsions:
REMARK  status: ('A' for Active; 'I' for Inactive)
REMARK    1  A    between atoms: C_3  and  C_4 
REMARK    2  A    between atoms: C_4  and  C_5 
REMARK       I    between atoms: C_5  and  N_7 
REMARK    3  A    between atoms: N_7  and  CA_8 
REMARK    4  A    between atoms: CA_8  and  C_9 
REMARK    5  A    between atoms: CA_8  and  C_20 
REMARK    6  A    between atoms: C_9  and  C_10 
REMARK    7  A    between atoms: C_16  and  O_17 
REMARK    8  A    between atoms: C_28  and  O_29 
ROOT
ATOM      1  C   UNL d   1      24.790 -16.116  -2.374  0.00  0.00     0.222 C 
ATOM      2  O   UNL d   1      25.452 -17.068  -2.770  0.00  0.00    -0.273 OA
ATOM      3  N   UNL d   1      23.687 -16.321  -1.579  0.00  0.00    -0.346 N 
ATOM      4  H   UNL d   1      22.782 -15.918  -1.820  0.00  0.00     0.163 HD
ENDROOT
BRANCH   3   5
ATOM      5  CA  UNL d   1      23.547 -17.639  -0.895  0.00  0.00     0.189 C 
BRANCH   5   6
ATOM      6  C   UNL d   1      24.413 -17.665   0.382  0.00  0.00     0.077 C 
BRANCH   6   7
ATOM      7  C   UNL d   1      25.906 -17.476   0.184  0.00  0.00    -0.028 C 
ATOM      8  C   UNL d   1      26.865 -18.442  -0.060  0.00  0.00     0.096 C 
ATOM      9  N   UNL d   1      28.097 -17.856   0.054  0.00  0.00    -0.365 N 
ATOM     10  C   UNL d   1      27.979 -16.500   0.169  0.00  0.00     0.043 C 
ATOM     11  H   UNL d   1      28.960 -18.346   0.229  0.00  0.00     0.165 HD
ATOM     12  C   UNL d   1      28.968 -15.520   0.282  0.00  0.00     0.033 C 
ATOM     13  C   UNL d   1      26.612 -16.233   0.188  0.00  0.00     0.001 C 
ATOM     14  C   UNL d   1      28.532 -14.195   0.229  0.00  0.00     0.039 C 
ATOM     15  C   UNL d   1      27.169 -13.902   0.182  0.00  0.00     0.066 C 
ATOM     16  C   UNL d   1      26.200 -14.897   0.230  0.00  0.00     0.050 C 
BRANCH  15  17
ATOM     17  O   UNL d   1      26.716 -12.620   0.066  0.00  0.00    -0.361 OA
ATOM     18  H   UNL d   1      27.287 -12.052   0.599  0.00  0.00     0.217 HD
ENDBRANCH  15  17
ENDBRANCH   6   7
ENDBRANCH   5   6
BRANCH   5  19
ATOM     19  C   UNL d   1      22.073 -17.969  -0.493  0.00  0.00     0.197 C 
ATOM     20  O   UNL d   1      21.954 -19.016   0.219  0.00  0.00    -0.646 OA
ATOM     21  OXT UNL d   1      21.181 -17.171  -0.895  0.00  0.00    -0.646 OA
ENDBRANCH   5  19
ENDBRANCH   3   5
BRANCH   1  22
ATOM     22  C   UNL d   1      25.111 -14.663  -2.766  0.00  0.00     0.148 C 
BRANCH  22  23
ATOM     23  C   UNL d   1      26.078 -14.368  -3.937  0.00  0.00     0.033 C 
ATOM     24  C   UNL d   1      26.778 -13.202  -4.016  0.00  0.00    -0.036 C 
ATOM     25  C   UNL d   1      26.638 -12.081  -3.017  0.00  0.00     0.050 C 
ATOM     26  C   UNL d   1      27.676 -12.948  -5.172  0.00  0.00     0.005 A 
ATOM     27  C   UNL d   1      28.363 -11.760  -5.422  0.00  0.00     0.017 A 
ATOM     28  C   UNL d   1      27.868 -13.964  -6.097  0.00  0.00     0.092 A 
ATOM     29  C   UNL d   1      29.160 -11.617  -6.572  0.00  0.00     0.037 A 
ATOM     30  C   UNL d   1      29.271 -12.651  -7.494  0.00  0.00     0.068 A 
ATOM     31  C   UNL d   1      28.621 -13.843  -7.265  0.00  0.00     0.074 A 
ATOM     32  O   UNL d   1      27.333 -15.217  -5.891  0.00  0.00    -0.274 OA
ATOM     33  C   UNL d   1      26.224 -15.318  -5.087  0.00  0.00     0.295 C 
ATOM     34  O   UNL d   1      25.493 -16.255  -5.369  0.00  0.00    -0.259 OA
BRANCH  30  35
ATOM     35  O   UNL d   1      30.042 -12.466  -8.600  0.00  0.00    -0.361 OA
ATOM     36  H   UNL d   1      30.175 -13.326  -9.034  0.00  0.00     0.217 HD
ENDBRANCH  30  35
ENDBRANCH  22  23
ENDBRANCH   1  22
TORSDOF 8
ENDMDL
MODEL 6
REMARK VINA RESULT:    -7.851      4.448      6.964
REMARK INTER + INTRA:         -14.139
REMARK INTER:                 -10.237
REMARK INTRA:                  -3.901
REMARK CONF_INDEPENDENT:        2.386
REMARK UNBOUND:                -3.901
REMARK  8 active torsions:
REMARK  status: ('A' for Active; 'I' for Inactive)
REMARK    1  A    between atoms: C_3  and  C_4 
REMARK    2  A    between atoms: C_4  and  C_5 
REMARK       I    between atoms: C_5  and  N_7 
REMARK    3  A    between atoms: N_7  and  CA_8 
REMARK    4  A    between atoms: CA_8  and  C_9 
REMARK    5  A    between atoms: CA_8  and  C_20 
REMARK    6  A    between atoms: C_9  and  C_10 
REMARK    7  A    between atoms: C_16  and  O_17 
REMARK    8  A    between atoms: C_28  and  O_29 
ROOT
ATOM      1  C   UNL d   1      29.419 -16.901  -1.259  0.00  0.00     0.222 C 
ATOM      2  O   UNL d   1      29.894 -18.029  -1.217  0.00  0.00    -0.273 OA
ATOM      3  N   UNL d   1      29.755 -16.043  -2.281  0.00  0.00    -0.346 N 
ATOM      4  H   UNL d   1      30.101 -15.104  -2.087  0.00  0.00     0.163 HD
ENDROOT
BRANCH   3   5
ATOM      5  CA  UNL d   1      30.367 -16.620  -3.512  0.00  0.00     0.189 C 
BRANCH   5   6
ATOM      6  C   UNL d   1      29.306 -16.730  -4.627  0.00  0.00     0.077 C 
BRANCH   6   7
ATOM      7  C   UNL d   1      28.849 -15.423  -5.250  0.00  0.00    -0.028 C 
ATOM      8  C   UNL d   1      29.464 -14.690  -6.247  0.00  0.00     0.096 C 
ATOM      9  N   UNL d   1      28.829 -13.480  -6.340  0.00  0.00    -0.365 N 
ATOM     10  C   UNL d   1      27.697 -13.470  -5.576  0.00  0.00     0.043 C 
ATOM     11  H   UNL d   1      29.224 -12.646  -6.743  0.00  0.00     0.165 HD
ATOM     12  C   UNL d   1      26.746 -12.462  -5.396  0.00  0.00     0.033 C 
ATOM     13  C   UNL d   1      27.655 -14.704  -4.932  0.00  0.00     0.001 C 
ATOM     14  C   UNL d   1      25.609 -12.810  -4.665  0.00  0.00     0.039 C 
ATOM     15  C   UNL d   1      25.514 -14.065  -4.064  0.00  0.00     0.066 C 
ATOM     16  C   UNL d   1      26.548 -14.993  -4.128  0.00  0.00     0.050 C 
BRANCH  15  17
ATOM     17  O   UNL d   1      24.389 -14.457  -3.398  0.00  0.00    -0.361 OA
ATOM     18  H   UNL d   1      24.548 -14.340  -2.451  0.00  0.00     0.217 HD
ENDBRANCH  15  17
ENDBRANCH   6   7
ENDBRANCH   5   6
BRANCH   5  19
ATOM     19  C   UNL d   1      31.564 -15.777  -4.057  0.00  0.00     0.197 C 
ATOM     20  O   UNL d   1      31.918 -14.825  -3.290  0.00  0.00    -0.646 OA
ATOM     21  OXT UNL d   1      32.052 -16.132  -5.166  0.00  0.00    -0.646 OA
ENDBRANCH   5  19
ENDBRANCH   3   5
BRANCH   1  22
ATOM     22  C   UNL d   1      28.470 -16.361  -0.175  0.00  0.00     0.148 C 
BRANCH  22  23
ATOM     23  C   UNL d   1      26.938 -16.510  -0.338  0.00  0.00     0.033 C 
ATOM     24  C   UNL d   1      26.298 -17.683  -0.079  0.00  0.00    -0.036 C 
ATOM     25  C   UNL d   1      27.013 -18.947   0.327  0.00  0.00     0.050 C 
ATOM     26  C   UNL d   1      24.828 -17.790  -0.273  0.00  0.00     0.005 A 
ATOM     27  C   UNL d   1      24.074 -18.957  -0.145  0.00  0.00     0.017 A 
ATOM     28  C   UNL d   1      24.120 -16.646  -0.610  0.00  0.00     0.092 A 
ATOM     29  C   UNL d   1      22.689 -18.949  -0.390  0.00  0.00     0.037 A 
ATOM     30  C   UNL d   1      22.041 -17.782  -0.778  0.00  0.00     0.068 A 
ATOM     31  C   UNL d   1      22.755 -16.611  -0.894  0.00  0.00     0.074 A 
ATOM     32  O   UNL d   1      24.742 -15.416  -0.649  0.00  0.00    -0.274 OA
ATOM     33  C   UNL d   1      26.098 -15.389  -0.871  0.00  0.00     0.295 C 
ATOM     34  O   UNL d   1      26.485 -14.378  -1.434  0.00  0.00    -0.259 OA
BRANCH  30  35
ATOM     35  O   UNL d   1      20.702 -17.822  -1.017  0.00  0.00    -0.361 OA
ATOM     36  H   UNL d   1      20.475 -17.106  -1.634  0.00  0.00     0.217 HD
ENDBRANCH  30  35
ENDBRANCH  22  23
ENDBRANCH   1  22
TORSDOF 8
ENDMDL
MODEL 7
REMARK VINA RESULT:    -7.369      5.616      8.312
REMARK INTER + INTRA:         -12.797
REMARK INTER:                  -9.755
REMARK INTRA:                  -3.042
REMARK CONF_INDEPENDENT:        2.386
REMARK UNBOUND:                -3.042
REMARK  8 active torsions:
REMARK  status: ('A' for Active; 'I' for Inactive)
REMARK    1  A    between atoms: C_3  and  C_4 
REMARK    2  A    between atoms: C_4  and  C_5 
REMARK       I    between atoms: C_5  and  N_7 
REMARK    3  A    between atoms: N_7  and  CA_8 
REMARK    4  A    between atoms: CA_8  and  C_9 
REMARK    5  A    between atoms: CA_8  and  C_20 
REMARK    6  A    between atoms: C_9  and  C_10 
REMARK    7  A    between atoms: C_16  and  O_17 
REMARK    8  A    between atoms: C_28  and  O_29 
ROOT
ATOM      1  C   UNL d   1      27.701 -12.592  -3.308  0.00  0.00     0.222 C 
ATOM      2  O   UNL d   1      28.264 -11.534  -3.563  0.00  0.00    -0.273 OA
ATOM      3  N   UNL d   1      27.735 -13.631  -4.210  0.00  0.00    -0.346 N 
ATOM      4  H   UNL d   1      26.877 -14.087  -4.518  0.00  0.00     0.163 HD
ENDROOT
BRANCH   3   5
ATOM      5  CA  UNL d   1      28.766 -13.596  -5.287  0.00  0.00     0.189 C 
BRANCH   5   6
ATOM      6  C   UNL d   1      30.082 -14.217  -4.776  0.00  0.00     0.077 C 
BRANCH   6   7
ATOM      7  C   UNL d   1      30.006 -15.657  -4.301  0.00  0.00    -0.028 C 
ATOM      8  C   UNL d   1      29.627 -16.128  -3.057  0.00  0.00     0.096 C 
ATOM      9  N   UNL d   1      29.920 -17.464  -3.001  0.00  0.00    -0.365 N 
ATOM     10  C   UNL d   1      30.295 -17.928  -4.229  0.00  0.00     0.043 C 
ATOM     11  H   UNL d   1      30.040 -17.997  -2.155  0.00  0.00     0.165 HD
ATOM     12  C   UNL d   1      30.653 -19.218  -4.630  0.00  0.00     0.033 C 
ATOM     13  C   UNL d   1      30.294 -16.822  -5.076  0.00  0.00     0.001 C 
ATOM     14  C   UNL d   1      30.840 -19.409  -5.999  0.00  0.00     0.039 C 
ATOM     15  C   UNL d   1      30.780 -18.327  -6.877  0.00  0.00     0.066 C 
ATOM     16  C   UNL d   1      30.578 -17.026  -6.431  0.00  0.00     0.050 C 
BRANCH  15  17
ATOM     17  O   UNL d   1      30.896 -18.492  -8.227  0.00  0.00    -0.361 OA
ATOM     18  H   UNL d   1      30.864 -17.618  -8.638  0.00  0.00     0.217 HD
ENDBRANCH  15  17
ENDBRANCH   6   7
ENDBRANCH   5   6
BRANCH   5  19
ATOM     19  C   UNL d   1      28.332 -14.361  -6.578  0.00  0.00     0.197 C 
ATOM     20  O   UNL d   1      27.394 -15.200  -6.393  0.00  0.00    -0.646 OA
ATOM     21  OXT UNL d   1      28.935 -14.061  -7.647  0.00  0.00    -0.646 OA
ENDBRANCH   5  19
ENDBRANCH   3   5
BRANCH   1  22
ATOM     22  C   UNL d   1      26.901 -12.815  -2.013  0.00  0.00     0.148 C 
BRANCH  22  23
ATOM     23  C   UNL d   1      26.074 -14.109  -1.822  0.00  0.00     0.033 C 
ATOM     24  C   UNL d   1      26.338 -14.989  -0.816  0.00  0.00    -0.036 C 
ATOM     25  C   UNL d   1      27.479 -14.821   0.156  0.00  0.00     0.050 C 
ATOM     26  C   UNL d   1      25.536 -16.232  -0.684  0.00  0.00     0.005 A 
ATOM     27  C   UNL d   1      25.772 -17.259   0.232  0.00  0.00     0.017 A 
ATOM     28  C   UNL d   1      24.452 -16.415  -1.530  0.00  0.00     0.092 A 
ATOM     29  C   UNL d   1      24.968 -18.412   0.243  0.00  0.00     0.037 A 
ATOM     30  C   UNL d   1      23.928 -18.564  -0.667  0.00  0.00     0.068 A 
ATOM     31  C   UNL d   1      23.659 -17.561  -1.570  0.00  0.00     0.074 A 
ATOM     32  O   UNL d   1      24.056 -15.417  -2.395  0.00  0.00    -0.274 OA
ATOM     33  C   UNL d   1      24.997 -14.496  -2.788  0.00  0.00     0.295 C 
ATOM     34  O   UNL d   1      24.795 -14.027  -3.897  0.00  0.00    -0.259 OA
BRANCH  30  35
ATOM     35  O   UNL d   1      23.183 -19.703  -0.629  0.00  0.00    -0.361 OA
ATOM     36  H   UNL d   1      22.836 -19.817   0.272  0.00  0.00     0.217 HD
ENDBRANCH  30  35
ENDBRANCH  22  23
ENDBRANCH   1  22
TORSDOF 8
ENDMDL
MODEL 8
REMARK VINA RESULT:    -6.748      5.052      6.881
REMARK INTER + INTRA:         -13.362
REMARK INTER:                  -9.135
REMARK INTRA:                  -4.227
REMARK CONF_INDEPENDENT:        2.386
REMARK UNBOUND:                -4.227
REMARK  8 active torsions:
REMARK  status: ('A' for Active; 'I' for Inactive)
REMARK    1  A    between atoms: C_3  and  C_4 
REMARK    2  A    between atoms: C_4  and  C_5 
REMARK       I    between atoms: C_5  and  N_7 
REMARK    3  A    between atoms: N_7  and  CA_8 
REMARK    4  A    between atoms: CA_8  and  C_9 
REMARK    5  A    between atoms: CA_8  and  C_20 
REMARK    6  A    between atoms: C_9  and  C_10 
REMARK    7  A    between atoms: C_16  and  O_17 
REMARK    8  A    between atoms: C_28  and  O_29 
ROOT
ATOM      1  C   UNL d   1      27.439 -12.286  -2.639  0.00  0.00     0.222 C 
ATOM      2  O   UNL d   1      27.867 -11.720  -3.637  0.00  0.00    -0.273 OA
ATOM      3  N   UNL d   1      26.987 -13.583  -2.717  0.00  0.00    -0.346 N 
ATOM      4  H   UNL d   1      26.063 -13.840  -2.371  0.00  0.00     0.163 HD
ENDROOT
BRANCH   3   5
ATOM      5  CA  UNL d   1      27.385 -14.398  -3.901  0.00  0.00     0.189 C 
BRANCH   5   6
ATOM      6  C   UNL d   1      28.300 -15.559  -3.457  0.00  0.00     0.077 C 
BRANCH   6   7
ATOM      7  C   UNL d   1      28.189 -15.986  -2.005  0.00  0.00    -0.028 C 
ATOM      8  C   UNL d   1      29.128 -15.850  -0.999  0.00  0.00     0.096 C 
ATOM      9  N   UNL d   1      28.698 -16.568   0.084  0.00  0.00    -0.365 N 
ATOM     10  C   UNL d   1      27.419 -17.007  -0.105  0.00  0.00     0.043 C 
ATOM     11  H   UNL d   1      29.286 -16.902   0.830  0.00  0.00     0.165 HD
ATOM     12  C   UNL d   1      26.590 -17.746   0.743  0.00  0.00     0.033 C 
ATOM     13  C   UNL d   1      27.056 -16.597  -1.385  0.00  0.00     0.001 C 
ATOM     14  C   UNL d   1      25.269 -17.911   0.325  0.00  0.00     0.039 C 
ATOM     15  C   UNL d   1      24.863 -17.452  -0.928  0.00  0.00     0.066 C 
ATOM     16  C   UNL d   1      25.751 -16.858  -1.818  0.00  0.00     0.050 C 
BRANCH  15  17
ATOM     17  O   UNL d   1      23.565 -17.541  -1.338  0.00  0.00    -0.361 OA
ATOM     18  H   UNL d   1      23.535 -17.334  -2.282  0.00  0.00     0.217 HD
ENDBRANCH  15  17
ENDBRANCH   6   7
ENDBRANCH   5   6
BRANCH   5  19
ATOM     19  C   UNL d   1      26.167 -15.002  -4.670  0.00  0.00     0.197 C 
ATOM     20  O   UNL d   1      25.050 -14.826  -4.089  0.00  0.00    -0.646 OA
ATOM     21  OXT UNL d   1      26.415 -15.573  -5.770  0.00  0.00    -0.646 OA
ENDBRANCH   5  19
ENDBRANCH   3   5
BRANCH   1  22
ATOM     22  C   UNL d   1      27.337 -11.590  -1.271  0.00  0.00     0.148 C 
BRANCH  22  23
ATOM     23  C   UNL d   1      27.583 -12.391   0.030  0.00  0.00     0.033 C 
ATOM     24  C   UNL d   1      28.645 -12.133   0.843  0.00  0.00    -0.036 C 
ATOM     25  C   UNL d   1      29.697 -11.099   0.531  0.00  0.00     0.050 C 
ATOM     26  C   UNL d   1      28.858 -12.944   2.070  0.00  0.00     0.005 A 
ATOM     27  C   UNL d   1      29.957 -12.850   2.925  0.00  0.00     0.017 A 
ATOM     28  C   UNL d   1      27.898 -13.881   2.421  0.00  0.00     0.092 A 
ATOM     29  C   UNL d   1      30.075 -13.697   4.042  0.00  0.00     0.037 A 
ATOM     30  C   UNL d   1      29.106 -14.656   4.313  0.00  0.00     0.068 A 
ATOM     31  C   UNL d   1      28.001 -14.760   3.498  0.00  0.00     0.074 A 
ATOM     32  O   UNL d   1      26.718 -13.980   1.715  0.00  0.00    -0.274 OA
ATOM     33  C   UNL d   1      26.710 -13.548   0.411  0.00  0.00     0.295 C 
ATOM     34  O   UNL d   1      25.906 -14.132  -0.297  0.00  0.00    -0.259 OA
BRANCH  30  35
ATOM     35  O   UNL d   1      29.266 -15.464   5.397  0.00  0.00    -0.361 OA
ATOM     36  H   UNL d   1      29.603 -16.325   5.095  0.00  0.00     0.217 HD
ENDBRANCH  30  35
ENDBRANCH  22  23
ENDBRANCH   1  22
TORSDOF 8
ENDMDL
MODEL 9
REMARK VINA RESULT:    -6.590      5.831      8.040
REMARK INTER + INTRA:         -12.988
REMARK INTER:                  -8.976
REMARK INTRA:                  -4.012
REMARK CONF_INDEPENDENT:        2.386
REMARK UNBOUND:                -4.012
REMARK  8 active torsions:
REMARK  status: ('A' for Active; 'I' for Inactive)
REMARK    1  A    between atoms: C_3  and  C_4 
REMARK    2  A    between atoms: C_4  and  C_5 
REMARK       I    between atoms: C_5  and  N_7 
REMARK    3  A    between atoms: N_7  and  CA_8 
REMARK    4  A    between atoms: CA_8  and  C_9 
REMARK    5  A    between atoms: CA_8  and  C_20 
REMARK    6  A    between atoms: C_9  and  C_10 
REMARK    7  A    between atoms: C_16  and  O_17 
REMARK    8  A    between atoms: C_28  and  O_29 
ROOT
ATOM      1  C   UNL d   1      28.735 -14.546  -5.922  0.00  0.00     0.222 C 
ATOM      2  O   UNL d   1      28.034 -15.200  -6.685  0.00  0.00    -0.273 OA
ATOM      3  N   UNL d   1      29.423 -13.448  -6.382  0.00  0.00    -0.346 N 
ATOM      4  H   UNL d   1      30.426 -13.351  -6.224  0.00  0.00     0.163 HD
ENDROOT
BRANCH   3   5
ATOM      5  CA  UNL d   1      29.004 -12.847  -7.681  0.00  0.00     0.189 C 
BRANCH   5   6
ATOM      6  C   UNL d   1      28.105 -11.618  -7.428  0.00  0.00     0.077 C 
BRANCH   6   7
ATOM      7  C   UNL d   1      27.933 -11.199  -5.979  0.00  0.00    -0.028 C 
ATOM      8  C   UNL d   1      28.612 -10.212  -5.288  0.00  0.00     0.096 C 
ATOM      9  N   UNL d   1      28.297 -10.329  -3.961  0.00  0.00    -0.365 N 
ATOM     10  C   UNL d   1      27.286 -11.229  -3.782  0.00  0.00     0.043 C 
ATOM     11  H   UNL d   1      28.848  -9.967  -3.199  0.00  0.00     0.165 HD
ATOM     12  C   UNL d   1      26.643 -11.634  -2.609  0.00  0.00     0.033 C 
ATOM     13  C   UNL d   1      26.997 -11.741  -5.045  0.00  0.00     0.001 C 
ATOM     14  C   UNL d   1      25.533 -12.465  -2.770  0.00  0.00     0.039 C 
ATOM     15  C   UNL d   1      25.184 -12.939  -4.034  0.00  0.00     0.066 C 
ATOM     16  C   UNL d   1      25.938 -12.646  -5.165  0.00  0.00     0.050 C 
BRANCH  15  17
ATOM     17  O   UNL d   1      24.068 -13.701  -4.231  0.00  0.00    -0.361 OA
ATOM     18  H   UNL d   1      24.299 -14.416  -4.839  0.00  0.00     0.217 HD
ENDBRANCH  15  17
ENDBRANCH   6   7
ENDBRANCH   5   6
BRANCH   5  19
ATOM     19  C   UNL d   1      30.209 -12.397  -8.568  0.00  0.00     0.197 C 
ATOM     20  O   UNL d   1      31.345 -12.734  -8.108  0.00  0.00    -0.646 OA
ATOM     21  OXT UNL d   1      29.931 -11.775  -9.632  0.00  0.00    -0.646 OA
ENDBRANCH   5  19
ENDBRANCH   3   5
BRANCH   1  22
ATOM     22  C   UNL d   1      28.924 -14.922  -4.443  0.00  0.00     0.148 C 
BRANCH  22  23
ATOM     23  C   UNL d   1      27.738 -15.485  -3.624  0.00  0.00     0.033 C 
ATOM     24  C   UNL d   1      27.899 -15.961  -2.359  0.00  0.00    -0.036 C 
ATOM     25  C   UNL d   1      29.236 -16.038  -1.664  0.00  0.00     0.050 C 
ATOM     26  C   UNL d   1      26.738 -16.517  -1.617  0.00  0.00     0.005 A 
ATOM     27  C   UNL d   1      26.790 -17.128  -0.364  0.00  0.00     0.017 A 
ATOM     28  C   UNL d   1      25.480 -16.435  -2.198  0.00  0.00     0.092 A 
ATOM     29  C   UNL d   1      25.628 -17.654   0.230  0.00  0.00     0.037 A 
ATOM     30  C   UNL d   1      24.403 -17.591  -0.425  0.00  0.00     0.068 A 
ATOM     31  C   UNL d   1      24.316 -16.978  -1.654  0.00  0.00     0.074 A 
ATOM     32  O   UNL d   1      25.292 -15.750  -3.379  0.00  0.00    -0.274 OA
ATOM     33  C   UNL d   1      26.369 -15.612  -4.220  0.00  0.00     0.295 C 
ATOM     34  O   UNL d   1      26.066 -15.530  -5.400  0.00  0.00    -0.259 OA
BRANCH  30  35
ATOM     35  O   UNL d   1      23.307 -18.125   0.180  0.00  0.00    -0.361 OA
ATOM     36  H   UNL d   1      23.124 -18.992  -0.218  0.00  0.00     0.217 HD
ENDBRANCH  30  35
ENDBRANCH  22  23
ENDBRANCH   1  22
TORSDOF 8
ENDMDL
