MODEL 1
REMARK VINA RESULT:   -11.385      0.000      0.000
REMARK INTER + INTRA:         -12.998
REMARK INTER:                 -12.280
REMARK INTRA:                  -0.719
REMARK CONF_INDEPENDENT:        0.895
REMARK UNBOUND:                -0.719
REMARK  3 active torsions:
REMARK  status: ('A' for Active; 'I' for Inactive)
REMARK    1  A    between atoms: C_2  and  C_4 
REMARK       I    between atoms: C_4  and  N_6 
REMARK    2  A    between atoms: N_6  and  C_7 
REMARK    3  A    between atoms: C_10  and  C_11 
ROOT
ATOM      1  C   UNL d   1      22.790 -18.175  -0.037  0.00  0.00     0.034 C 
ATOM      2  C   UNL d   1      24.137 -18.550  -0.149  0.00  0.00     0.030 C 
ATOM      3  C   UNL d   1      25.081 -17.732  -0.844  0.00  0.00     0.017 C 
ATOM      4  C   UNL d   1      24.693 -16.558  -1.488  0.00  0.00     0.012 C 
ATOM      5  C   UNL d   1      23.374 -16.113  -1.214  0.00  0.00     0.017 C 
ATOM      6  C   UNL d   1      22.440 -16.916  -0.520  0.00  0.00     0.030 C 
ENDROOT
BRANCH   4   7
ATOM      7  C   UNL d   1      25.616 -15.758  -2.456  0.00  0.00     0.160 C 
ATOM      8  N   UNL d   1      24.994 -14.813  -3.097  0.00  0.00    -0.228 NA
ATOM      9  C   UNL d   1      25.725 -14.050  -4.016  0.00  0.00     0.072 C 
ATOM     10  C   UNL d   1      25.172 -12.869  -4.524  0.00  0.00     0.032 C 
ATOM     11  C   UNL d   1      26.983 -14.480  -4.396  0.00  0.00     0.031 C 
ATOM     12  C   UNL d   1      25.905 -12.072  -5.404  0.00  0.00     0.003 C 
ATOM     13  C   UNL d   1      27.164 -12.498  -5.809  0.00  0.00     0.012 C 
ATOM     14  C   UNL d   1      27.665 -13.739  -5.398  0.00  0.00    -0.024 C 
ATOM     15  C   UNL d   1      28.811 -14.302  -5.931  0.00  0.00    -0.005 C 
ATOM     16  C   UNL d   1      29.094 -15.621  -5.637  0.00  0.00     0.045 C 
ATOM     17  C   UNL d   1      28.862 -15.928  -4.299  0.00  0.00     0.015 C 
ATOM     18  C   UNL d   1      27.603 -15.558  -3.730  0.00  0.00     0.069 C 
ATOM     19  N   UNL d   1      26.958 -16.100  -2.609  0.00  0.00    -0.228 NA
ENDBRANCH   4   7
BRANCH   1  20
ATOM     20  N   UNL d   1      21.794 -19.022   0.547  0.00  0.00    -0.327 N 
ATOM     21  C   UNL d   1      20.821 -19.641  -0.242  0.00  0.00     0.225 C 
ATOM     22  O   UNL d   1      20.758 -19.515  -1.465  0.00  0.00    -0.273 OA
ATOM     23  H   UNL d   1      21.931 -19.325   1.503  0.00  0.00     0.169 HD
BRANCH  21  24
ATOM     24  C   UNL d   1      19.781 -20.527   0.473  0.00  0.00     0.070 C 
ATOM     25  C   UNL d   1      19.656 -20.076   1.942  0.00  0.00     0.019 C 
ATOM     26  C   UNL d   1      18.403 -20.450  -0.173  0.00  0.00     0.019 C 
ENDBRANCH  21  24
ENDBRANCH   1  20
TORSDOF 3
ENDMDL
MODEL 2
REMARK VINA RESULT:   -11.037      0.446      2.288
REMARK INTER + INTRA:         -12.650
REMARK INTER:                 -11.932
REMARK INTRA:                  -0.718
REMARK CONF_INDEPENDENT:        0.895
REMARK UNBOUND:                -0.718
REMARK  3 active torsions:
REMARK  status: ('A' for Active; 'I' for Inactive)
REMARK    1  A    between atoms: C_2  and  C_4 
REMARK       I    between atoms: C_4  and  N_6 
REMARK    2  A    between atoms: N_6  and  C_7 
REMARK    3  A    between atoms: C_10  and  C_11 
ROOT
ATOM      1  C   UNL d   1      22.782 -18.127  -0.133  0.00  0.00     0.034 C 
ATOM      2  C   UNL d   1      24.085 -18.566  -0.413  0.00  0.00     0.030 C 
ATOM      3  C   UNL d   1      24.992 -17.762  -1.171  0.00  0.00     0.017 C 
ATOM      4  C   UNL d   1      24.605 -16.537  -1.711  0.00  0.00     0.012 C 
ATOM      5  C   UNL d   1      23.352 -16.039  -1.271  0.00  0.00     0.017 C 
ATOM      6  C   UNL d   1      22.454 -16.828  -0.515  0.00  0.00     0.030 C 
ENDROOT
BRANCH   4   7
ATOM      7  C   UNL d   1      25.462 -15.737  -2.738  0.00  0.00     0.160 C 
ATOM      8  N   UNL d   1      26.714 -16.088  -2.748  0.00  0.00    -0.228 NA
ATOM      9  C   UNL d   1      27.580 -15.412  -3.616  0.00  0.00     0.072 C 
ATOM     10  C   UNL d   1      28.859 -15.927  -3.852  0.00  0.00     0.032 C 
ATOM     11  C   UNL d   1      27.145 -14.250  -4.228  0.00  0.00     0.031 C 
ATOM     12  C   UNL d   1      29.718 -15.291  -4.750  0.00  0.00     0.003 C 
ATOM     13  C   UNL d   1      29.304 -14.114  -5.361  0.00  0.00     0.012 C 
ATOM     14  C   UNL d   1      28.073 -13.533  -5.031  0.00  0.00    -0.024 C 
ATOM     15  C   UNL d   1      27.703 -12.267  -5.447  0.00  0.00    -0.005 C 
ATOM     16  C   UNL d   1      26.583 -11.690  -4.882  0.00  0.00     0.045 C 
ATOM     17  C   UNL d   1      25.529 -12.592  -4.753  0.00  0.00     0.015 C 
ATOM     18  C   UNL d   1      25.794 -13.855  -4.138  0.00  0.00     0.069 C 
ATOM     19  N   UNL d   1      24.893 -14.726  -3.510  0.00  0.00    -0.228 NA
ENDBRANCH   4   7
BRANCH   1  20
ATOM     20  N   UNL d   1      21.808 -18.951   0.518  0.00  0.00    -0.327 N 
ATOM     21  C   UNL d   1      20.800 -19.589  -0.210  0.00  0.00     0.225 C 
ATOM     22  O   UNL d   1      20.687 -19.501  -1.433  0.00  0.00    -0.273 OA
ATOM     23  H   UNL d   1      21.984 -19.224   1.476  0.00  0.00     0.169 HD
BRANCH  21  24
ATOM     24  C   UNL d   1      19.788 -20.447   0.575  0.00  0.00     0.070 C 
ATOM     25  C   UNL d   1      19.659 -19.893   2.009  0.00  0.00     0.019 C 
ATOM     26  C   UNL d   1      18.405 -20.454  -0.065  0.00  0.00     0.019 C 
ENDBRANCH  21  24
ENDBRANCH   1  20
TORSDOF 3
ENDMDL
MODEL 3
REMARK VINA RESULT:   -10.077      1.220      2.074
REMARK INTER + INTRA:         -11.665
REMARK INTER:                 -10.972
REMARK INTRA:                  -0.693
REMARK CONF_INDEPENDENT:        0.895
REMARK UNBOUND:                -0.693
REMARK  3 active torsions:
REMARK  status: ('A' for Active; 'I' for Inactive)
REMARK    1  A    between atoms: C_2  and  C_4 
REMARK       I    between atoms: C_4  and  N_6 
REMARK    2  A    between atoms: N_6  and  C_7 
REMARK    3  A    between atoms: C_10  and  C_11 
ROOT
ATOM      1  C   UNL d   1      22.203 -18.401   0.062  0.00  0.00     0.034 C 
ATOM      2  C   UNL d   1      22.103 -17.132  -0.526  0.00  0.00     0.030 C 
ATOM      3  C   UNL d   1      23.197 -16.558  -1.245  0.00  0.00     0.017 C 
ATOM      4  C   UNL d   1      24.426 -17.207  -1.343  0.00  0.00     0.012 C 
ATOM      5  C   UNL d   1      24.448 -18.553  -0.895  0.00  0.00     0.017 C 
ATOM      6  C   UNL d   1      23.364 -19.127  -0.190  0.00  0.00     0.030 C 
ENDROOT
BRANCH   4   7
ATOM      7  C   UNL d   1      25.717 -16.534  -1.898  0.00  0.00     0.160 C 
ATOM      8  N   UNL d   1      25.528 -15.907  -3.021  0.00  0.00    -0.228 NA
ATOM      9  C   UNL d   1      26.632 -15.289  -3.624  0.00  0.00     0.072 C 
ATOM     10  C   UNL d   1      26.427 -14.392  -4.677  0.00  0.00     0.032 C 
ATOM     11  C   UNL d   1      27.901 -15.576  -3.155  0.00  0.00     0.031 C 
ATOM     12  C   UNL d   1      27.511 -13.731  -5.258  0.00  0.00     0.003 C 
ATOM     13  C   UNL d   1      28.795 -14.020  -4.811  0.00  0.00     0.012 C 
ATOM     14  C   UNL d   1      29.008 -15.008  -3.842  0.00  0.00    -0.024 C 
ATOM     15  C   UNL d   1      30.266 -15.480  -3.512  0.00  0.00    -0.005 C 
ATOM     16  C   UNL d   1      30.359 -16.610  -2.724  0.00  0.00     0.045 C 
ATOM     17  C   UNL d   1      29.446 -16.601  -1.672  0.00  0.00     0.015 C 
ATOM     18  C   UNL d   1      28.076 -16.323  -1.971  0.00  0.00     0.069 C 
ATOM     19  N   UNL d   1      26.934 -16.664  -1.232  0.00  0.00    -0.228 NA
ENDBRANCH   4   7
BRANCH   1  20
ATOM     20  N   UNL d   1      21.174 -18.958   0.888  0.00  0.00    -0.327 N 
ATOM     21  C   UNL d   1      20.055 -19.578   0.326  0.00  0.00     0.225 C 
ATOM     22  O   UNL d   1      19.884 -19.699  -0.887  0.00  0.00    -0.273 OA
ATOM     23  H   UNL d   1      21.369 -19.075   1.874  0.00  0.00     0.169 HD
BRANCH  21  24
ATOM     24  C   UNL d   1      18.991 -20.139   1.291  0.00  0.00     0.070 C 
ATOM     25  C   UNL d   1      18.407 -21.439   0.701  0.00  0.00     0.019 C 
ATOM     26  C   UNL d   1      19.559 -20.450   2.672  0.00  0.00     0.019 C 
ENDBRANCH  21  24
ENDBRANCH   1  20
TORSDOF 3
ENDMDL
MODEL 4
REMARK VINA RESULT:    -9.983      1.486      2.691
REMARK INTER + INTRA:         -11.574
REMARK INTER:                 -10.878
REMARK INTRA:                  -0.696
REMARK CONF_INDEPENDENT:        0.895
REMARK UNBOUND:                -0.696
REMARK  3 active torsions:
REMARK  status: ('A' for Active; 'I' for Inactive)
REMARK    1  A    between atoms: C_2  and  C_4 
REMARK       I    between atoms: C_4  and  N_6 
REMARK    2  A    between atoms: N_6  and  C_7 
REMARK    3  A    between atoms: C_10  and  C_11 
ROOT
ATOM      1  C   UNL d   1      22.447 -18.179  -0.355  0.00  0.00     0.034 C 
ATOM      2  C   UNL d   1      22.155 -16.816  -0.520  0.00  0.00     0.030 C 
ATOM      3  C   UNL d   1      23.034 -15.950  -1.242  0.00  0.00     0.017 C 
ATOM      4  C   UNL d   1      24.243 -16.407  -1.763  0.00  0.00     0.012 C 
ATOM      5  C   UNL d   1      24.432 -17.813  -1.736  0.00  0.00     0.017 C 
ATOM      6  C   UNL d   1      23.560 -18.674  -1.030  0.00  0.00     0.030 C 
ENDROOT
BRANCH   4   7
ATOM      7  C   UNL d   1      25.344 -15.469  -2.341  0.00  0.00     0.160 C 
ATOM      8  N   UNL d   1      26.384 -15.360  -1.570  0.00  0.00    -0.228 NA
ATOM      9  C   UNL d   1      27.424 -14.516  -1.982  0.00  0.00     0.072 C 
ATOM     10  C   UNL d   1      28.658 -14.574  -1.325  0.00  0.00     0.032 C 
ATOM     11  C   UNL d   1      27.207 -13.649  -3.036  0.00  0.00     0.031 C 
ATOM     12  C   UNL d   1      29.720 -13.774  -1.753  0.00  0.00     0.003 C 
ATOM     13  C   UNL d   1      29.514 -12.885  -2.800  0.00  0.00     0.012 C 
ATOM     14  C   UNL d   1      28.245 -12.740  -3.375  0.00  0.00    -0.024 C 
ATOM     15  C   UNL d   1      27.936 -11.732  -4.271  0.00  0.00    -0.005 C 
ATOM     16  C   UNL d   1      26.610 -11.528  -4.600  0.00  0.00     0.045 C 
ATOM     17  C   UNL d   1      25.925 -12.722  -4.807  0.00  0.00     0.015 C 
ATOM     18  C   UNL d   1      26.032 -13.743  -3.812  0.00  0.00     0.069 C 
ATOM     19  N   UNL d   1      25.154 -14.805  -3.552  0.00  0.00    -0.228 NA
ENDBRANCH   4   7
BRANCH   1  20
ATOM     20  N   UNL d   1      21.655 -19.050   0.459  0.00  0.00    -0.327 N 
ATOM     21  C   UNL d   1      20.588 -19.772  -0.082  0.00  0.00     0.225 C 
ATOM     22  O   UNL d   1      20.269 -19.722  -1.271  0.00  0.00    -0.273 OA
ATOM     23  H   UNL d   1      22.005 -19.287   1.378  0.00  0.00     0.169 HD
BRANCH  21  24
ATOM     24  C   UNL d   1      19.783 -20.676   0.871  0.00  0.00     0.070 C 
ATOM     25  C   UNL d   1      19.817 -20.074   2.291  0.00  0.00     0.019 C 
ATOM     26  C   UNL d   1      18.326 -20.825   0.446  0.00  0.00     0.019 C 
ENDBRANCH  21  24
ENDBRANCH   1  20
TORSDOF 3
ENDMDL
MODEL 5
REMARK VINA RESULT:    -9.426      2.045      3.273
REMARK INTER + INTRA:         -11.027
REMARK INTER:                 -10.321
REMARK INTRA:                  -0.706
REMARK CONF_INDEPENDENT:        0.895
REMARK UNBOUND:                -0.706
REMARK  3 active torsions:
REMARK  status: ('A' for Active; 'I' for Inactive)
REMARK    1  A    between atoms: C_2  and  C_4 
REMARK       I    between atoms: C_4  and  N_6 
REMARK    2  A    between atoms: N_6  and  C_7 
REMARK    3  A    between atoms: C_10  and  C_11 
ROOT
ATOM      1  C   UNL d   1      22.422 -18.444  -0.126  0.00  0.00     0.034 C 
ATOM      2  C   UNL d   1      22.177 -17.172  -0.668  0.00  0.00     0.030 C 
ATOM      3  C   UNL d   1      23.234 -16.386  -1.223  0.00  0.00     0.017 C 
ATOM      4  C   UNL d   1      24.557 -16.823  -1.200  0.00  0.00     0.012 C 
ATOM      5  C   UNL d   1      24.753 -18.173  -0.811  0.00  0.00     0.017 C 
ATOM      6  C   UNL d   1      23.709 -18.957  -0.268  0.00  0.00     0.030 C 
ENDROOT
BRANCH   4   7
ATOM      7  C   UNL d   1      25.772 -15.917  -1.565  0.00  0.00     0.160 C 
ATOM      8  N   UNL d   1      26.918 -16.436  -1.235  0.00  0.00    -0.228 NA
ATOM      9  C   UNL d   1      28.076 -15.691  -1.493  0.00  0.00     0.072 C 
ATOM     10  C   UNL d   1      29.327 -16.311  -1.403  0.00  0.00     0.032 C 
ATOM     11  C   UNL d   1      27.954 -14.358  -1.840  0.00  0.00     0.031 C 
ATOM     12  C   UNL d   1      30.488 -15.597  -1.702  0.00  0.00     0.003 C 
ATOM     13  C   UNL d   1      30.385 -14.252  -2.036  0.00  0.00     0.012 C 
ATOM     14  C   UNL d   1      29.145 -13.602  -2.006  0.00  0.00    -0.024 C 
ATOM     15  C   UNL d   1      29.011 -12.230  -2.125  0.00  0.00    -0.005 C 
ATOM     16  C   UNL d   1      27.783 -11.662  -1.849  0.00  0.00     0.045 C 
ATOM     17  C   UNL d   1      26.727 -12.398  -2.380  0.00  0.00     0.015 C 
ATOM     18  C   UNL d   1      26.687 -13.803  -2.120  0.00  0.00     0.069 C 
ATOM     19  N   UNL d   1      25.581 -14.665  -2.146  0.00  0.00    -0.228 NA
ENDBRANCH   4   7
BRANCH   1  20
ATOM     20  N   UNL d   1      21.414 -19.209   0.544  0.00  0.00    -0.327 N 
ATOM     21  C   UNL d   1      20.360 -19.792  -0.164  0.00  0.00     0.225 C 
ATOM     22  O   UNL d   1      20.233 -19.703  -1.386  0.00  0.00    -0.273 OA
ATOM     23  H   UNL d   1      21.589 -19.488   1.500  0.00  0.00     0.169 HD
BRANCH  21  24
ATOM     24  C   UNL d   1      19.314 -20.589   0.641  0.00  0.00     0.070 C 
ATOM     25  C   UNL d   1      18.965 -19.812   1.926  0.00  0.00     0.019 C 
ATOM     26  C   UNL d   1      18.028 -20.826  -0.143  0.00  0.00     0.019 C 
ENDBRANCH  21  24
ENDBRANCH   1  20
TORSDOF 3
ENDMDL
MODEL 6
REMARK VINA RESULT:    -9.401      1.348      2.002
REMARK INTER + INTRA:         -11.005
REMARK INTER:                 -10.296
REMARK INTRA:                  -0.709
REMARK CONF_INDEPENDENT:        0.895
REMARK UNBOUND:                -0.709
REMARK  3 active torsions:
REMARK  status: ('A' for Active; 'I' for Inactive)
REMARK    1  A    between atoms: C_2  and  C_4 
REMARK       I    between atoms: C_4  and  N_6 
REMARK    2  A    between atoms: N_6  and  C_7 
REMARK    3  A    between atoms: C_10  and  C_11 
ROOT
ATOM      1  C   UNL d   1      23.437 -17.215  -0.465  0.00  0.00     0.034 C 
ATOM      2  C   UNL d   1      24.685 -17.815  -0.238  0.00  0.00     0.030 C 
ATOM      3  C   UNL d   1      25.864 -17.351  -0.898  0.00  0.00     0.017 C 
ATOM      4  C   UNL d   1      25.816 -16.322  -1.837  0.00  0.00     0.012 C 
ATOM      5  C   UNL d   1      24.586 -15.620  -1.919  0.00  0.00     0.017 C 
ATOM      6  C   UNL d   1      23.419 -16.072  -1.261  0.00  0.00     0.030 C 
ENDROOT
BRANCH   4   7
ATOM      7  C   UNL d   1      27.012 -15.938  -2.759  0.00  0.00     0.160 C 
ATOM      8  N   UNL d   1      26.657 -15.247  -3.802  0.00  0.00    -0.228 NA
ATOM      9  C   UNL d   1      27.652 -14.874  -4.714  0.00  0.00     0.072 C 
ATOM     10  C   UNL d   1      27.364 -13.918  -5.694  0.00  0.00     0.032 C 
ATOM     11  C   UNL d   1      28.903 -15.455  -4.619  0.00  0.00     0.031 C 
ATOM     12  C   UNL d   1      28.357 -13.500  -6.582  0.00  0.00     0.003 C 
ATOM     13  C   UNL d   1      29.615 -14.085  -6.510  0.00  0.00     0.012 C 
ATOM     14  C   UNL d   1      29.867 -15.129  -5.611  0.00  0.00    -0.024 C 
ATOM     15  C   UNL d   1      31.026 -15.883  -5.639  0.00  0.00    -0.005 C 
ATOM     16  C   UNL d   1      31.082 -17.032  -4.874  0.00  0.00     0.045 C 
ATOM     17  C   UNL d   1      30.535 -16.852  -3.607  0.00  0.00     0.015 C 
ATOM     18  C   UNL d   1      29.236 -16.262  -3.510  0.00  0.00     0.069 C 
ATOM     19  N   UNL d   1      28.307 -16.362  -2.465  0.00  0.00    -0.228 NA
ENDBRANCH   4   7
BRANCH   1  20
ATOM     20  N   UNL d   1      22.217 -17.726   0.085  0.00  0.00    -0.327 N 
ATOM     21  C   UNL d   1      21.522 -18.764  -0.542  0.00  0.00     0.225 C 
ATOM     22  O   UNL d   1      21.905 -19.307  -1.579  0.00  0.00    -0.273 OA
ATOM     23  H   UNL d   1      21.980 -17.465   1.033  0.00  0.00     0.169 HD
BRANCH  21  24
ATOM     24  C   UNL d   1      20.213 -19.243   0.114  0.00  0.00     0.070 C 
ATOM     25  C   UNL d   1      19.055 -19.090  -0.894  0.00  0.00     0.019 C 
ATOM     26  C   UNL d   1      20.278 -20.701   0.554  0.00  0.00     0.019 C 
ENDBRANCH  21  24
ENDBRANCH   1  20
TORSDOF 3
ENDMDL
MODEL 7
REMARK VINA RESULT:    -8.807      1.484      1.772
REMARK INTER + INTRA:         -10.401
REMARK INTER:                  -9.702
REMARK INTRA:                  -0.700
REMARK CONF_INDEPENDENT:        0.895
REMARK UNBOUND:                -0.700
REMARK  3 active torsions:
REMARK  status: ('A' for Active; 'I' for Inactive)
REMARK    1  A    between atoms: C_2  and  C_4 
REMARK       I    between atoms: C_4  and  N_6 
REMARK    2  A    between atoms: N_6  and  C_7 
REMARK    3  A    between atoms: C_10  and  C_11 
ROOT
ATOM      1  C   UNL d   1      22.960 -18.144  -0.320  0.00  0.00     0.034 C 
ATOM      2  C   UNL d   1      22.637 -16.905  -0.894  0.00  0.00     0.030 C 
ATOM      3  C   UNL d   1      23.628 -16.108  -1.547  0.00  0.00     0.017 C 
ATOM      4  C   UNL d   1      24.965 -16.499  -1.592  0.00  0.00     0.012 C 
ATOM      5  C   UNL d   1      25.233 -17.824  -1.163  0.00  0.00     0.017 C 
ATOM      6  C   UNL d   1      24.253 -18.619  -0.523  0.00  0.00     0.030 C 
ENDROOT
BRANCH   4   7
ATOM      7  C   UNL d   1      26.121 -15.570  -2.070  0.00  0.00     0.160 C 
ATOM      8  N   UNL d   1      25.852 -14.305  -1.938  0.00  0.00    -0.228 NA
ATOM      9  C   UNL d   1      26.814 -13.380  -2.365  0.00  0.00     0.072 C 
ATOM     10  C   UNL d   1      26.683 -12.035  -2.003  0.00  0.00     0.032 C 
ATOM     11  C   UNL d   1      27.877 -13.821  -3.130  0.00  0.00     0.031 C 
ATOM     12  C   UNL d   1      27.656 -11.108  -2.380  0.00  0.00     0.003 C 
ATOM     13  C   UNL d   1      28.723 -11.531  -3.163  0.00  0.00     0.012 C 
ATOM     14  C   UNL d   1      28.788 -12.851  -3.628  0.00  0.00    -0.024 C 
ATOM     15  C   UNL d   1      29.707 -13.271  -4.572  0.00  0.00    -0.005 C 
ATOM     16  C   UNL d   1      29.544 -14.520  -5.138  0.00  0.00     0.045 C 
ATOM     17  C   UNL d   1      29.190 -15.486  -4.200  0.00  0.00     0.015 C 
ATOM     18  C   UNL d   1      28.102 -15.202  -3.317  0.00  0.00     0.069 C 
ATOM     19  N   UNL d   1      27.287 -16.103  -2.618  0.00  0.00    -0.228 NA
ENDBRANCH   4   7
BRANCH   1  20
ATOM     20  N   UNL d   1      22.024 -18.913   0.444  0.00  0.00    -0.327 N 
ATOM     21  C   UNL d   1      20.952 -19.563  -0.172  0.00  0.00     0.225 C 
ATOM     22  O   UNL d   1      20.747 -19.532  -1.387  0.00  0.00    -0.273 OA
ATOM     23  H   UNL d   1      22.268 -19.144   1.398  0.00  0.00     0.169 HD
BRANCH  21  24
ATOM     24  C   UNL d   1      19.988 -20.359   0.729  0.00  0.00     0.070 C 
ATOM     25  C   UNL d   1      19.900 -19.673   2.108  0.00  0.00     0.019 C 
ATOM     26  C   UNL d   1      18.582 -20.450   0.147  0.00  0.00     0.019 C 
ENDBRANCH  21  24
ENDBRANCH   1  20
TORSDOF 3
ENDMDL
MODEL 8
REMARK VINA RESULT:    -8.769      2.795      3.501
REMARK INTER + INTRA:         -10.338
REMARK INTER:                  -9.664
REMARK INTRA:                  -0.674
REMARK CONF_INDEPENDENT:        0.895
REMARK UNBOUND:                -0.674
REMARK  3 active torsions:
REMARK  status: ('A' for Active; 'I' for Inactive)
REMARK    1  A    between atoms: C_2  and  C_4 
REMARK       I    between atoms: C_4  and  N_6 
REMARK    2  A    between atoms: N_6  and  C_7 
REMARK    3  A    between atoms: C_10  and  C_11 
ROOT
ATOM      1  C   UNL d   1      23.415 -18.497  -0.388  0.00  0.00     0.034 C 
ATOM      2  C   UNL d   1      23.444 -17.874  -1.645  0.00  0.00     0.030 C 
ATOM      3  C   UNL d   1      24.403 -16.859  -1.949  0.00  0.00     0.017 C 
ATOM      4  C   UNL d   1      25.311 -16.404  -0.994  0.00  0.00     0.012 C 
ATOM      5  C   UNL d   1      25.377 -17.163   0.203  0.00  0.00     0.017 C 
ATOM      6  C   UNL d   1      24.435 -18.174   0.504  0.00  0.00     0.030 C 
ENDROOT
BRANCH   4   7
ATOM      7  C   UNL d   1      26.208 -15.145  -1.186  0.00  0.00     0.160 C 
ATOM      8  N   UNL d   1      26.748 -14.724  -0.081  0.00  0.00    -0.228 NA
ATOM      9  C   UNL d   1      27.553 -13.579  -0.136  0.00  0.00     0.072 C 
ATOM     10  C   UNL d   1      28.358 -13.250   0.960  0.00  0.00     0.032 C 
ATOM     11  C   UNL d   1      27.539 -12.803  -1.280  0.00  0.00     0.031 C 
ATOM     12  C   UNL d   1      29.201 -12.139   0.905  0.00  0.00     0.003 C 
ATOM     13  C   UNL d   1      29.187 -11.339  -0.231  0.00  0.00     0.012 C 
ATOM     14  C   UNL d   1      28.293 -11.598  -1.276  0.00  0.00    -0.024 C 
ATOM     15  C   UNL d   1      28.091 -10.723  -2.329  0.00  0.00    -0.005 C 
ATOM     16  C   UNL d   1      27.027 -10.951  -3.179  0.00  0.00     0.045 C 
ATOM     17  C   UNL d   1      26.890 -12.297  -3.507  0.00  0.00     0.015 C 
ATOM     18  C   UNL d   1      26.881 -13.253  -2.444  0.00  0.00     0.069 C 
ATOM     19  N   UNL d   1      26.344 -14.548  -2.438  0.00  0.00    -0.228 NA
ENDBRANCH   4   7
BRANCH   1  20
ATOM     20  N   UNL d   1      22.398 -19.430  -0.007  0.00  0.00    -0.327 N 
ATOM     21  C   UNL d   1      21.052 -19.188  -0.295  0.00  0.00     0.225 C 
ATOM     22  O   UNL d   1      20.655 -18.186  -0.892  0.00  0.00    -0.273 OA
ATOM     23  H   UNL d   1      22.688 -20.353   0.287  0.00  0.00     0.169 HD
BRANCH  21  24
ATOM     24  C   UNL d   1      20.024 -20.242   0.162  0.00  0.00     0.070 C 
ATOM     25  C   UNL d   1      19.819 -20.122   1.686  0.00  0.00     0.019 C 
ATOM     26  C   UNL d   1      18.671 -20.075  -0.520  0.00  0.00     0.019 C 
ENDBRANCH  21  24
ENDBRANCH   1  20
TORSDOF 3
ENDMDL
MODEL 9
REMARK VINA RESULT:    -8.614      3.708      4.682
REMARK INTER + INTRA:         -10.225
REMARK INTER:                  -9.509
REMARK INTRA:                  -0.716
REMARK CONF_INDEPENDENT:        0.895
REMARK UNBOUND:                -0.716
REMARK  3 active torsions:
REMARK  status: ('A' for Active; 'I' for Inactive)
REMARK    1  A    between atoms: C_2  and  C_4 
REMARK       I    between atoms: C_4  and  N_6 
REMARK    2  A    between atoms: N_6  and  C_7 
REMARK    3  A    between atoms: C_10  and  C_11 
ROOT
ATOM      1  C   UNL d   1      22.037 -18.464  -0.435  0.00  0.00     0.034 C 
ATOM      2  C   UNL d   1      22.156 -17.071  -0.547  0.00  0.00     0.030 C 
ATOM      3  C   UNL d   1      23.436 -16.436  -0.586  0.00  0.00     0.017 C 
ATOM      4  C   UNL d   1      24.616 -17.166  -0.456  0.00  0.00     0.012 C 
ATOM      5  C   UNL d   1      24.478 -18.576  -0.519  0.00  0.00     0.017 C 
ATOM      6  C   UNL d   1      23.212 -19.208  -0.489  0.00  0.00     0.030 C 
ENDROOT
BRANCH   4   7
ATOM      7  C   UNL d   1      26.017 -16.515  -0.248  0.00  0.00     0.160 C 
ATOM      8  N   UNL d   1      27.003 -17.315  -0.525  0.00  0.00    -0.228 NA
ATOM      9  C   UNL d   1      28.308 -16.839  -0.344  0.00  0.00     0.072 C 
ATOM     10  C   UNL d   1      29.383 -17.560  -0.875  0.00  0.00     0.032 C 
ATOM     11  C   UNL d   1      28.502 -15.658   0.349  0.00  0.00     0.031 C 
ATOM     12  C   UNL d   1      30.686 -17.076  -0.746  0.00  0.00     0.003 C 
ATOM     13  C   UNL d   1      30.901 -15.900  -0.037  0.00  0.00     0.012 C 
ATOM     14  C   UNL d   1      29.839 -15.245   0.598  0.00  0.00    -0.024 C 
ATOM     15  C   UNL d   1      30.021 -14.196   1.482  0.00  0.00    -0.005 C 
ATOM     16  C   UNL d   1      28.943 -13.773   2.233  0.00  0.00     0.045 C 
ATOM     17  C   UNL d   1      27.769 -13.707   1.486  0.00  0.00     0.015 C 
ATOM     18  C   UNL d   1      27.404 -14.845   0.702  0.00  0.00     0.069 C 
ATOM     19  N   UNL d   1      26.135 -15.212   0.233  0.00  0.00    -0.228 NA
ENDBRANCH   4   7
BRANCH   1  20
ATOM     20  N   UNL d   1      20.776 -19.125  -0.274  0.00  0.00    -0.327 N 
ATOM     21  C   UNL d   1      20.232 -19.341   0.995  0.00  0.00     0.225 C 
ATOM     22  O   UNL d   1      20.776 -18.977   2.038  0.00  0.00    -0.273 OA
ATOM     23  H   UNL d   1      20.198 -19.247  -1.094  0.00  0.00     0.169 HD
BRANCH  21  24
ATOM     24  C   UNL d   1      18.876 -20.070   1.074  0.00  0.00     0.070 C 
ATOM     25  C   UNL d   1      19.058 -21.531   0.614  0.00  0.00     0.019 C 
ATOM     26  C   UNL d   1      18.296 -20.078   2.484  0.00  0.00     0.019 C 
ENDBRANCH  21  24
ENDBRANCH   1  20
TORSDOF 3
ENDMDL
