MODEL 1
REMARK VINA RESULT:   -32.186      0.000      0.000
REMARK INTER + INTRA:         -36.589
REMARK INTER:                 -35.468
REMARK INTRA:                  -1.122
REMARK CONF_INDEPENDENT:        3.281
REMARK UNBOUND:                -1.122
REMARK  11 active torsions:
REMARK  status: ('A' for Active; 'I' for Inactive)
REMARK    1  A    between atoms: O_2  and  C_3 
REMARK    2  A    between atoms: C_5  and  C_6 
REMARK    3  A    between atoms: C_6  and  N_7 
REMARK    4  A    between atoms: N_7  and  C_8 
REMARK    5  A    between atoms: C_8  and  C_9 
REMARK    6  A    between atoms: C_9  and  N_10 
REMARK    7  A    between atoms: N_10  and  C_11 
REMARK    8  A    between atoms: C_14  and  N_15 
REMARK    9  A    between atoms: C_23  and  O_24 
REMARK   10  A    between atoms: O_24  and  C_25 
REMARK   11  A    between atoms: C_25  and  C_26 
ROOT
ATOM      1  C   UNL d   1      25.783 -15.749  -2.125  0.00  0.00     0.103 A 
ATOM      2  C   UNL d   1      27.111 -15.376  -1.873  0.00  0.00     0.048 A 
ATOM      3  C   UNL d   1      27.830 -15.976  -0.841  0.00  0.00    -0.028 A 
ATOM      4  C   UNL d   1      27.191 -16.941  -0.062  0.00  0.00     0.035 A 
ATOM      5  C   UNL d   1      25.870 -17.313  -0.273  0.00  0.00     0.070 A 
ATOM      6 CL   UNL d   1      25.379 -18.548   0.845  0.00  0.00    -0.081 Cl
ATOM      7  C   UNL d   1      25.130 -16.707  -1.298  0.00  0.00     0.124 A 
ENDROOT
BRANCH   3   8
ATOM      8  C   UNL d   1      29.250 -15.580  -0.587  0.00  0.00     0.271 C 
BRANCH   8   9
ATOM      9  N   UNL d   1      29.602 -15.681   0.855  0.00  0.00    -0.070 N 
ATOM     10  H   UNL d   1      30.579 -15.993   0.932  0.00  0.00     0.277 HD
ATOM     11  H   UNL d   1      29.010 -16.408   1.282  0.00  0.00     0.277 HD
BRANCH   9  12
ATOM     12  C   UNL d   1      29.432 -14.422   1.609  0.00  0.00     0.252 C 
BRANCH  12  13
ATOM     13  C   UNL d   1      28.018 -14.362   2.194  0.00  0.00     0.147 C 
BRANCH  13  14
ATOM     14  N   UNL d   1      27.979 -13.419   3.280  0.00  0.00    -0.388 N 
ATOM     15  H   UNL d   1      28.037 -13.730   4.248  0.00  0.00     0.159 HD
BRANCH  14  16
ATOM     16  C   UNL d   1      27.513 -12.127   3.123  0.00  0.00     0.028 A 
ATOM     17  C   UNL d   1      27.118 -11.731   1.839  0.00  0.00     0.031 A 
ATOM     18  C   UNL d   1      26.681 -10.430   1.586  0.00  0.00     0.038 A 
ATOM     19  C   UNL d   1      26.567  -9.528   2.648  0.00  0.00     0.103 A 
ATOM     20  C   UNL d   1      26.939  -9.909   3.941  0.00  0.00     0.038 A 
ATOM     21  C   UNL d   1      27.400 -11.209   4.171  0.00  0.00     0.031 A 
BRANCH  19  22
ATOM     22  N   UNL d   1      25.992  -8.200   2.410  0.00  0.00    -0.116 N 
ATOM     23  O   UNL d   1      25.237  -8.063   1.442  0.00  0.00    -0.532 OA
ATOM     24  O   UNL d   1      26.283  -7.300   3.217  0.00  0.00    -0.532 OA
ENDBRANCH  19  22
ENDBRANCH  14  16
ENDBRANCH  13  14
ENDBRANCH  12  13
ENDBRANCH   9  12
ENDBRANCH   8   9
ENDBRANCH   3   8
BRANCH   1  25
ATOM     25  O   UNL d   1      25.068 -15.122  -3.125  0.00  0.00    -0.353 OA
ATOM     26  C   UNL d   1      25.725 -15.034  -4.397  0.00  0.00     0.210 C 
ENDBRANCH   1  25
BRANCH   7  27
ATOM     27  O   UNL d   1      23.818 -16.949  -1.605  0.00  0.00    -0.342 OA
BRANCH  27  28
ATOM     28  C   UNL d   1      23.413 -18.301  -1.837  0.00  0.00     0.216 C 
BRANCH  28  29
ATOM     29  C   UNL d   1      22.221 -18.664  -1.017  0.00  0.00    -0.017 A 
ATOM     30  C   UNL d   1      22.272 -18.663   0.373  0.00  0.00     0.012 A 
ATOM     31  C   UNL d   1      21.125 -18.948   1.092  0.00  0.00     0.020 A 
ATOM     32  C   UNL d   1      19.973 -19.256   0.391  0.00  0.00     0.116 A 
ATOM     33  N   UNL d   1      19.900 -19.325  -0.957  0.00  0.00    -0.272 NA
ATOM     34  C   UNL d   1      21.029 -19.035  -1.634  0.00  0.00     0.125 A 
ENDBRANCH  28  29
ENDBRANCH  27  28
ENDBRANCH   7  27
TORSDOF 11
ENDMDL
MODEL 2
REMARK VINA RESULT:   -32.131      1.043      1.550
REMARK INTER + INTRA:         -36.800
REMARK INTER:                 -35.412
REMARK INTRA:                  -1.387
REMARK CONF_INDEPENDENT:        3.281
REMARK UNBOUND:                -1.387
REMARK  11 active torsions:
REMARK  status: ('A' for Active; 'I' for Inactive)
REMARK    1  A    between atoms: O_2  and  C_3 
REMARK    2  A    between atoms: C_5  and  C_6 
REMARK    3  A    between atoms: C_6  and  N_7 
REMARK    4  A    between atoms: N_7  and  C_8 
REMARK    5  A    between atoms: C_8  and  C_9 
REMARK    6  A    between atoms: C_9  and  N_10 
REMARK    7  A    between atoms: N_10  and  C_11 
REMARK    8  A    between atoms: C_14  and  N_15 
REMARK    9  A    between atoms: C_23  and  O_24 
REMARK   10  A    between atoms: O_24  and  C_25 
REMARK   11  A    between atoms: C_25  and  C_26 
ROOT
ATOM      1  C   UNL d   1      25.930 -15.690  -2.343  0.00  0.00     0.103 A 
ATOM      2  C   UNL d   1      27.225 -15.252  -2.031  0.00  0.00     0.048 A 
ATOM      3  C   UNL d   1      27.877 -15.725  -0.895  0.00  0.00    -0.028 A 
ATOM      4  C   UNL d   1      27.205 -16.631  -0.073  0.00  0.00     0.035 A 
ATOM      5  C   UNL d   1      25.914 -17.064  -0.344  0.00  0.00     0.070 A 
ATOM      6 CL   UNL d   1      25.370 -18.200   0.852  0.00  0.00    -0.081 Cl
ATOM      7  C   UNL d   1      25.240 -16.584  -1.476  0.00  0.00     0.124 A 
ENDROOT
BRANCH   3   8
ATOM      8  C   UNL d   1      29.264 -15.261  -0.576  0.00  0.00     0.271 C 
BRANCH   8   9
ATOM      9  N   UNL d   1      29.612 -15.499   0.850  0.00  0.00    -0.070 N 
ATOM     10  H   UNL d   1      29.781 -16.505   0.982  0.00  0.00     0.277 HD
ATOM     11  H   UNL d   1      28.799 -15.243   1.429  0.00  0.00     0.277 HD
BRANCH   9  12
ATOM     12  C   UNL d   1      30.790 -14.742   1.320  0.00  0.00     0.252 C 
BRANCH  12  13
ATOM     13  C   UNL d   1      30.622 -14.401   2.803  0.00  0.00     0.147 C 
BRANCH  13  14
ATOM     14  N   UNL d   1      29.224 -14.351   3.137  0.00  0.00    -0.388 N 
ATOM     15  H   UNL d   1      28.661 -15.200   3.170  0.00  0.00     0.159 HD
BRANCH  14  16
ATOM     16  C   UNL d   1      28.489 -13.182   3.079  0.00  0.00     0.028 A 
ATOM     17  C   UNL d   1      28.522 -12.338   4.196  0.00  0.00     0.031 A 
ATOM     18  C   UNL d   1      27.771 -11.163   4.238  0.00  0.00     0.038 A 
ATOM     19  C   UNL d   1      27.028 -10.786   3.115  0.00  0.00     0.103 A 
ATOM     20  C   UNL d   1      26.995 -11.606   1.983  0.00  0.00     0.038 A 
ATOM     21  C   UNL d   1      27.734 -12.793   1.969  0.00  0.00     0.031 A 
BRANCH  19  22
ATOM     22  N   UNL d   1      26.336  -9.492   3.107  0.00  0.00    -0.116 N 
ATOM     23  O   UNL d   1      26.879  -8.544   3.681  0.00  0.00    -0.532 OA
ATOM     24  O   UNL d   1      25.254  -9.429   2.498  0.00  0.00    -0.532 OA
ENDBRANCH  19  22
ENDBRANCH  14  16
ENDBRANCH  13  14
ENDBRANCH  12  13
ENDBRANCH   9  12
ENDBRANCH   8   9
ENDBRANCH   3   8
BRANCH   1  25
ATOM     25  O   UNL d   1      25.279 -15.187  -3.449  0.00  0.00    -0.353 OA
ATOM     26  C   UNL d   1      26.122 -14.626  -4.465  0.00  0.00     0.210 C 
ENDBRANCH   1  25
BRANCH   7  27
ATOM     27  O   UNL d   1      23.962 -16.897  -1.853  0.00  0.00    -0.342 OA
BRANCH  27  28
ATOM     28  C   UNL d   1      22.888 -16.533  -0.981  0.00  0.00     0.216 C 
BRANCH  28  29
ATOM     29  C   UNL d   1      21.962 -17.679  -0.744  0.00  0.00    -0.017 A 
ATOM     30  C   UNL d   1      22.362 -18.794  -0.017  0.00  0.00     0.012 A 
ATOM     31  C   UNL d   1      21.451 -19.805   0.229  0.00  0.00     0.020 A 
ATOM     32  C   UNL d   1      20.176 -19.677  -0.292  0.00  0.00     0.116 A 
ATOM     33  N   UNL d   1      19.768 -18.637  -1.052  0.00  0.00    -0.272 NA
ATOM     34  C   UNL d   1      20.673 -17.662  -1.270  0.00  0.00     0.125 A 
ENDBRANCH  28  29
ENDBRANCH  27  28
ENDBRANCH   7  27
TORSDOF 11
ENDMDL
MODEL 3
REMARK VINA RESULT:   -31.775      1.539      2.256
REMARK INTER + INTRA:         -36.420
REMARK INTER:                 -35.056
REMARK INTRA:                  -1.364
REMARK CONF_INDEPENDENT:        3.281
REMARK UNBOUND:                -1.364
REMARK  11 active torsions:
REMARK  status: ('A' for Active; 'I' for Inactive)
REMARK    1  A    between atoms: O_2  and  C_3 
REMARK    2  A    between atoms: C_5  and  C_6 
REMARK    3  A    between atoms: C_6  and  N_7 
REMARK    4  A    between atoms: N_7  and  C_8 
REMARK    5  A    between atoms: C_8  and  C_9 
REMARK    6  A    between atoms: C_9  and  N_10 
REMARK    7  A    between atoms: N_10  and  C_11 
REMARK    8  A    between atoms: C_14  and  N_15 
REMARK    9  A    between atoms: C_23  and  O_24 
REMARK   10  A    between atoms: O_24  and  C_25 
REMARK   11  A    between atoms: C_25  and  C_26 
ROOT
ATOM      1  C   UNL d   1      26.322 -17.248  -0.271  0.00  0.00     0.103 A 
ATOM      2  C   UNL d   1      27.599 -16.742   0.008  0.00  0.00     0.048 A 
ATOM      3  C   UNL d   1      28.056 -15.588  -0.624  0.00  0.00    -0.028 A 
ATOM      4  C   UNL d   1      27.218 -14.961  -1.546  0.00  0.00     0.035 A 
ATOM      5  C   UNL d   1      25.957 -15.452  -1.860  0.00  0.00     0.070 A 
ATOM      6 CL   UNL d   1      25.160 -14.438  -3.022  0.00  0.00    -0.081 Cl
ATOM      7  C   UNL d   1      25.491 -16.622  -1.243  0.00  0.00     0.124 A 
ENDROOT
BRANCH   3   8
ATOM      8  C   UNL d   1      29.417 -15.048  -0.311  0.00  0.00     0.271 C 
BRANCH   8   9
ATOM      9  N   UNL d   1      29.935 -15.570   0.982  0.00  0.00    -0.070 N 
ATOM     10  H   UNL d   1      30.302 -16.519   0.828  0.00  0.00     0.277 HD
ATOM     11  H   UNL d   1      29.145 -15.647   1.639  0.00  0.00     0.277 HD
BRANCH   9  12
ATOM     12  C   UNL d   1      30.986 -14.734   1.594  0.00  0.00     0.252 C 
BRANCH  12  13
ATOM     13  C   UNL d   1      30.411 -13.988   2.801  0.00  0.00     0.147 C 
BRANCH  13  14
ATOM     14  N   UNL d   1      28.983 -13.871   2.668  0.00  0.00    -0.388 N 
ATOM     15  H   UNL d   1      28.429 -14.623   2.262  0.00  0.00     0.159 HD
BRANCH  14  16
ATOM     16  C   UNL d   1      28.331 -12.654   2.730  0.00  0.00     0.028 A 
ATOM     17  C   UNL d   1      27.956 -12.055   1.522  0.00  0.00     0.031 A 
ATOM     18  C   UNL d   1      27.337 -10.805   1.495  0.00  0.00     0.038 A 
ATOM     19  C   UNL d   1      27.022 -10.172   2.700  0.00  0.00     0.103 A 
ATOM     20  C   UNL d   1      27.372 -10.760   3.919  0.00  0.00     0.038 A 
ATOM     21  C   UNL d   1      28.015 -12.002   3.926  0.00  0.00     0.031 A 
BRANCH  19  22
ATOM     22  N   UNL d   1      26.262  -8.917   2.681  0.00  0.00    -0.116 N 
ATOM     23  O   UNL d   1      25.178  -8.908   2.090  0.00  0.00    -0.532 OA
ATOM     24  O   UNL d   1      26.749  -7.946   3.287  0.00  0.00    -0.532 OA
ENDBRANCH  19  22
ENDBRANCH  14  16
ENDBRANCH  13  14
ENDBRANCH  12  13
ENDBRANCH   9  12
ENDBRANCH   8   9
ENDBRANCH   3   8
BRANCH   1  25
ATOM     25  O   UNL d   1      25.894 -18.412   0.332  0.00  0.00    -0.353 OA
ATOM     26  C   UNL d   1      26.652 -18.836   1.473  0.00  0.00     0.210 C 
ENDBRANCH   1  25
BRANCH   7  27
ATOM     27  O   UNL d   1      24.290 -17.237  -1.472  0.00  0.00    -0.342 OA
BRANCH  27  28
ATOM     28  C   UNL d   1      23.141 -16.770  -0.759  0.00  0.00     0.216 C 
BRANCH  28  29
ATOM     29  C   UNL d   1      22.104 -17.835  -0.633  0.00  0.00    -0.017 A 
ATOM     30  C   UNL d   1      22.342 -18.994   0.098  0.00  0.00     0.012 A 
ATOM     31  C   UNL d   1      21.331 -19.927   0.237  0.00  0.00     0.020 A 
ATOM     32  C   UNL d   1      20.122 -19.679  -0.390  0.00  0.00     0.116 A 
ATOM     33  N   UNL d   1      19.873 -18.595  -1.157  0.00  0.00    -0.272 NA
ATOM     34  C   UNL d   1      20.873 -17.698  -1.269  0.00  0.00     0.125 A 
ENDBRANCH  28  29
ENDBRANCH  27  28
ENDBRANCH   7  27
TORSDOF 11
ENDMDL
MODEL 4
REMARK VINA RESULT:   -31.696      1.518      2.352
REMARK INTER + INTRA:         -36.284
REMARK INTER:                 -34.978
REMARK INTRA:                  -1.307
REMARK CONF_INDEPENDENT:        3.281
REMARK UNBOUND:                -1.307
REMARK  11 active torsions:
REMARK  status: ('A' for Active; 'I' for Inactive)
REMARK    1  A    between atoms: O_2  and  C_3 
REMARK    2  A    between atoms: C_5  and  C_6 
REMARK    3  A    between atoms: C_6  and  N_7 
REMARK    4  A    between atoms: N_7  and  C_8 
REMARK    5  A    between atoms: C_8  and  C_9 
REMARK    6  A    between atoms: C_9  and  N_10 
REMARK    7  A    between atoms: N_10  and  C_11 
REMARK    8  A    between atoms: C_14  and  N_15 
REMARK    9  A    between atoms: C_23  and  O_24 
REMARK   10  A    between atoms: O_24  and  C_25 
REMARK   11  A    between atoms: C_25  and  C_26 
ROOT
ATOM      1  C   UNL d   1      26.156 -16.951  -0.203  0.00  0.00     0.103 A 
ATOM      2  C   UNL d   1      27.373 -16.344   0.136  0.00  0.00     0.048 A 
ATOM      3  C   UNL d   1      27.756 -15.144  -0.461  0.00  0.00    -0.028 A 
ATOM      4  C   UNL d   1      26.906 -14.575  -1.409  0.00  0.00     0.035 A 
ATOM      5  C   UNL d   1      25.705 -15.165  -1.782  0.00  0.00     0.070 A 
ATOM      6 CL   UNL d   1      24.872 -14.202  -2.962  0.00  0.00    -0.081 Cl
ATOM      7  C   UNL d   1      25.315 -16.380  -1.200  0.00  0.00     0.124 A 
ENDROOT
BRANCH   3   8
ATOM      8  C   UNL d   1      29.052 -14.498  -0.085  0.00  0.00     0.271 C 
BRANCH   8   9
ATOM      9  N   UNL d   1      29.729 -15.220   1.026  0.00  0.00    -0.070 N 
ATOM     10  H   UNL d   1      30.570 -15.679   0.652  0.00  0.00     0.277 HD
ATOM     11  H   UNL d   1      29.096 -15.960   1.363  0.00  0.00     0.277 HD
BRANCH   9  12
ATOM     12  C   UNL d   1      30.107 -14.360   2.165  0.00  0.00     0.252 C 
BRANCH  12  13
ATOM     13  C   UNL d   1      29.021 -14.427   3.242  0.00  0.00     0.147 C 
BRANCH  13  14
ATOM     14  N   UNL d   1      28.980 -13.188   3.971  0.00  0.00    -0.388 N 
ATOM     15  H   UNL d   1      29.302 -13.135   4.936  0.00  0.00     0.159 HD
BRANCH  14  16
ATOM     16  C   UNL d   1      28.200 -12.118   3.572  0.00  0.00     0.028 A 
ATOM     17  C   UNL d   1      28.141 -11.006   4.419  0.00  0.00     0.031 A 
ATOM     18  C   UNL d   1      27.340  -9.905   4.113  0.00  0.00     0.038 A 
ATOM     19  C   UNL d   1      26.640  -9.884   2.903  0.00  0.00     0.103 A 
ATOM     20  C   UNL d   1      26.699 -10.977   2.034  0.00  0.00     0.038 A 
ATOM     21  C   UNL d   1      27.487 -12.083   2.369  0.00  0.00     0.031 A 
BRANCH  19  22
ATOM     22  N   UNL d   1      25.896  -8.679   2.519  0.00  0.00    -0.116 N 
ATOM     23  O   UNL d   1      24.843  -8.828   1.892  0.00  0.00    -0.532 OA
ATOM     24  O   UNL d   1      26.363  -7.583   2.874  0.00  0.00    -0.532 OA
ENDBRANCH  19  22
ENDBRANCH  14  16
ENDBRANCH  13  14
ENDBRANCH  12  13
ENDBRANCH   9  12
ENDBRANCH   8   9
ENDBRANCH   3   8
BRANCH   1  25
ATOM     25  O   UNL d   1      25.804 -18.157   0.366  0.00  0.00    -0.353 OA
ATOM     26  C   UNL d   1      26.647 -18.609   1.435  0.00  0.00     0.210 C 
ENDBRANCH   1  25
BRANCH   7  27
ATOM     27  O   UNL d   1      24.181 -17.090  -1.487  0.00  0.00    -0.342 OA
BRANCH  27  28
ATOM     28  C   UNL d   1      22.936 -16.627  -0.954  0.00  0.00     0.216 C 
BRANCH  28  29
ATOM     29  C   UNL d   1      21.983 -17.752  -0.731  0.00  0.00    -0.017 A 
ATOM     30  C   UNL d   1      22.351 -18.877  -0.001  0.00  0.00     0.012 A 
ATOM     31  C   UNL d   1      21.415 -19.869   0.232  0.00  0.00     0.020 A 
ATOM     32  C   UNL d   1      20.149 -19.712  -0.303  0.00  0.00     0.116 A 
ATOM     33  N   UNL d   1      19.772 -18.662  -1.066  0.00  0.00    -0.272 NA
ATOM     34  C   UNL d   1      20.701 -17.706  -1.271  0.00  0.00     0.125 A 
ENDBRANCH  28  29
ENDBRANCH  27  28
ENDBRANCH   7  27
TORSDOF 11
ENDMDL
MODEL 5
REMARK VINA RESULT:   -30.900      1.100      1.397
REMARK INTER + INTRA:         -35.489
REMARK INTER:                 -34.182
REMARK INTRA:                  -1.307
REMARK CONF_INDEPENDENT:        3.281
REMARK UNBOUND:                -1.307
REMARK  11 active torsions:
REMARK  status: ('A' for Active; 'I' for Inactive)
REMARK    1  A    between atoms: O_2  and  C_3 
REMARK    2  A    between atoms: C_5  and  C_6 
REMARK    3  A    between atoms: C_6  and  N_7 
REMARK    4  A    between atoms: N_7  and  C_8 
REMARK    5  A    between atoms: C_8  and  C_9 
REMARK    6  A    between atoms: C_9  and  N_10 
REMARK    7  A    between atoms: N_10  and  C_11 
REMARK    8  A    between atoms: C_14  and  N_15 
REMARK    9  A    between atoms: C_23  and  O_24 
REMARK   10  A    between atoms: O_24  and  C_25 
REMARK   11  A    between atoms: C_25  and  C_26 
ROOT
ATOM      1  C   UNL d   1      25.782 -15.910  -2.338  0.00  0.00     0.103 A 
ATOM      2  C   UNL d   1      27.106 -15.501  -2.127  0.00  0.00     0.048 A 
ATOM      3  C   UNL d   1      27.819 -15.955  -1.020  0.00  0.00    -0.028 A 
ATOM      4  C   UNL d   1      27.178 -16.812  -0.124  0.00  0.00     0.035 A 
ATOM      5  C   UNL d   1      25.860 -17.215  -0.295  0.00  0.00     0.070 A 
ATOM      6 CL   UNL d   1      25.364 -18.293   0.973  0.00  0.00    -0.081 Cl
ATOM      7  C   UNL d   1      25.126 -16.754  -1.397  0.00  0.00     0.124 A 
ENDROOT
BRANCH   3   8
ATOM      8  C   UNL d   1      29.236 -15.522  -0.809  0.00  0.00     0.271 C 
BRANCH   8   9
ATOM      9  N   UNL d   1      29.523 -15.250   0.625  0.00  0.00    -0.070 N 
ATOM     10  H   UNL d   1      29.495 -16.141   1.139  0.00  0.00     0.277 HD
ATOM     11  H   UNL d   1      28.770 -14.654   0.999  0.00  0.00     0.277 HD
BRANCH   9  12
ATOM     12  C   UNL d   1      30.821 -14.589   0.868  0.00  0.00     0.252 C 
BRANCH  12  13
ATOM     13  C   UNL d   1      30.726 -13.112   0.475  0.00  0.00     0.147 C 
BRANCH  13  14
ATOM     14  N   UNL d   1      29.364 -12.780   0.150  0.00  0.00    -0.388 N 
ATOM     15  H   UNL d   1      28.961 -13.032  -0.751  0.00  0.00     0.159 HD
BRANCH  14  16
ATOM     16  C   UNL d   1      28.649 -11.822   0.845  0.00  0.00     0.028 A 
ATOM     17  C   UNL d   1      27.865 -10.931   0.102  0.00  0.00     0.031 A 
ATOM     18  C   UNL d   1      27.151  -9.905   0.722  0.00  0.00     0.038 A 
ATOM     19  C   UNL d   1      27.163  -9.810   2.116  0.00  0.00     0.103 A 
ATOM     20  C   UNL d   1      27.926 -10.700   2.878  0.00  0.00     0.038 A 
ATOM     21  C   UNL d   1      28.656 -11.706   2.238  0.00  0.00     0.031 A 
BRANCH  19  22
ATOM     22  N   UNL d   1      26.318  -8.811   2.780  0.00  0.00    -0.116 N 
ATOM     23  O   UNL d   1      26.636  -8.451   3.917  0.00  0.00    -0.532 OA
ATOM     24  O   UNL d   1      25.345  -8.372   2.141  0.00  0.00    -0.532 OA
ENDBRANCH  19  22
ENDBRANCH  14  16
ENDBRANCH  13  14
ENDBRANCH  12  13
ENDBRANCH   9  12
ENDBRANCH   8   9
ENDBRANCH   3   8
BRANCH   1  25
ATOM     25  O   UNL d   1      25.073 -15.426  -3.418  0.00  0.00    -0.353 OA
ATOM     26  C   UNL d   1      25.833 -15.214  -4.615  0.00  0.00     0.210 C 
ENDBRANCH   1  25
BRANCH   7  27
ATOM     27  O   UNL d   1      23.818 -17.041  -1.679  0.00  0.00    -0.342 OA
BRANCH  27  28
ATOM     28  C   UNL d   1      23.438 -18.413  -1.820  0.00  0.00     0.216 C 
BRANCH  28  29
ATOM     29  C   UNL d   1      22.224 -18.731  -1.015  0.00  0.00    -0.017 A 
ATOM     30  C   UNL d   1      22.253 -18.714   0.375  0.00  0.00     0.012 A 
ATOM     31  C   UNL d   1      21.088 -18.957   1.081  0.00  0.00     0.020 A 
ATOM     32  C   UNL d   1      19.938 -19.241   0.365  0.00  0.00     0.116 A 
ATOM     33  N   UNL d   1      19.884 -19.324  -0.983  0.00  0.00    -0.272 NA
ATOM     34  C   UNL d   1      21.031 -19.075  -1.645  0.00  0.00     0.125 A 
ENDBRANCH  28  29
ENDBRANCH  27  28
ENDBRANCH   7  27
TORSDOF 11
ENDMDL
MODEL 6
REMARK VINA RESULT:   -30.879      3.165      4.094
REMARK INTER + INTRA:         -35.370
REMARK INTER:                 -34.160
REMARK INTRA:                  -1.210
REMARK CONF_INDEPENDENT:        3.281
REMARK UNBOUND:                -1.210
REMARK  11 active torsions:
REMARK  status: ('A' for Active; 'I' for Inactive)
REMARK    1  A    between atoms: O_2  and  C_3 
REMARK    2  A    between atoms: C_5  and  C_6 
REMARK    3  A    between atoms: C_6  and  N_7 
REMARK    4  A    between atoms: N_7  and  C_8 
REMARK    5  A    between atoms: C_8  and  C_9 
REMARK    6  A    between atoms: C_9  and  N_10 
REMARK    7  A    between atoms: N_10  and  C_11 
REMARK    8  A    between atoms: C_14  and  N_15 
REMARK    9  A    between atoms: C_23  and  O_24 
REMARK   10  A    between atoms: O_24  and  C_25 
REMARK   11  A    between atoms: C_25  and  C_26 
ROOT
ATOM      1  C   UNL d   1      26.185 -17.140   0.007  0.00  0.00     0.103 A 
ATOM      2  C   UNL d   1      27.399 -16.489   0.269  0.00  0.00     0.048 A 
ATOM      3  C   UNL d   1      27.729 -15.313  -0.400  0.00  0.00    -0.028 A 
ATOM      4  C   UNL d   1      26.831 -14.811  -1.342  0.00  0.00     0.035 A 
ATOM      5  C   UNL d   1      25.632 -15.446  -1.639  0.00  0.00     0.070 A 
ATOM      6 CL   UNL d   1      24.733 -14.562  -2.833  0.00  0.00    -0.081 Cl
ATOM      7  C   UNL d   1      25.294 -16.639  -0.985  0.00  0.00     0.124 A 
ENDROOT
BRANCH   3   8
ATOM      8  C   UNL d   1      29.023 -14.619  -0.105  0.00  0.00     0.271 C 
BRANCH   8   9
ATOM      9  N   UNL d   1      29.340 -14.636   1.348  0.00  0.00    -0.070 N 
ATOM     10  H   UNL d   1      30.294 -14.271   1.478  0.00  0.00     0.277 HD
ATOM     11  H   UNL d   1      29.336 -15.615   1.668  0.00  0.00     0.277 HD
BRANCH   9  12
ATOM     12  C   UNL d   1      28.403 -13.856   2.181  0.00  0.00     0.252 C 
BRANCH  12  13
ATOM     13  C   UNL d   1      27.853 -14.744   3.301  0.00  0.00     0.147 C 
BRANCH  13  14
ATOM     14  N   UNL d   1      28.804 -14.817   4.378  0.00  0.00    -0.388 N 
ATOM     15  H   UNL d   1      29.395 -15.637   4.502  0.00  0.00     0.159 HD
BRANCH  14  16
ATOM     16  C   UNL d   1      28.737 -13.991   5.484  0.00  0.00     0.028 A 
ATOM     17  C   UNL d   1      29.313 -14.450   6.674  0.00  0.00     0.031 A 
ATOM     18  C   UNL d   1      29.246 -13.699   7.848  0.00  0.00     0.038 A 
ATOM     19  C   UNL d   1      28.655 -12.433   7.816  0.00  0.00     0.103 A 
ATOM     20  C   UNL d   1      28.088 -11.948   6.634  0.00  0.00     0.038 A 
ATOM     21  C   UNL d   1      28.142 -12.725   5.473  0.00  0.00     0.031 A 
BRANCH  19  22
ATOM     22  N   UNL d   1      28.691 -11.588   9.016  0.00  0.00    -0.116 N 
ATOM     23  O   UNL d   1      29.054 -10.416   8.884  0.00  0.00    -0.532 OA
ATOM     24  O   UNL d   1      28.327 -12.103  10.087  0.00  0.00    -0.532 OA
ENDBRANCH  19  22
ENDBRANCH  14  16
ENDBRANCH  13  14
ENDBRANCH  12  13
ENDBRANCH   9  12
ENDBRANCH   8   9
ENDBRANCH   3   8
BRANCH   1  25
ATOM     25  O   UNL d   1      25.884 -18.324   0.647  0.00  0.00    -0.353 OA
ATOM     26  C   UNL d   1      27.010 -19.093   1.091  0.00  0.00     0.210 C 
ENDBRANCH   1  25
BRANCH   7  27
ATOM     27  O   UNL d   1      24.168 -17.388  -1.193  0.00  0.00    -0.342 OA
BRANCH  27  28
ATOM     28  C   UNL d   1      22.915 -16.873  -0.734  0.00  0.00     0.216 C 
BRANCH  28  29
ATOM     29  C   UNL d   1      21.889 -17.951  -0.618  0.00  0.00    -0.017 A 
ATOM     30  C   UNL d   1      22.132 -19.103   0.122  0.00  0.00     0.012 A 
ATOM     31  C   UNL d   1      21.130 -20.048   0.252  0.00  0.00     0.020 A 
ATOM     32  C   UNL d   1      19.927 -19.818  -0.393  0.00  0.00     0.116 A 
ATOM     33  N   UNL d   1      19.675 -18.740  -1.168  0.00  0.00    -0.272 NA
ATOM     34  C   UNL d   1      20.666 -17.831  -1.271  0.00  0.00     0.125 A 
ENDBRANCH  28  29
ENDBRANCH  27  28
ENDBRANCH   7  27
TORSDOF 11
ENDMDL
MODEL 7
REMARK VINA RESULT:   -30.253      4.103      5.752
REMARK INTER + INTRA:         -35.408
REMARK INTER:                 -33.534
REMARK INTRA:                  -1.874
REMARK CONF_INDEPENDENT:        3.281
REMARK UNBOUND:                -1.874
REMARK  11 active torsions:
REMARK  status: ('A' for Active; 'I' for Inactive)
REMARK    1  A    between atoms: O_2  and  C_3 
REMARK    2  A    between atoms: C_5  and  C_6 
REMARK    3  A    between atoms: C_6  and  N_7 
REMARK    4  A    between atoms: N_7  and  C_8 
REMARK    5  A    between atoms: C_8  and  C_9 
REMARK    6  A    between atoms: C_9  and  N_10 
REMARK    7  A    between atoms: N_10  and  C_11 
REMARK    8  A    between atoms: C_14  and  N_15 
REMARK    9  A    between atoms: C_23  and  O_24 
REMARK   10  A    between atoms: O_24  and  C_25 
REMARK   11  A    between atoms: C_25  and  C_26 
ROOT
ATOM      1  C   UNL d   1      25.693 -15.459  -2.066  0.00  0.00     0.103 A 
ATOM      2  C   UNL d   1      27.005 -15.065  -1.764  0.00  0.00     0.048 A 
ATOM      3  C   UNL d   1      27.732 -15.726  -0.777  0.00  0.00    -0.028 A 
ATOM      4  C   UNL d   1      27.119 -16.775  -0.091  0.00  0.00     0.035 A 
ATOM      5  C   UNL d   1      25.814 -17.172  -0.352  0.00  0.00     0.070 A 
ATOM      6 CL   UNL d   1      25.354 -18.513   0.650  0.00  0.00    -0.081 Cl
ATOM      7  C   UNL d   1      25.065 -16.506  -1.332  0.00  0.00     0.124 A 
ENDROOT
BRANCH   3   8
ATOM      8  C   UNL d   1      29.135 -15.305  -0.469  0.00  0.00     0.271 C 
BRANCH   8   9
ATOM      9  N   UNL d   1      29.851 -16.323   0.345  0.00  0.00    -0.070 N 
ATOM     10  H   UNL d   1      29.503 -17.255   0.084  0.00  0.00     0.277 HD
ATOM     11  H   UNL d   1      29.614 -16.170   1.336  0.00  0.00     0.277 HD
BRANCH   9  12
ATOM     12  C   UNL d   1      31.320 -16.294   0.196  0.00  0.00     0.252 C 
BRANCH  12  13
ATOM     13  C   UNL d   1      31.717 -16.986  -1.111  0.00  0.00     0.147 C 
BRANCH  13  14
ATOM     14  N   UNL d   1      31.980 -16.001  -2.125  0.00  0.00    -0.388 N 
ATOM     15  H   UNL d   1      32.687 -15.280  -1.988  0.00  0.00     0.159 HD
BRANCH  14  16
ATOM     16  C   UNL d   1      31.092 -15.738  -3.151  0.00  0.00     0.028 A 
ATOM     17  C   UNL d   1      30.009 -16.611  -3.311  0.00  0.00     0.031 A 
ATOM     18  C   UNL d   1      29.093 -16.444  -4.351  0.00  0.00     0.038 A 
ATOM     19  C   UNL d   1      29.220 -15.345  -5.205  0.00  0.00     0.103 A 
ATOM     20  C   UNL d   1      30.285 -14.452  -5.052  0.00  0.00     0.038 A 
ATOM     21  C   UNL d   1      31.208 -14.648  -4.020  0.00  0.00     0.031 A 
BRANCH  19  22
ATOM     22  N   UNL d   1      28.192 -15.096  -6.222  0.00  0.00    -0.116 N 
ATOM     23  O   UNL d   1      27.011 -15.119  -5.865  0.00  0.00    -0.532 OA
ATOM     24  O   UNL d   1      28.581 -14.853  -7.377  0.00  0.00    -0.532 OA
ENDBRANCH  19  22
ENDBRANCH  14  16
ENDBRANCH  13  14
ENDBRANCH  12  13
ENDBRANCH   9  12
ENDBRANCH   8   9
ENDBRANCH   3   8
BRANCH   1  25
ATOM     25  O   UNL d   1      24.969 -14.774  -3.018  0.00  0.00    -0.353 OA
ATOM     26  C   UNL d   1      25.506 -13.504  -3.413  0.00  0.00     0.210 C 
ENDBRANCH   1  25
BRANCH   7  27
ATOM     27  O   UNL d   1      23.766 -16.764  -1.677  0.00  0.00    -0.342 OA
BRANCH  27  28
ATOM     28  C   UNL d   1      22.754 -16.608  -0.678  0.00  0.00     0.216 C 
BRANCH  28  29
ATOM     29  C   UNL d   1      21.874 -17.810  -0.597  0.00  0.00    -0.017 A 
ATOM     30  C   UNL d   1      22.251 -18.935   0.128  0.00  0.00     0.012 A 
ATOM     31  C   UNL d   1      21.377 -20.003   0.225  0.00  0.00     0.020 A 
ATOM     32  C   UNL d   1      20.164 -19.917  -0.436  0.00  0.00     0.116 A 
ATOM     33  N   UNL d   1      19.788 -18.866  -1.198  0.00  0.00    -0.272 NA
ATOM     34  C   UNL d   1      20.655 -17.836  -1.269  0.00  0.00     0.125 A 
ENDBRANCH  28  29
ENDBRANCH  27  28
ENDBRANCH   7  27
TORSDOF 11
ENDMDL
MODEL 8
REMARK VINA RESULT:   -30.097      4.188      5.810
REMARK INTER + INTRA:         -35.338
REMARK INTER:                 -33.378
REMARK INTRA:                  -1.959
REMARK CONF_INDEPENDENT:        3.281
REMARK UNBOUND:                -1.959
REMARK  11 active torsions:
REMARK  status: ('A' for Active; 'I' for Inactive)
REMARK    1  A    between atoms: O_2  and  C_3 
REMARK    2  A    between atoms: C_5  and  C_6 
REMARK    3  A    between atoms: C_6  and  N_7 
REMARK    4  A    between atoms: N_7  and  C_8 
REMARK    5  A    between atoms: C_8  and  C_9 
REMARK    6  A    between atoms: C_9  and  N_10 
REMARK    7  A    between atoms: N_10  and  C_11 
REMARK    8  A    between atoms: C_14  and  N_15 
REMARK    9  A    between atoms: C_23  and  O_24 
REMARK   10  A    between atoms: O_24  and  C_25 
REMARK   11  A    between atoms: C_25  and  C_26 
ROOT
ATOM      1  C   UNL d   1      26.237 -17.228  -0.042  0.00  0.00     0.103 A 
ATOM      2  C   UNL d   1      27.433 -16.592   0.320  0.00  0.00     0.048 A 
ATOM      3  C   UNL d   1      27.782 -15.368  -0.246  0.00  0.00    -0.028 A 
ATOM      4  C   UNL d   1      26.922 -14.803  -1.187  0.00  0.00     0.035 A 
ATOM      5  C   UNL d   1      25.743 -15.421  -1.583  0.00  0.00     0.070 A 
ATOM      6 CL   UNL d   1      24.889 -14.456  -2.748  0.00  0.00    -0.081 Cl
ATOM      7  C   UNL d   1      25.386 -16.660  -1.033  0.00  0.00     0.124 A 
ENDROOT
BRANCH   3   8
ATOM      8  C   UNL d   1      29.056 -14.691   0.155  0.00  0.00     0.271 C 
BRANCH   8   9
ATOM      9  N   UNL d   1      29.840 -15.512   1.115  0.00  0.00    -0.070 N 
ATOM     10  H   UNL d   1      29.581 -16.500   0.988  0.00  0.00     0.277 HD
ATOM     11  H   UNL d   1      29.568 -15.241   2.071  0.00  0.00     0.277 HD
BRANCH   9  12
ATOM     12  C   UNL d   1      31.304 -15.372   0.977  0.00  0.00     0.252 C 
BRANCH  12  13
ATOM     13  C   UNL d   1      31.638 -14.833  -0.417  0.00  0.00     0.147 C 
BRANCH  13  14
ATOM     14  N   UNL d   1      31.375 -15.844  -1.407  0.00  0.00    -0.388 N 
ATOM     15  H   UNL d   1      31.921 -16.703  -1.440  0.00  0.00     0.159 HD
BRANCH  14  16
ATOM     16  C   UNL d   1      30.652 -15.585  -2.556  0.00  0.00     0.028 A 
ATOM     17  C   UNL d   1      29.533 -16.386  -2.814  0.00  0.00     0.031 A 
ATOM     18  C   UNL d   1      28.777 -16.221  -3.975  0.00  0.00     0.038 A 
ATOM     19  C   UNL d   1      29.102 -15.191  -4.862  0.00  0.00     0.103 A 
ATOM     20  C   UNL d   1      30.206 -14.369  -4.615  0.00  0.00     0.038 A 
ATOM     21  C   UNL d   1      30.967 -14.565  -3.459  0.00  0.00     0.031 A 
BRANCH  19  22
ATOM     22  N   UNL d   1      28.239 -14.935  -6.021  0.00  0.00    -0.116 N 
ATOM     23  O   UNL d   1      27.095 -15.398  -6.001  0.00  0.00    -0.532 OA
ATOM     24  O   UNL d   1      28.710 -14.243  -6.940  0.00  0.00    -0.532 OA
ENDBRANCH  19  22
ENDBRANCH  14  16
ENDBRANCH  13  14
ENDBRANCH  12  13
ENDBRANCH   9  12
ENDBRANCH   8   9
ENDBRANCH   3   8
BRANCH   1  25
ATOM     25  O   UNL d   1      25.919 -18.457   0.496  0.00  0.00    -0.353 OA
ATOM     26  C   UNL d   1      27.032 -19.310   0.798  0.00  0.00     0.210 C 
ENDBRANCH   1  25
BRANCH   7  27
ATOM     27  O   UNL d   1      24.277 -17.398  -1.345  0.00  0.00    -0.342 OA
BRANCH  27  28
ATOM     28  C   UNL d   1      22.989 -16.820  -1.113  0.00  0.00     0.216 C 
BRANCH  28  29
ATOM     29  C   UNL d   1      21.968 -17.862  -0.804  0.00  0.00    -0.017 A 
ATOM     30  C   UNL d   1      22.292 -18.996  -0.067  0.00  0.00     0.012 A 
ATOM     31  C   UNL d   1      21.299 -19.906   0.248  0.00  0.00     0.020 A 
ATOM     32  C   UNL d   1      20.018 -19.663  -0.216  0.00  0.00     0.116 A 
ATOM     33  N   UNL d   1      19.677 -18.603  -0.984  0.00  0.00    -0.272 NA
ATOM     34  C   UNL d   1      20.662 -17.728  -1.269  0.00  0.00     0.125 A 
ENDBRANCH  28  29
ENDBRANCH  27  28
ENDBRANCH   7  27
TORSDOF 11
ENDMDL
MODEL 9
REMARK VINA RESULT:   -30.042      3.871      7.004
REMARK INTER + INTRA:         -34.632
REMARK INTER:                 -33.323
REMARK INTRA:                  -1.309
REMARK CONF_INDEPENDENT:        3.281
REMARK UNBOUND:                -1.309
REMARK  11 active torsions:
REMARK  status: ('A' for Active; 'I' for Inactive)
REMARK    1  A    between atoms: O_2  and  C_3 
REMARK    2  A    between atoms: C_5  and  C_6 
REMARK    3  A    between atoms: C_6  and  N_7 
REMARK    4  A    between atoms: N_7  and  C_8 
REMARK    5  A    between atoms: C_8  and  C_9 
REMARK    6  A    between atoms: C_9  and  N_10 
REMARK    7  A    between atoms: N_10  and  C_11 
REMARK    8  A    between atoms: C_14  and  N_15 
REMARK    9  A    between atoms: C_23  and  O_24 
REMARK   10  A    between atoms: O_24  and  C_25 
REMARK   11  A    between atoms: C_25  and  C_26 
ROOT
ATOM      1  C   UNL d   1      25.356 -15.457  -1.733  0.00  0.00     0.103 A 
ATOM      2  C   UNL d   1      26.645 -14.941  -1.540  0.00  0.00     0.048 A 
ATOM      3  C   UNL d   1      27.519 -15.542  -0.637  0.00  0.00    -0.028 A 
ATOM      4  C   UNL d   1      27.074 -16.657   0.075  0.00  0.00     0.035 A 
ATOM      5  C   UNL d   1      25.795 -17.175  -0.078  0.00  0.00     0.070 A 
ATOM      6 CL   UNL d   1      25.558 -18.570   0.930  0.00  0.00    -0.081 Cl
ATOM      7  C   UNL d   1      24.899 -16.571  -0.972  0.00  0.00     0.124 A 
ENDROOT
BRANCH   3   8
ATOM      8  C   UNL d   1      28.898 -14.992  -0.446  0.00  0.00     0.271 C 
BRANCH   8   9
ATOM      9  N   UNL d   1      29.607 -15.656   0.680  0.00  0.00    -0.070 N 
ATOM     10  H   UNL d   1      29.139 -16.551   0.879  0.00  0.00     0.277 HD
ATOM     11  H   UNL d   1      29.511 -15.064   1.518  0.00  0.00     0.277 HD
BRANCH   9  12
ATOM     12  C   UNL d   1      31.042 -15.901   0.431  0.00  0.00     0.252 C 
BRANCH  12  13
ATOM     13  C   UNL d   1      31.289 -16.014  -1.076  0.00  0.00     0.147 C 
BRANCH  13  14
ATOM     14  N   UNL d   1      31.157 -17.386  -1.490  0.00  0.00    -0.388 N 
ATOM     15  H   UNL d   1      31.407 -18.150  -0.866  0.00  0.00     0.159 HD
BRANCH  14  16
ATOM     16  C   UNL d   1      31.041 -17.750  -2.819  0.00  0.00     0.028 A 
ATOM     17  C   UNL d   1      30.311 -16.905  -3.663  0.00  0.00     0.031 A 
ATOM     18  C   UNL d   1      30.106 -17.224  -5.006  0.00  0.00     0.038 A 
ATOM     19  C   UNL d   1      30.702 -18.372  -5.534  0.00  0.00     0.103 A 
ATOM     20  C   UNL d   1      31.449 -19.221  -4.713  0.00  0.00     0.038 A 
ATOM     21  C   UNL d   1      31.623 -18.899  -3.363  0.00  0.00     0.031 A 
BRANCH  19  22
ATOM     22  N   UNL d   1      30.593 -18.648  -6.971  0.00  0.00    -0.116 N 
ATOM     23  O   UNL d   1      30.641 -17.689  -7.747  0.00  0.00    -0.532 OA
ATOM     24  O   UNL d   1      30.485 -19.837  -7.317  0.00  0.00    -0.532 OA
ENDBRANCH  19  22
ENDBRANCH  14  16
ENDBRANCH  13  14
ENDBRANCH  12  13
ENDBRANCH   9  12
ENDBRANCH   8   9
ENDBRANCH   3   8
BRANCH   1  25
ATOM     25  O   UNL d   1      24.485 -14.832  -2.601  0.00  0.00    -0.353 OA
ATOM     26  C   UNL d   1      25.091 -14.177  -3.724  0.00  0.00     0.210 C 
ENDBRANCH   1  25
BRANCH   7  27
ATOM     27  O   UNL d   1      23.606 -16.950  -1.205  0.00  0.00    -0.342 OA
BRANCH  27  28
ATOM     28  C   UNL d   1      23.336 -18.334  -1.446  0.00  0.00     0.216 C 
BRANCH  28  29
ATOM     29  C   UNL d   1      22.051 -18.759  -0.819  0.00  0.00    -0.017 A 
ATOM     30  C   UNL d   1      21.948 -18.960   0.554  0.00  0.00     0.012 A 
ATOM     31  C   UNL d   1      20.722 -19.295   1.099  0.00  0.00     0.020 A 
ATOM     32  C   UNL d   1      19.646 -19.450   0.242  0.00  0.00     0.116 A 
ATOM     33  N   UNL d   1      19.721 -19.322  -1.101  0.00  0.00    -0.272 NA
ATOM     34  C   UNL d   1      20.925 -18.987  -1.605  0.00  0.00     0.125 A 
ENDBRANCH  28  29
ENDBRANCH  27  28
ENDBRANCH   7  27
TORSDOF 11
ENDMDL
