MODEL 1
REMARK VINA RESULT:   -11.030      0.000      0.000
REMARK INTER + INTRA:         -16.406
REMARK INTER:                 -14.312
REMARK INTRA:                  -2.094
REMARK CONF_INDEPENDENT:        3.281
REMARK UNBOUND:                -2.094
REMARK  11 active torsions:
REMARK  status: ('A' for Active; 'I' for Inactive)
REMARK    1  A    between atoms: C_2  and  C_5 
REMARK    2  A    between atoms: C_8  and  O_9 
REMARK    3  A    between atoms: O_9  and  C_10 
REMARK    4  A    between atoms: C_10  and  C_11 
REMARK    5  A    between atoms: C_11  and  O_12 
REMARK    6  A    between atoms: O_12  and  C_13 
REMARK    7  A    between atoms: C_19  and  C_20 
REMARK    8  A    between atoms: N_21  and  N_22 
REMARK    9  A    between atoms: N_22  and  C_23 
REMARK   10  A    between atoms: C_25  and  N_26 
REMARK   11  A    between atoms: C_32  and  N_33 
ROOT
ATOM      1  C   UNL d   1      30.344 -16.137  -5.285  0.00  0.00     0.080 A 
ATOM      2  C   UNL d   1      30.494 -16.553  -6.635  0.00  0.00     0.039 A 
ATOM      3  C   UNL d   1      30.715 -17.882  -6.990  0.00  0.00     0.026 A 
ATOM      4  C   UNL d   1      30.837 -18.828  -5.986  0.00  0.00     0.035 A 
ATOM      5 CL   UNL d   1      31.169 -20.464  -6.417  0.00  0.00    -0.084 Cl
ATOM      6  C   UNL d   1      30.714 -18.455  -4.636  0.00  0.00     0.039 A 
ATOM      7  C   UNL d   1      30.461 -17.112  -4.245  0.00  0.00     0.018 A 
ENDROOT
BRANCH   7   8
ATOM      8  C   UNL d   1      30.351 -16.904  -2.720  0.00  0.00     0.153 C 
ATOM      9  N   UNL d   1      30.136 -17.873  -1.923  0.00  0.00    -0.171 NA
BRANCH   9  10
ATOM     10  N   UNL d   1      29.878 -17.879  -0.574  0.00  0.00    -0.105 N 
ATOM     11  H   UNL d   1      30.005 -18.715  -0.017  0.00  0.00     0.208 HD
BRANCH  10  12
ATOM     12  C   UNL d   1      30.194 -16.679   0.193  0.00  0.00     0.774 C 
ATOM     13  N   UNL d   1      29.182 -15.866   0.608  0.00  0.00     0.133 NA
ATOM     14  C   UNL d   1      29.456 -14.828   1.419  0.00  0.00     0.756 C 
ATOM     15  N   UNL d   1      30.725 -14.693   1.895  0.00  0.00     0.131 NA
ATOM     16  C   UNL d   1      31.733 -15.477   1.375  0.00  0.00     0.756 C 
ATOM     17  N   UNL d   1      31.484 -16.474   0.516  0.00  0.00     0.133 NA
BRANCH  14  18
ATOM     18  N   UNL d   1      28.406 -13.925   1.691  0.00  0.00    -0.213 N 
ATOM     19  C   UNL d   1      27.104 -13.958   1.074  0.00  0.00     0.141 C 
ATOM     20  C   UNL d   1      26.656 -12.471   1.055  0.00  0.00     0.022 C 
ATOM     21  C   UNL d   1      27.053 -11.961   2.413  0.00  0.00     0.022 C 
ATOM     22  C   UNL d   1      28.248 -12.883   2.700  0.00  0.00     0.141 C 
ENDBRANCH  14  18
BRANCH  16  23
ATOM     23  N   UNL d   1      33.077 -15.186   1.658  0.00  0.00    -0.213 N 
ATOM     24  C   UNL d   1      33.993 -15.897   2.569  0.00  0.00     0.141 C 
ATOM     25  C   UNL d   1      34.807 -14.786   3.228  0.00  0.00     0.022 C 
ATOM     26  C   UNL d   1      34.973 -13.789   2.089  0.00  0.00     0.022 C 
ATOM     27  C   UNL d   1      33.723 -13.972   1.186  0.00  0.00     0.141 C 
ENDBRANCH  16  23
ENDBRANCH  10  12
ENDBRANCH   9  10
ENDBRANCH   7   8
BRANCH   1  28
ATOM     28  O   UNL d   1      30.026 -14.786  -5.273  0.00  0.00    -0.348 OA
BRANCH  28  29
ATOM     29  C   UNL d   1      28.745 -14.408  -5.758  0.00  0.00     0.202 C 
BRANCH  29  30
ATOM     30  C   UNL d   1      27.506 -14.808  -4.958  0.00  0.00     0.202 C 
BRANCH  30  31
ATOM     31  O   UNL d   1      27.859 -14.827  -3.535  0.00  0.00    -0.349 OA
BRANCH  31  32
ATOM     32  C   UNL d   1      26.904 -15.232  -2.636  0.00  0.00     0.068 C 
ATOM     33  C   UNL d   1      27.238 -16.060  -1.569  0.00  0.00     0.037 C 
ATOM     34  C   UNL d   1      26.287 -16.931  -0.954  0.00  0.00     0.011 C 
ATOM     35  C   UNL d   1      24.926 -16.792  -1.224  0.00  0.00    -0.050 C 
ATOM     36  C   UNL d   1      24.599 -15.679  -2.021  0.00  0.00     0.011 C 
ATOM     37  C   UNL d   1      25.569 -14.967  -2.774  0.00  0.00     0.037 C 
BRANCH  35  38
ATOM     38  C   UNL d   1      23.812 -17.683  -0.621  0.00  0.00    -0.024 C 
ATOM     39  C   UNL d   1      24.560 -18.202   0.607  0.00  0.00     0.019 C 
ATOM     40  C   UNL d   1      23.276 -18.877  -1.465  0.00  0.00     0.019 C 
ATOM     41  C   UNL d   1      22.516 -16.947  -0.145  0.00  0.00     0.019 C 
ENDBRANCH  35  38
ENDBRANCH  31  32
ENDBRANCH  30  31
ENDBRANCH  29  30
ENDBRANCH  28  29
ENDBRANCH   1  28
TORSDOF 11
ENDMDL
MODEL 2
REMARK VINA RESULT:   -10.993      1.042      1.732
REMARK INTER + INTRA:         -16.731
REMARK INTER:                 -14.275
REMARK INTRA:                  -2.456
REMARK CONF_INDEPENDENT:        3.281
REMARK UNBOUND:                -2.456
REMARK  11 active torsions:
REMARK  status: ('A' for Active; 'I' for Inactive)
REMARK    1  A    between atoms: C_2  and  C_5 
REMARK    2  A    between atoms: C_8  and  O_9 
REMARK    3  A    between atoms: O_9  and  C_10 
REMARK    4  A    between atoms: C_10  and  C_11 
REMARK    5  A    between atoms: C_11  and  O_12 
REMARK    6  A    between atoms: O_12  and  C_13 
REMARK    7  A    between atoms: C_19  and  C_20 
REMARK    8  A    between atoms: N_21  and  N_22 
REMARK    9  A    between atoms: N_22  and  C_23 
REMARK   10  A    between atoms: C_25  and  N_26 
REMARK   11  A    between atoms: C_32  and  N_33 
ROOT
ATOM      1  C   UNL d   1      30.660 -16.427  -5.368  0.00  0.00     0.080 A 
ATOM      2  C   UNL d   1      31.045 -16.828  -6.675  0.00  0.00     0.039 A 
ATOM      3  C   UNL d   1      31.167 -18.166  -7.044  0.00  0.00     0.026 A 
ATOM      4  C   UNL d   1      30.947 -19.143  -6.088  0.00  0.00     0.035 A 
ATOM      5 CL   UNL d   1      31.153 -20.799  -6.524  0.00  0.00    -0.084 Cl
ATOM      6  C   UNL d   1      30.583 -18.789  -4.777  0.00  0.00     0.039 A 
ATOM      7  C   UNL d   1      30.424 -17.433  -4.378  0.00  0.00     0.018 A 
ENDROOT
BRANCH   7   8
ATOM      8  C   UNL d   1      30.014 -17.249  -2.903  0.00  0.00     0.153 C 
ATOM      9  N   UNL d   1      30.497 -17.974  -1.975  0.00  0.00    -0.171 NA
BRANCH   9  10
ATOM     10  N   UNL d   1      30.168 -18.056  -0.644  0.00  0.00    -0.105 N 
ATOM     11  H   UNL d   1      30.233 -18.930  -0.138  0.00  0.00     0.208 HD
BRANCH  10  12
ATOM     12  C   UNL d   1      30.491 -16.922   0.216  0.00  0.00     0.774 C 
ATOM     13  N   UNL d   1      29.548 -15.964   0.442  0.00  0.00     0.133 NA
ATOM     14  C   UNL d   1      29.796 -14.985   1.329  0.00  0.00     0.756 C 
ATOM     15  N   UNL d   1      30.941 -15.049   2.064  0.00  0.00     0.131 NA
ATOM     16  C   UNL d   1      31.907 -15.976   1.736  0.00  0.00     0.756 C 
ATOM     17  N   UNL d   1      31.700 -16.919   0.808  0.00  0.00     0.133 NA
BRANCH  14  18
ATOM     18  N   UNL d   1      28.859 -13.933   1.410  0.00  0.00    -0.213 N 
ATOM     19  C   UNL d   1      28.184 -13.514   2.613  0.00  0.00     0.141 C 
ATOM     20  C   UNL d   1      26.816 -12.977   2.113  0.00  0.00     0.022 C 
ATOM     21  C   UNL d   1      27.172 -12.173   0.893  0.00  0.00     0.022 C 
ATOM     22  C   UNL d   1      28.438 -12.920   0.447  0.00  0.00     0.141 C 
ENDBRANCH  14  18
BRANCH  16  23
ATOM     23  N   UNL d   1      33.189 -15.896   2.303  0.00  0.00    -0.213 N 
ATOM     24  C   UNL d   1      33.965 -14.688   2.641  0.00  0.00     0.141 C 
ATOM     25  C   UNL d   1      35.402 -15.047   2.269  0.00  0.00     0.022 C 
ATOM     26  C   UNL d   1      35.476 -16.520   2.648  0.00  0.00     0.022 C 
ATOM     27  C   UNL d   1      34.032 -17.067   2.481  0.00  0.00     0.141 C 
ENDBRANCH  16  23
ENDBRANCH  10  12
ENDBRANCH   9  10
ENDBRANCH   7   8
BRANCH   1  28
ATOM     28  O   UNL d   1      30.521 -15.046  -5.353  0.00  0.00    -0.348 OA
BRANCH  28  29
ATOM     29  C   UNL d   1      30.009 -14.425  -6.522  0.00  0.00     0.202 C 
BRANCH  29  30
ATOM     30  C   UNL d   1      28.531 -14.039  -6.565  0.00  0.00     0.202 C 
BRANCH  30  31
ATOM     31  O   UNL d   1      27.737 -15.199  -6.147  0.00  0.00    -0.349 OA
BRANCH  31  32
ATOM     32  C   UNL d   1      27.189 -15.190  -4.888  0.00  0.00     0.068 C 
ATOM     33  C   UNL d   1      27.970 -14.891  -3.776  0.00  0.00     0.037 C 
ATOM     34  C   UNL d   1      27.651 -15.374  -2.470  0.00  0.00     0.011 C 
ATOM     35  C   UNL d   1      26.403 -15.941  -2.213  0.00  0.00    -0.050 C 
ATOM     36  C   UNL d   1      25.496 -15.869  -3.288  0.00  0.00     0.011 C 
ATOM     37  C   UNL d   1      25.906 -15.576  -4.615  0.00  0.00     0.037 C 
BRANCH  35  38
ATOM     38  C   UNL d   1      25.955 -16.502  -0.841  0.00  0.00    -0.024 C 
ATOM     39  C   UNL d   1      25.944 -15.199  -0.042  0.00  0.00     0.019 C 
ATOM     40  C   UNL d   1      26.860 -17.555  -0.136  0.00  0.00     0.019 C 
ATOM     41  C   UNL d   1      24.526 -17.137  -0.784  0.00  0.00     0.019 C 
ENDBRANCH  35  38
ENDBRANCH  31  32
ENDBRANCH  30  31
ENDBRANCH  29  30
ENDBRANCH  28  29
ENDBRANCH   1  28
TORSDOF 11
ENDMDL
MODEL 3
REMARK VINA RESULT:   -10.826      0.958      3.871
REMARK INTER + INTRA:         -16.670
REMARK INTER:                 -14.107
REMARK INTRA:                  -2.563
REMARK CONF_INDEPENDENT:        3.281
REMARK UNBOUND:                -2.563
REMARK  11 active torsions:
REMARK  status: ('A' for Active; 'I' for Inactive)
REMARK    1  A    between atoms: C_2  and  C_5 
REMARK    2  A    between atoms: C_8  and  O_9 
REMARK    3  A    between atoms: O_9  and  C_10 
REMARK    4  A    between atoms: C_10  and  C_11 
REMARK    5  A    between atoms: C_11  and  O_12 
REMARK    6  A    between atoms: O_12  and  C_13 
REMARK    7  A    between atoms: C_19  and  C_20 
REMARK    8  A    between atoms: N_21  and  N_22 
REMARK    9  A    between atoms: N_22  and  C_23 
REMARK   10  A    between atoms: C_25  and  N_26 
REMARK   11  A    between atoms: C_32  and  N_33 
ROOT
ATOM      1  C   UNL d   1      30.635 -16.429  -5.312  0.00  0.00     0.080 A 
ATOM      2  C   UNL d   1      30.830 -16.828  -6.660  0.00  0.00     0.039 A 
ATOM      3  C   UNL d   1      30.958 -18.164  -7.037  0.00  0.00     0.026 A 
ATOM      4  C   UNL d   1      30.939 -19.137  -6.052  0.00  0.00     0.035 A 
ATOM      5 CL   UNL d   1      31.155 -20.787  -6.505  0.00  0.00    -0.084 Cl
ATOM      6  C   UNL d   1      30.767 -18.783  -4.702  0.00  0.00     0.039 A 
ATOM      7  C   UNL d   1      30.607 -17.432  -4.292  0.00  0.00     0.018 A 
ENDROOT
BRANCH   7   8
ATOM      8  C   UNL d   1      30.423 -17.247  -2.771  0.00  0.00     0.153 C 
ATOM      9  N   UNL d   1      30.438 -18.234  -1.967  0.00  0.00    -0.171 NA
BRANCH   9  10
ATOM     10  N   UNL d   1      30.166 -18.294  -0.622  0.00  0.00    -0.105 N 
ATOM     11  H   UNL d   1      30.391 -19.116  -0.075  0.00  0.00     0.208 HD
BRANCH  10  12
ATOM     12  C   UNL d   1      30.318 -17.075   0.166  0.00  0.00     0.774 C 
ATOM     13  N   UNL d   1      31.524 -16.794   0.735  0.00  0.00     0.133 NA
ATOM     14  C   UNL d   1      31.705 -15.615   1.357  0.00  0.00     0.756 C 
ATOM     15  N   UNL d   1      30.709 -14.688   1.295  0.00  0.00     0.131 NA
ATOM     16  C   UNL d   1      29.476 -15.049   0.795  0.00  0.00     0.756 C 
ATOM     17  N   UNL d   1      29.262 -16.244   0.230  0.00  0.00     0.133 NA
BRANCH  14  18
ATOM     18  N   UNL d   1      32.912 -15.436   2.065  0.00  0.00    -0.213 N 
ATOM     19  C   UNL d   1      33.313 -14.220   2.727  0.00  0.00     0.141 C 
ATOM     20  C   UNL d   1      34.863 -14.233   2.639  0.00  0.00     0.022 C 
ATOM     21  C   UNL d   1      35.227 -15.656   2.962  0.00  0.00     0.022 C 
ATOM     22  C   UNL d   1      33.960 -16.370   2.466  0.00  0.00     0.141 C 
ENDBRANCH  14  18
BRANCH  16  23
ATOM     23  N   UNL d   1      28.369 -14.200   0.954  0.00  0.00    -0.213 N 
ATOM     24  C   UNL d   1      27.827 -13.217  -0.002  0.00  0.00     0.141 C 
ATOM     25  C   UNL d   1      27.410 -12.034   0.870  0.00  0.00     0.022 C 
ATOM     26  C   UNL d   1      26.888 -12.725   2.123  0.00  0.00     0.022 C 
ATOM     27  C   UNL d   1      27.677 -14.058   2.225  0.00  0.00     0.141 C 
ENDBRANCH  16  23
ENDBRANCH  10  12
ENDBRANCH   9  10
ENDBRANCH   7   8
BRANCH   1  28
ATOM     28  O   UNL d   1      30.433 -15.056  -5.283  0.00  0.00    -0.348 OA
BRANCH  28  29
ATOM     29  C   UNL d   1      29.864 -14.452  -6.435  0.00  0.00     0.202 C 
BRANCH  29  30
ATOM     30  C   UNL d   1      28.409 -13.989  -6.383  0.00  0.00     0.202 C 
BRANCH  30  31
ATOM     31  O   UNL d   1      27.571 -15.136  -6.020  0.00  0.00    -0.349 OA
BRANCH  31  32
ATOM     32  C   UNL d   1      27.080 -15.200  -4.740  0.00  0.00     0.068 C 
ATOM     33  C   UNL d   1      27.943 -15.275  -3.651  0.00  0.00     0.037 C 
ATOM     34  C   UNL d   1      27.557 -15.872  -2.412  0.00  0.00     0.011 C 
ATOM     35  C   UNL d   1      26.217 -16.165  -2.158  0.00  0.00    -0.050 C 
ATOM     36  C   UNL d   1      25.323 -15.712  -3.146  0.00  0.00     0.011 C 
ATOM     37  C   UNL d   1      25.750 -15.314  -4.440  0.00  0.00     0.037 C 
BRANCH  35  38
ATOM     38  C   UNL d   1      25.689 -16.818  -0.857  0.00  0.00    -0.024 C 
ATOM     39  C   UNL d   1      25.585 -15.565   0.014  0.00  0.00     0.019 C 
ATOM     40  C   UNL d   1      26.571 -17.888  -0.150  0.00  0.00     0.019 C 
ATOM     41  C   UNL d   1      24.278 -17.489  -0.940  0.00  0.00     0.019 C 
ENDBRANCH  35  38
ENDBRANCH  31  32
ENDBRANCH  30  31
ENDBRANCH  29  30
ENDBRANCH  28  29
ENDBRANCH   1  28
TORSDOF 11
ENDMDL
MODEL 4
REMARK VINA RESULT:   -10.692      2.488      5.092
REMARK INTER + INTRA:         -16.280
REMARK INTER:                 -13.973
REMARK INTRA:                  -2.307
REMARK CONF_INDEPENDENT:        3.281
REMARK UNBOUND:                -2.307
REMARK  11 active torsions:
REMARK  status: ('A' for Active; 'I' for Inactive)
REMARK    1  A    between atoms: C_2  and  C_5 
REMARK    2  A    between atoms: C_8  and  O_9 
REMARK    3  A    between atoms: O_9  and  C_10 
REMARK    4  A    between atoms: C_10  and  C_11 
REMARK    5  A    between atoms: C_11  and  O_12 
REMARK    6  A    between atoms: O_12  and  C_13 
REMARK    7  A    between atoms: C_19  and  C_20 
REMARK    8  A    between atoms: N_21  and  N_22 
REMARK    9  A    between atoms: N_22  and  C_23 
REMARK   10  A    between atoms: C_25  and  N_26 
REMARK   11  A    between atoms: C_32  and  N_33 
ROOT
ATOM      1  C   UNL d   1      30.734 -16.198  -5.140  0.00  0.00     0.080 A 
ATOM      2  C   UNL d   1      31.127 -16.598  -6.445  0.00  0.00     0.039 A 
ATOM      3  C   UNL d   1      31.129 -17.931  -6.852  0.00  0.00     0.026 A 
ATOM      4  C   UNL d   1      30.777 -18.907  -5.936  0.00  0.00     0.035 A 
ATOM      5 CL   UNL d   1      30.835 -20.563  -6.416  0.00  0.00    -0.084 Cl
ATOM      6  C   UNL d   1      30.401 -18.556  -4.628  0.00  0.00     0.039 A 
ATOM      7  C   UNL d   1      30.362 -17.202  -4.192  0.00  0.00     0.018 A 
ENDROOT
BRANCH   7   8
ATOM      8  C   UNL d   1      29.916 -17.019  -2.727  0.00  0.00     0.153 C 
ATOM      9  N   UNL d   1      30.193 -17.876  -1.827  0.00  0.00    -0.171 NA
BRANCH   9  10
ATOM     10  N   UNL d   1      29.782 -17.962  -0.520  0.00  0.00    -0.105 N 
ATOM     11  H   UNL d   1      30.449 -18.052   0.237  0.00  0.00     0.208 HD
BRANCH  10  12
ATOM     12  C   UNL d   1      28.619 -17.181  -0.110  0.00  0.00     0.774 C 
ATOM     13  N   UNL d   1      28.803 -16.019   0.577  0.00  0.00     0.133 NA
ATOM     14  C   UNL d   1      27.745 -15.234   0.847  0.00  0.00     0.756 C 
ATOM     15  N   UNL d   1      26.535 -15.571   0.321  0.00  0.00     0.131 NA
ATOM     16  C   UNL d   1      26.375 -16.800  -0.284  0.00  0.00     0.756 C 
ATOM     17  N   UNL d   1      27.410 -17.622  -0.503  0.00  0.00     0.133 NA
BRANCH  14  18
ATOM     18  N   UNL d   1      27.961 -14.127   1.695  0.00  0.00    -0.213 N 
ATOM     19  C   UNL d   1      27.872 -14.154   3.133  0.00  0.00     0.141 C 
ATOM     20  C   UNL d   1      27.407 -12.722   3.512  0.00  0.00     0.022 C 
ATOM     21  C   UNL d   1      28.236 -11.832   2.627  0.00  0.00     0.022 C 
ATOM     22  C   UNL d   1      28.459 -12.780   1.438  0.00  0.00     0.141 C 
ENDBRANCH  14  18
BRANCH  16  23
ATOM     23  N   UNL d   1      25.093 -17.274  -0.602  0.00  0.00    -0.213 N 
ATOM     24  C   UNL d   1      23.980 -16.542  -1.235  0.00  0.00     0.141 C 
ATOM     25  C   UNL d   1      22.736 -17.047  -0.508  0.00  0.00     0.022 C 
ATOM     26  C   UNL d   1      23.070 -18.514  -0.274  0.00  0.00     0.022 C 
ATOM     27  C   UNL d   1      24.618 -18.578  -0.167  0.00  0.00     0.141 C 
ENDBRANCH  16  23
ENDBRANCH  10  12
ENDBRANCH   9  10
ENDBRANCH   7   8
BRANCH   1  28
ATOM     28  O   UNL d   1      30.733 -14.811  -5.086  0.00  0.00    -0.348 OA
BRANCH  28  29
ATOM     29  C   UNL d   1      31.539 -14.116  -6.026  0.00  0.00     0.202 C 
BRANCH  29  30
ATOM     30  C   UNL d   1      30.996 -12.837  -6.660  0.00  0.00     0.202 C 
BRANCH  30  31
ATOM     31  O   UNL d   1      29.800 -13.176  -7.438  0.00  0.00    -0.349 OA
BRANCH  31  32
ATOM     32  C   UNL d   1      28.641 -13.452  -6.756  0.00  0.00     0.068 C 
ATOM     33  C   UNL d   1      27.873 -12.425  -6.215  0.00  0.00     0.037 C 
ATOM     34  C   UNL d   1      27.019 -12.626  -5.088  0.00  0.00     0.011 C 
ATOM     35  C   UNL d   1      26.720 -13.915  -4.650  0.00  0.00    -0.050 C 
ATOM     36  C   UNL d   1      27.216 -14.942  -5.475  0.00  0.00     0.011 C 
ATOM     37  C   UNL d   1      28.219 -14.718  -6.454  0.00  0.00     0.037 C 
BRANCH  35  38
ATOM     38  C   UNL d   1      25.814 -14.247  -3.438  0.00  0.00    -0.024 C 
ATOM     39  C   UNL d   1      26.065 -15.753  -3.358  0.00  0.00     0.019 C 
ATOM     40  C   UNL d   1      24.287 -13.965  -3.551  0.00  0.00     0.019 C 
ATOM     41  C   UNL d   1      26.216 -13.598  -2.073  0.00  0.00     0.019 C 
ENDBRANCH  35  38
ENDBRANCH  31  32
ENDBRANCH  30  31
ENDBRANCH  29  30
ENDBRANCH  28  29
ENDBRANCH   1  28
TORSDOF 11
ENDMDL
MODEL 5
REMARK VINA RESULT:   -10.547      1.972      4.206
REMARK INTER + INTRA:         -16.688
REMARK INTER:                 -13.829
REMARK INTRA:                  -2.859
REMARK CONF_INDEPENDENT:        3.281
REMARK UNBOUND:                -2.859
REMARK  11 active torsions:
REMARK  status: ('A' for Active; 'I' for Inactive)
REMARK    1  A    between atoms: C_2  and  C_5 
REMARK    2  A    between atoms: C_8  and  O_9 
REMARK    3  A    between atoms: O_9  and  C_10 
REMARK    4  A    between atoms: C_10  and  C_11 
REMARK    5  A    between atoms: C_11  and  O_12 
REMARK    6  A    between atoms: O_12  and  C_13 
REMARK    7  A    between atoms: C_19  and  C_20 
REMARK    8  A    between atoms: N_21  and  N_22 
REMARK    9  A    between atoms: N_22  and  C_23 
REMARK   10  A    between atoms: C_25  and  N_26 
REMARK   11  A    between atoms: C_32  and  N_33 
ROOT
ATOM      1  C   UNL d   1      30.475 -16.445  -5.445  0.00  0.00     0.080 A 
ATOM      2  C   UNL d   1      30.815 -16.865  -6.759  0.00  0.00     0.039 A 
ATOM      3  C   UNL d   1      30.993 -18.205  -7.097  0.00  0.00     0.026 A 
ATOM      4  C   UNL d   1      30.879 -19.162  -6.103  0.00  0.00     0.035 A 
ATOM      5 CL   UNL d   1      31.156 -20.817  -6.503  0.00  0.00    -0.084 Cl
ATOM      6  C   UNL d   1      30.564 -18.789  -4.785  0.00  0.00     0.039 A 
ATOM      7  C   UNL d   1      30.349 -17.432  -4.417  0.00  0.00     0.018 A 
ENDROOT
BRANCH   7   8
ATOM      8  C   UNL d   1      30.006 -17.224  -2.927  0.00  0.00     0.153 C 
ATOM      9  N   UNL d   1      30.391 -18.040  -2.028  0.00  0.00    -0.171 NA
BRANCH   9  10
ATOM     10  N   UNL d   1      30.084 -18.105  -0.691  0.00  0.00    -0.105 N 
ATOM     11  H   UNL d   1      30.803 -18.237   0.008  0.00  0.00     0.208 HD
BRANCH  10  12
ATOM     12  C   UNL d   1      29.008 -17.256  -0.190  0.00  0.00     0.774 C 
ATOM     13  N   UNL d   1      27.715 -17.575  -0.479  0.00  0.00     0.133 NA
ATOM     14  C   UNL d   1      26.717 -16.871   0.082  0.00  0.00     0.756 C 
ATOM     15  N   UNL d   1      27.030 -15.931   1.017  0.00  0.00     0.131 NA
ATOM     16  C   UNL d   1      28.348 -15.575   1.207  0.00  0.00     0.756 C 
ATOM     17  N   UNL d   1      29.352 -16.226   0.605  0.00  0.00     0.133 NA
BRANCH  14  18
ATOM     18  N   UNL d   1      25.406 -17.134  -0.370  0.00  0.00    -0.213 N 
ATOM     19  C   UNL d   1      24.675 -16.323  -1.311  0.00  0.00     0.141 C 
ATOM     20  C   UNL d   1      23.190 -16.505  -0.895  0.00  0.00     0.022 C 
ATOM     21  C   UNL d   1      23.075 -17.979  -0.618  0.00  0.00     0.022 C 
ATOM     22  C   UNL d   1      24.519 -18.278  -0.187  0.00  0.00     0.141 C 
ENDBRANCH  14  18
BRANCH  16  23
ATOM     23  N   UNL d   1      28.676 -14.442   1.969  0.00  0.00    -0.213 N 
ATOM     24  C   UNL d   1      30.011 -13.869   2.225  0.00  0.00     0.141 C 
ATOM     25  C   UNL d   1      29.953 -13.417   3.682  0.00  0.00     0.022 C 
ATOM     26  C   UNL d   1      28.520 -12.918   3.809  0.00  0.00     0.022 C 
ATOM     27  C   UNL d   1      27.696 -13.748   2.788  0.00  0.00     0.141 C 
ENDBRANCH  16  23
ENDBRANCH  10  12
ENDBRANCH   9  10
ENDBRANCH   7   8
BRANCH   1  28
ATOM     28  O   UNL d   1      30.259 -15.075  -5.462  0.00  0.00    -0.348 OA
BRANCH  28  29
ATOM     29  C   UNL d   1      29.982 -14.468  -6.715  0.00  0.00     0.202 C 
BRANCH  29  30
ATOM     30  C   UNL d   1      28.530 -14.364  -7.179  0.00  0.00     0.202 C 
BRANCH  30  31
ATOM     31  O   UNL d   1      27.703 -15.200  -6.304  0.00  0.00    -0.349 OA
BRANCH  31  32
ATOM     32  C   UNL d   1      27.360 -14.705  -5.070  0.00  0.00     0.068 C 
ATOM     33  C   UNL d   1      26.760 -13.456  -4.947  0.00  0.00     0.037 C 
ATOM     34  C   UNL d   1      26.874 -12.669  -3.761  0.00  0.00     0.011 C 
ATOM     35  C   UNL d   1      27.369 -13.233  -2.586  0.00  0.00    -0.050 C 
ATOM     36  C   UNL d   1      27.605 -14.619  -2.657  0.00  0.00     0.011 C 
ATOM     37  C   UNL d   1      27.677 -15.319  -3.889  0.00  0.00     0.037 C 
BRANCH  35  38
ATOM     38  C   UNL d   1      27.543 -12.473  -1.247  0.00  0.00    -0.024 C 
ATOM     39  C   UNL d   1      27.060 -11.092  -1.692  0.00  0.00     0.019 C 
ATOM     40  C   UNL d   1      28.970 -12.367  -0.633  0.00  0.00     0.019 C 
ATOM     41  C   UNL d   1      26.655 -12.956  -0.053  0.00  0.00     0.019 C 
ENDBRANCH  35  38
ENDBRANCH  31  32
ENDBRANCH  30  31
ENDBRANCH  29  30
ENDBRANCH  28  29
ENDBRANCH   1  28
TORSDOF 11
ENDMDL
MODEL 6
REMARK VINA RESULT:   -10.525      2.061      5.006
REMARK INTER + INTRA:         -16.653
REMARK INTER:                 -13.806
REMARK INTRA:                  -2.847
REMARK CONF_INDEPENDENT:        3.281
REMARK UNBOUND:                -2.847
REMARK  11 active torsions:
REMARK  status: ('A' for Active; 'I' for Inactive)
REMARK    1  A    between atoms: C_2  and  C_5 
REMARK    2  A    between atoms: C_8  and  O_9 
REMARK    3  A    between atoms: O_9  and  C_10 
REMARK    4  A    between atoms: C_10  and  C_11 
REMARK    5  A    between atoms: C_11  and  O_12 
REMARK    6  A    between atoms: O_12  and  C_13 
REMARK    7  A    between atoms: C_19  and  C_20 
REMARK    8  A    between atoms: N_21  and  N_22 
REMARK    9  A    between atoms: N_22  and  C_23 
REMARK   10  A    between atoms: C_25  and  N_26 
REMARK   11  A    between atoms: C_32  and  N_33 
ROOT
ATOM      1  C   UNL d   1      30.199 -15.701  -5.277  0.00  0.00     0.080 A 
ATOM      2  C   UNL d   1      30.645 -15.830  -6.620  0.00  0.00     0.039 A 
ATOM      3  C   UNL d   1      30.935 -17.063  -7.199  0.00  0.00     0.026 A 
ATOM      4  C   UNL d   1      30.828 -18.205  -6.423  0.00  0.00     0.035 A 
ATOM      5 CL   UNL d   1      31.242 -19.728  -7.118  0.00  0.00    -0.084 Cl
ATOM      6  C   UNL d   1      30.409 -18.120  -5.084  0.00  0.00     0.039 A 
ATOM      7  C   UNL d   1      30.080 -16.879  -4.474  0.00  0.00     0.018 A 
ENDROOT
BRANCH   7   8
ATOM      8  C   UNL d   1      29.634 -16.993  -3.001  0.00  0.00     0.153 C 
ATOM      9  N   UNL d   1      30.179 -17.815  -2.195  0.00  0.00    -0.171 NA
BRANCH   9  10
ATOM     10  N   UNL d   1      29.845 -18.157  -0.908  0.00  0.00    -0.105 N 
ATOM     11  H   UNL d   1      30.547 -18.460  -0.244  0.00  0.00     0.208 HD
BRANCH  10  12
ATOM     12  C   UNL d   1      28.783 -17.403  -0.249  0.00  0.00     0.774 C 
ATOM     13  N   UNL d   1      29.112 -16.393   0.605  0.00  0.00     0.133 NA
ATOM     14  C   UNL d   1      28.142 -15.616   1.119  0.00  0.00     0.756 C 
ATOM     15  N   UNL d   1      26.866 -15.791   0.674  0.00  0.00     0.131 NA
ATOM     16  C   UNL d   1      26.565 -16.882  -0.114  0.00  0.00     0.756 C 
ATOM     17  N   UNL d   1      27.514 -17.703  -0.580  0.00  0.00     0.133 NA
BRANCH  14  18
ATOM     18  N   UNL d   1      28.514 -14.691   2.117  0.00  0.00    -0.213 N 
ATOM     19  C   UNL d   1      27.782 -14.445   3.334  0.00  0.00     0.141 C 
ATOM     20  C   UNL d   1      28.068 -12.953   3.654  0.00  0.00     0.022 C 
ATOM     21  C   UNL d   1      29.541 -12.807   3.384  0.00  0.00     0.022 C 
ATOM     22  C   UNL d   1      29.720 -13.892   2.311  0.00  0.00     0.141 C 
ENDBRANCH  14  18
BRANCH  16  23
ATOM     23  N   UNL d   1      25.228 -17.225  -0.371  0.00  0.00    -0.213 N 
ATOM     24  C   UNL d   1      24.288 -16.592  -1.315  0.00  0.00     0.141 C 
ATOM     25  C   UNL d   1      22.950 -16.603  -0.579  0.00  0.00     0.022 C 
ATOM     26  C   UNL d   1      23.003 -17.929   0.167  0.00  0.00     0.022 C 
ATOM     27  C   UNL d   1      24.509 -18.200   0.433  0.00  0.00     0.141 C 
ENDBRANCH  16  23
ENDBRANCH  10  12
ENDBRANCH   9  10
ENDBRANCH   7   8
BRANCH   1  28
ATOM     28  O   UNL d   1      29.890 -14.369  -5.040  0.00  0.00    -0.348 OA
BRANCH  28  29
ATOM     29  C   UNL d   1      28.744 -13.835  -5.688  0.00  0.00     0.202 C 
BRANCH  29  30
ATOM     30  C   UNL d   1      27.866 -14.768  -6.520  0.00  0.00     0.202 C 
BRANCH  30  31
ATOM     31  O   UNL d   1      26.733 -15.198  -5.694  0.00  0.00    -0.349 OA
BRANCH  31  32
ATOM     32  C   UNL d   1      26.596 -14.646  -4.444  0.00  0.00     0.068 C 
ATOM     33  C   UNL d   1      26.069 -13.368  -4.287  0.00  0.00     0.037 C 
ATOM     34  C   UNL d   1      26.389 -12.545  -3.164  0.00  0.00     0.011 C 
ATOM     35  C   UNL d   1      27.030 -13.089  -2.051  0.00  0.00    -0.050 C 
ATOM     36  C   UNL d   1      27.199 -14.485  -2.099  0.00  0.00     0.011 C 
ATOM     37  C   UNL d   1      27.061 -15.231  -3.299  0.00  0.00     0.037 C 
BRANCH  35  38
ATOM     38  C   UNL d   1      27.429 -12.290  -0.786  0.00  0.00    -0.024 C 
ATOM     39  C   UNL d   1      28.882 -12.750  -0.662  0.00  0.00     0.019 C 
ATOM     40  C   UNL d   1      26.665 -12.570   0.542  0.00  0.00     0.019 C 
ATOM     41  C   UNL d   1      27.405 -10.731  -0.912  0.00  0.00     0.019 C 
ENDBRANCH  35  38
ENDBRANCH  31  32
ENDBRANCH  30  31
ENDBRANCH  29  30
ENDBRANCH  28  29
ENDBRANCH   1  28
TORSDOF 11
ENDMDL
MODEL 7
REMARK VINA RESULT:   -10.326      2.038      4.924
REMARK INTER + INTRA:         -16.562
REMARK INTER:                 -13.608
REMARK INTRA:                  -2.955
REMARK CONF_INDEPENDENT:        3.281
REMARK UNBOUND:                -2.955
REMARK  11 active torsions:
REMARK  status: ('A' for Active; 'I' for Inactive)
REMARK    1  A    between atoms: C_2  and  C_5 
REMARK    2  A    between atoms: C_8  and  O_9 
REMARK    3  A    between atoms: O_9  and  C_10 
REMARK    4  A    between atoms: C_10  and  C_11 
REMARK    5  A    between atoms: C_11  and  O_12 
REMARK    6  A    between atoms: O_12  and  C_13 
REMARK    7  A    between atoms: C_19  and  C_20 
REMARK    8  A    between atoms: N_21  and  N_22 
REMARK    9  A    between atoms: N_22  and  C_23 
REMARK   10  A    between atoms: C_25  and  N_26 
REMARK   11  A    between atoms: C_32  and  N_33 
ROOT
ATOM      1  C   UNL d   1      30.432 -17.319  -5.556  0.00  0.00     0.080 A 
ATOM      2  C   UNL d   1      30.490 -17.435  -6.971  0.00  0.00     0.039 A 
ATOM      3  C   UNL d   1      30.812 -18.629  -7.613  0.00  0.00     0.026 A 
ATOM      4  C   UNL d   1      31.133 -19.734  -6.843  0.00  0.00     0.035 A 
ATOM      5 CL   UNL d   1      31.590 -21.198  -7.632  0.00  0.00    -0.084 Cl
ATOM      6  C   UNL d   1      31.108 -19.656  -5.439  0.00  0.00     0.039 A 
ATOM      7  C   UNL d   1      30.755 -18.460  -4.756  0.00  0.00     0.018 A 
ENDROOT
BRANCH   7   8
ATOM      8  C   UNL d   1      30.777 -18.576  -3.218  0.00  0.00     0.153 C 
ATOM      9  N   UNL d   1      30.448 -17.604  -2.465  0.00  0.00    -0.171 NA
BRANCH   9  10
ATOM     10  N   UNL d   1      30.525 -17.465  -1.101  0.00  0.00    -0.105 N 
ATOM     11  H   UNL d   1      31.378 -17.155  -0.651  0.00  0.00     0.208 HD
BRANCH  10  12
ATOM     12  C   UNL d   1      29.346 -16.983  -0.390  0.00  0.00     0.774 C 
ATOM     13  N   UNL d   1      29.495 -16.064   0.606  0.00  0.00     0.133 NA
ATOM     14  C   UNL d   1      28.405 -15.526   1.180  0.00  0.00     0.756 C 
ATOM     15  N   UNL d   1      27.181 -15.830   0.664  0.00  0.00     0.131 NA
ATOM     16  C   UNL d   1      27.071 -16.833  -0.275  0.00  0.00     0.756 C 
ATOM     17  N   UNL d   1      28.146 -17.426  -0.810  0.00  0.00     0.133 NA
BRANCH  14  18
ATOM     18  N   UNL d   1      28.608 -14.703   2.309  0.00  0.00    -0.213 N 
ATOM     19  C   UNL d   1      29.855 -14.076   2.664  0.00  0.00     0.141 C 
ATOM     20  C   UNL d   1      29.812 -13.996   4.214  0.00  0.00     0.022 C 
ATOM     21  C   UNL d   1      28.405 -13.552   4.509  0.00  0.00     0.022 C 
ATOM     22  C   UNL d   1      27.683 -14.138   3.286  0.00  0.00     0.141 C 
ENDBRANCH  14  18
BRANCH  16  23
ATOM     23  N   UNL d   1      25.810 -17.338  -0.630  0.00  0.00    -0.213 N 
ATOM     24  C   UNL d   1      24.827 -16.763  -1.568  0.00  0.00     0.141 C 
ATOM     25  C   UNL d   1      23.477 -17.030  -0.907  0.00  0.00     0.022 C 
ATOM     26  C   UNL d   1      23.692 -18.397  -0.272  0.00  0.00     0.022 C 
ATOM     27  C   UNL d   1      25.209 -18.474   0.051  0.00  0.00     0.141 C 
ENDBRANCH  16  23
ENDBRANCH  10  12
ENDBRANCH   9  10
ENDBRANCH   7   8
BRANCH   1  28
ATOM     28  O   UNL d   1      29.977 -16.048  -5.237  0.00  0.00    -0.348 OA
BRANCH  28  29
ATOM     29  C   UNL d   1      29.587 -15.201  -6.308  0.00  0.00     0.202 C 
BRANCH  29  30
ATOM     30  C   UNL d   1      28.128 -14.757  -6.403  0.00  0.00     0.202 C 
BRANCH  30  31
ATOM     31  O   UNL d   1      27.344 -15.530  -5.435  0.00  0.00    -0.349 OA
BRANCH  31  32
ATOM     32  C   UNL d   1      27.265 -15.065  -4.145  0.00  0.00     0.068 C 
ATOM     33  C   UNL d   1      26.158 -14.337  -3.719  0.00  0.00     0.037 C 
ATOM     34  C   UNL d   1      26.232 -13.396  -2.647  0.00  0.00     0.011 C 
ATOM     35  C   UNL d   1      27.349 -13.363  -1.814  0.00  0.00    -0.050 C 
ATOM     36  C   UNL d   1      28.285 -14.388  -2.050  0.00  0.00     0.011 C 
ATOM     37  C   UNL d   1      28.282 -15.167  -3.237  0.00  0.00     0.037 C 
BRANCH  35  38
ATOM     38  C   UNL d   1      27.538 -12.382  -0.630  0.00  0.00    -0.024 C 
ATOM     39  C   UNL d   1      29.001 -12.682  -0.302  0.00  0.00     0.019 C 
ATOM     40  C   UNL d   1      26.656 -12.570   0.639  0.00  0.00     0.019 C 
ATOM     41  C   UNL d   1      27.401 -10.859  -0.961  0.00  0.00     0.019 C 
ENDBRANCH  35  38
ENDBRANCH  31  32
ENDBRANCH  30  31
ENDBRANCH  29  30
ENDBRANCH  28  29
ENDBRANCH   1  28
TORSDOF 11
ENDMDL
MODEL 8
REMARK VINA RESULT:    -9.866      3.428      5.525
REMARK INTER + INTRA:         -16.138
REMARK INTER:                 -13.147
REMARK INTRA:                  -2.990
REMARK CONF_INDEPENDENT:        3.281
REMARK UNBOUND:                -2.990
REMARK  11 active torsions:
REMARK  status: ('A' for Active; 'I' for Inactive)
REMARK    1  A    between atoms: C_2  and  C_5 
REMARK    2  A    between atoms: C_8  and  O_9 
REMARK    3  A    between atoms: O_9  and  C_10 
REMARK    4  A    between atoms: C_10  and  C_11 
REMARK    5  A    between atoms: C_11  and  O_12 
REMARK    6  A    between atoms: O_12  and  C_13 
REMARK    7  A    between atoms: C_19  and  C_20 
REMARK    8  A    between atoms: N_21  and  N_22 
REMARK    9  A    between atoms: N_22  and  C_23 
REMARK   10  A    between atoms: C_25  and  N_26 
REMARK   11  A    between atoms: C_32  and  N_33 
ROOT
ATOM      1  C   UNL d   1      26.155 -16.025  -1.483  0.00  0.00     0.080 A 
ATOM      2  C   UNL d   1      24.795 -15.764  -1.797  0.00  0.00     0.039 A 
ATOM      3  C   UNL d   1      23.746 -16.525  -1.284  0.00  0.00     0.026 A 
ATOM      4  C   UNL d   1      24.045 -17.606  -0.472  0.00  0.00     0.035 A 
ATOM      5 CL   UNL d   1      22.755 -18.587   0.119  0.00  0.00    -0.084 Cl
ATOM      6  C   UNL d   1      25.379 -17.911  -0.152  0.00  0.00     0.039 A 
ATOM      7  C   UNL d   1      26.468 -17.136  -0.638  0.00  0.00     0.018 A 
ENDROOT
BRANCH   7   8
ATOM      8  C   UNL d   1      27.854 -17.624  -0.171  0.00  0.00     0.153 C 
ATOM      9  N   UNL d   1      28.922 -17.307  -0.788  0.00  0.00    -0.171 NA
BRANCH   9  10
ATOM     10  N   UNL d   1      30.214 -17.738  -0.614  0.00  0.00    -0.105 N 
ATOM     11  H   UNL d   1      30.778 -18.042  -1.398  0.00  0.00     0.208 HD
BRANCH  10  12
ATOM     12  C   UNL d   1      31.030 -17.077   0.400  0.00  0.00     0.774 C 
ATOM     13  N   UNL d   1      30.844 -15.749   0.646  0.00  0.00     0.133 NA
ATOM     14  C   UNL d   1      31.503 -15.165   1.662  0.00  0.00     0.756 C 
ATOM     15  N   UNL d   1      32.250 -15.949   2.488  0.00  0.00     0.131 NA
ATOM     16  C   UNL d   1      32.488 -17.263   2.147  0.00  0.00     0.756 C 
ATOM     17  N   UNL d   1      31.888 -17.842   1.099  0.00  0.00     0.133 NA
BRANCH  14  18
ATOM     18  N   UNL d   1      31.400 -13.762   1.777  0.00  0.00    -0.213 N 
ATOM     19  C   UNL d   1      30.861 -12.884   0.770  0.00  0.00     0.141 C 
ATOM     20  C   UNL d   1      31.640 -11.555   0.967  0.00  0.00     0.022 C 
ATOM     21  C   UNL d   1      31.675 -11.381   2.461  0.00  0.00     0.022 C 
ATOM     22  C   UNL d   1      31.621 -12.853   2.898  0.00  0.00     0.141 C 
ENDBRANCH  14  18
BRANCH  16  23
ATOM     23  N   UNL d   1      33.453 -18.013   2.836  0.00  0.00    -0.213 N 
ATOM     24  C   UNL d   1      34.884 -17.709   3.022  0.00  0.00     0.141 C 
ATOM     25  C   UNL d   1      35.576 -19.065   2.904  0.00  0.00     0.022 C 
ATOM     26  C   UNL d   1      34.574 -19.998   3.570  0.00  0.00     0.022 C 
ATOM     27  C   UNL d   1      33.182 -19.349   3.342  0.00  0.00     0.141 C 
ENDBRANCH  16  23
ENDBRANCH  10  12
ENDBRANCH   9  10
ENDBRANCH   7   8
BRANCH   1  28
ATOM     28  O   UNL d   1      26.938 -15.031  -2.054  0.00  0.00    -0.348 OA
BRANCH  28  29
ATOM     29  C   UNL d   1      26.305 -13.802  -2.378  0.00  0.00     0.202 C 
BRANCH  29  30
ATOM     30  C   UNL d   1      26.603 -12.571  -1.523  0.00  0.00     0.202 C 
BRANCH  30  31
ATOM     31  O   UNL d   1      27.792 -12.847  -0.712  0.00  0.00    -0.349 OA
BRANCH  31  32
ATOM     32  C   UNL d   1      27.612 -13.205   0.601  0.00  0.00     0.068 C 
ATOM     33  C   UNL d   1      27.170 -12.276   1.537  0.00  0.00     0.037 C 
ATOM     34  C   UNL d   1      27.471 -12.393   2.928  0.00  0.00     0.011 C 
ATOM     35  C   UNL d   1      27.994 -13.581   3.439  0.00  0.00    -0.050 C 
ATOM     36  C   UNL d   1      28.063 -14.636   2.509  0.00  0.00     0.011 C 
ATOM     37  C   UNL d   1      27.953 -14.429   1.109  0.00  0.00     0.037 C 
BRANCH  35  38
ATOM     38  C   UNL d   1      28.364 -13.816   4.925  0.00  0.00    -0.024 C 
ATOM     39  C   UNL d   1      27.785 -15.220   5.096  0.00  0.00     0.019 C 
ATOM     40  C   UNL d   1      27.769 -12.858   5.999  0.00  0.00     0.019 C 
ATOM     41  C   UNL d   1      29.891 -13.857   5.262  0.00  0.00     0.019 C 
ENDBRANCH  35  38
ENDBRANCH  31  32
ENDBRANCH  30  31
ENDBRANCH  29  30
ENDBRANCH  28  29
ENDBRANCH   1  28
TORSDOF 11
ENDMDL
MODEL 9
REMARK VINA RESULT:    -9.227      4.529      8.535
REMARK INTER + INTRA:         -16.185
REMARK INTER:                 -12.509
REMARK INTRA:                  -3.677
REMARK CONF_INDEPENDENT:        3.281
REMARK UNBOUND:                -3.677
REMARK  11 active torsions:
REMARK  status: ('A' for Active; 'I' for Inactive)
REMARK    1  A    between atoms: C_2  and  C_5 
REMARK    2  A    between atoms: C_8  and  O_9 
REMARK    3  A    between atoms: O_9  and  C_10 
REMARK    4  A    between atoms: C_10  and  C_11 
REMARK    5  A    between atoms: C_11  and  O_12 
REMARK    6  A    between atoms: O_12  and  C_13 
REMARK    7  A    between atoms: C_19  and  C_20 
REMARK    8  A    between atoms: N_21  and  N_22 
REMARK    9  A    between atoms: N_22  and  C_23 
REMARK   10  A    between atoms: C_25  and  N_26 
REMARK   11  A    between atoms: C_32  and  N_33 
ROOT
ATOM      1  C   UNL d   1      28.822 -10.818   3.153  0.00  0.00     0.080 A 
ATOM      2  C   UNL d   1      27.863  -9.788   3.342  0.00  0.00     0.039 A 
ATOM      3  C   UNL d   1      27.913  -8.904   4.419  0.00  0.00     0.026 A 
ATOM      4  C   UNL d   1      28.912  -9.065   5.364  0.00  0.00     0.035 A 
ATOM      5 CL   UNL d   1      28.945  -8.011   6.729  0.00  0.00    -0.084 Cl
ATOM      6  C   UNL d   1      29.870 -10.084   5.225  0.00  0.00     0.039 A 
ATOM      7  C   UNL d   1      29.860 -10.983   4.124  0.00  0.00     0.018 A 
ENDROOT
BRANCH   7   8
ATOM      8  C   UNL d   1      30.996 -12.025   4.144  0.00  0.00     0.153 C 
ATOM      9  N   UNL d   1      31.090 -12.936   3.259  0.00  0.00    -0.171 NA
BRANCH   9  10
ATOM     10  N   UNL d   1      31.933 -14.017   3.176  0.00  0.00    -0.105 N 
ATOM     11  H   UNL d   1      32.473 -14.326   3.974  0.00  0.00     0.208 HD
BRANCH  10  12
ATOM     12  C   UNL d   1      31.526 -15.145   2.344  0.00  0.00     0.774 C 
ATOM     13  N   UNL d   1      30.501 -14.988   1.460  0.00  0.00     0.133 NA
ATOM     14  C   UNL d   1      30.204 -15.983   0.605  0.00  0.00     0.756 C 
ATOM     15  N   UNL d   1      31.018 -17.075   0.571  0.00  0.00     0.131 NA
ATOM     16  C   UNL d   1      31.982 -17.234   1.544  0.00  0.00     0.756 C 
ATOM     17  N   UNL d   1      32.245 -16.278   2.444  0.00  0.00     0.133 NA
BRANCH  14  18
ATOM     18  N   UNL d   1      29.039 -15.837  -0.177  0.00  0.00    -0.213 N 
ATOM     19  C   UNL d   1      28.863 -14.870  -1.231  0.00  0.00     0.141 C 
ATOM     20  C   UNL d   1      27.341 -14.565  -1.216  0.00  0.00     0.022 C 
ATOM     21  C   UNL d   1      26.707 -15.919  -1.053  0.00  0.00     0.022 C 
ATOM     22  C   UNL d   1      27.825 -16.641  -0.285  0.00  0.00     0.141 C 
ENDBRANCH  14  18
BRANCH  16  23
ATOM     23  N   UNL d   1      32.655 -18.458   1.683  0.00  0.00    -0.213 N 
ATOM     24  C   UNL d   1      32.767 -19.555   0.704  0.00  0.00     0.141 C 
ATOM     25  C   UNL d   1      32.666 -20.824   1.547  0.00  0.00     0.022 C 
ATOM     26  C   UNL d   1      33.409 -20.429   2.816  0.00  0.00     0.022 C 
ATOM     27  C   UNL d   1      33.219 -18.893   2.951  0.00  0.00     0.141 C 
ENDBRANCH  16  23
ENDBRANCH  10  12
ENDBRANCH   9  10
ENDBRANCH   7   8
BRANCH   1  28
ATOM     28  O   UNL d   1      28.563 -11.445   1.942  0.00  0.00    -0.348 OA
BRANCH  28  29
ATOM     29  C   UNL d   1      27.250 -11.942   1.727  0.00  0.00     0.202 C 
BRANCH  29  30
ATOM     30  C   UNL d   1      26.969 -13.421   1.988  0.00  0.00     0.202 C 
BRANCH  30  31
ATOM     31  O   UNL d   1      28.156 -14.015   2.611  0.00  0.00    -0.349 OA
BRANCH  31  32
ATOM     32  C   UNL d   1      28.209 -14.068   3.982  0.00  0.00     0.068 C 
ATOM     33  C   UNL d   1      27.405 -13.239   4.757  0.00  0.00     0.037 C 
ATOM     34  C   UNL d   1      27.769 -12.846   6.082  0.00  0.00     0.011 C 
ATOM     35  C   UNL d   1      28.811 -13.490   6.746  0.00  0.00    -0.050 C 
ATOM     36  C   UNL d   1      29.349 -14.594   6.059  0.00  0.00     0.011 C 
ATOM     37  C   UNL d   1      29.110 -14.826   4.679  0.00  0.00     0.037 C 
BRANCH  35  38
ATOM     38  C   UNL d   1      29.294 -13.142   8.177  0.00  0.00    -0.024 C 
ATOM     39  C   UNL d   1      30.702 -12.650   7.841  0.00  0.00     0.019 C 
ATOM     40  C   UNL d   1      29.365 -14.281   9.236  0.00  0.00     0.019 C 
ATOM     41  C   UNL d   1      28.523 -11.995   8.910  0.00  0.00     0.019 C 
ENDBRANCH  35  38
ENDBRANCH  31  32
ENDBRANCH  30  31
ENDBRANCH  29  30
ENDBRANCH  28  29
ENDBRANCH   1  28
TORSDOF 11
ENDMDL
