MODEL 1
REMARK VINA RESULT:   -30.138      0.000      0.000
REMARK INTER + INTRA:         -34.501
REMARK INTER:                 -32.226
REMARK INTRA:                  -2.275
REMARK CONF_INDEPENDENT:        2.088
REMARK UNBOUND:                -2.275
REMARK  7 active torsions:
REMARK  status: ('A' for Active; 'I' for Inactive)
REMARK    1  A    between atoms: C_7  and  N_8 
REMARK       I    between atoms: N_8  and  C_9 
REMARK    2  A    between atoms: C_9  and  C_11 
REMARK    3  A    between atoms: C_11  and  N_12 
REMARK    4  A    between atoms: N_15  and  C_16 
REMARK    5  A    between atoms: C_16  and  C_17 
REMARK    6  A    between atoms: C_28  and  C_29 
REMARK       I    between atoms: C_29  and  N_31 
REMARK    7  A    between atoms: N_31  and  N_32 
ROOT
ATOM      1  N   UNL d   1      25.657 -14.323  -1.972  0.00  0.00    -0.283 N 
ATOM      2  C   UNL d   1      26.986 -14.123  -1.563  0.00  0.00     0.333 A 
ATOM      3  O   UNL d   1      27.631 -13.160  -1.991  0.00  0.00    -0.246 OA
ATOM      4  N   UNL d   1      27.520 -14.992  -0.602  0.00  0.00    -0.261 N 
ATOM      5  C   UNL d   1      26.922 -16.106  -0.052  0.00  0.00     0.265 A 
ATOM      6  O   UNL d   1      27.466 -16.825   0.778  0.00  0.00    -0.267 OA
ATOM      7  C   UNL d   1      25.607 -16.382  -0.514  0.00  0.00     0.074 A 
ATOM      8  C   UNL d   1      24.773 -17.520  -0.118  0.00  0.00    -0.021 A 
ATOM      9  C   UNL d   1      25.183 -18.546   0.834  0.00  0.00     0.051 C 
ATOM     10  C   UNL d   1      23.541 -17.564  -0.729  0.00  0.00     0.083 A 
ATOM     11  S   UNL d   1      23.525 -16.206  -1.655  0.00  0.00    -0.065 SA
ATOM     12  C   UNL d   1      25.033 -15.520  -1.410  0.00  0.00     0.098 A 
ENDROOT
BRANCH   1  13
ATOM     13  C   UNL d   1      25.185 -13.169  -2.961  0.00  0.00     0.237 C 
BRANCH  13  14
ATOM     14  C   UNL d   1      26.014 -12.996  -4.184  0.00  0.00     0.240 C 
ATOM     15  N   UNL d   1      27.149 -12.381  -4.547  0.00  0.00    -0.325 N 
ATOM     16  H   UNL d   1      27.712 -11.917  -3.850  0.00  0.00     0.169 HD
ATOM     17  O   UNL d   1      25.508 -13.654  -5.062  0.00  0.00    -0.271 OA
BRANCH  15  18
ATOM     18  C   UNL d   1      27.673 -12.431  -5.942  0.00  0.00     0.040 A 
ATOM     19  C   UNL d   1      27.283 -11.398  -6.781  0.00  0.00     0.030 A 
ATOM     20  C   UNL d   1      27.713 -11.346  -8.126  0.00  0.00     0.002 A 
ATOM     21  C   UNL d   1      28.535 -12.318  -8.689  0.00  0.00     0.001 A 
ATOM     22  C   UNL d   1      28.948 -13.350  -7.907  0.00  0.00     0.009 A 
ATOM     23  C   UNL d   1      28.533 -13.404  -6.574  0.00  0.00    -0.035 A 
ATOM     24  C   UNL d   1      29.142 -14.608  -5.982  0.00  0.00     0.050 C 
ENDBRANCH  15  18
ENDBRANCH  13  14
ENDBRANCH   1  13
BRANCH   4  25
ATOM     25  C   UNL d   1      28.813 -14.691  -0.024  0.00  0.00     0.175 C 
BRANCH  25  26
ATOM     26  C   UNL d   1      28.750 -14.351   1.447  0.00  0.00    -0.040 A 
ATOM     27  C   UNL d   1      27.512 -14.062   2.025  0.00  0.00     0.009 A 
ATOM     28  C   UNL d   1      27.429 -13.810   3.393  0.00  0.00     0.001 A 
ATOM     29  C   UNL d   1      28.574 -13.854   4.192  0.00  0.00     0.000 A 
ATOM     30  C   UNL d   1      29.809 -14.127   3.626  0.00  0.00     0.001 A 
ATOM     31  C   UNL d   1      29.896 -14.336   2.261  0.00  0.00     0.009 A 
ENDBRANCH  25  26
ENDBRANCH   4  25
BRANCH  10  32
ATOM     32  C   UNL d   1      22.375 -18.483  -0.687  0.00  0.00     0.273 C 
ATOM     33  O   UNL d   1      22.429 -19.698  -0.464  0.00  0.00    -0.266 OA
ATOM     34  N   UNL d   1      21.131 -17.890  -0.940  0.00  0.00    -0.289 N 
ATOM     35  H   UNL d   1      21.058 -16.899  -1.070  0.00  0.00     0.183 HD
BRANCH  34  36
ATOM     36  N   UNL d   1      19.904 -18.575  -0.895  0.00  0.00    -0.247 NA
ATOM     37  H   UNL d   1      20.054 -19.525  -1.252  0.00  0.00     0.143 HD
ATOM     38  H   UNL d   1      19.268 -18.120  -1.555  0.00  0.00     0.143 HD
ENDBRANCH  34  36
ENDBRANCH  10  32
TORSDOF 7
ENDMDL
MODEL 2
REMARK VINA RESULT:   -29.968      2.052      3.042
REMARK INTER + INTRA:         -33.812
REMARK INTER:                 -32.056
REMARK INTRA:                  -1.755
REMARK CONF_INDEPENDENT:        2.088
REMARK UNBOUND:                -1.755
REMARK  7 active torsions:
REMARK  status: ('A' for Active; 'I' for Inactive)
REMARK    1  A    between atoms: C_7  and  N_8 
REMARK       I    between atoms: N_8  and  C_9 
REMARK    2  A    between atoms: C_9  and  C_11 
REMARK    3  A    between atoms: C_11  and  N_12 
REMARK    4  A    between atoms: N_15  and  C_16 
REMARK    5  A    between atoms: C_16  and  C_17 
REMARK    6  A    between atoms: C_28  and  C_29 
REMARK       I    between atoms: C_29  and  N_31 
REMARK    7  A    between atoms: N_31  and  N_32 
ROOT
ATOM      1  N   UNL d   1      25.646 -14.465  -2.420  0.00  0.00    -0.283 N 
ATOM      2  C   UNL d   1      27.050 -14.505  -2.401  0.00  0.00     0.333 A 
ATOM      3  O   UNL d   1      27.705 -13.663  -3.024  0.00  0.00    -0.246 OA
ATOM      4  N   UNL d   1      27.674 -15.466  -1.593  0.00  0.00    -0.261 N 
ATOM      5  C   UNL d   1      27.070 -16.465  -0.859  0.00  0.00     0.265 A 
ATOM      6  O   UNL d   1      27.693 -17.279  -0.186  0.00  0.00    -0.267 OA
ATOM      7  C   UNL d   1      25.652 -16.502  -0.930  0.00  0.00     0.074 A 
ATOM      8  C   UNL d   1      24.779 -17.483  -0.279  0.00  0.00    -0.021 A 
ATOM      9  C   UNL d   1      25.257 -18.577   0.559  0.00  0.00     0.051 C 
ATOM     10  C   UNL d   1      23.438 -17.304  -0.525  0.00  0.00     0.083 A 
ATOM     11  S   UNL d   1      23.397 -15.952  -1.459  0.00  0.00    -0.065 SA
ATOM     12  C   UNL d   1      25.008 -15.542  -1.664  0.00  0.00     0.098 A 
ENDROOT
BRANCH   1  13
ATOM     13  C   UNL d   1      25.121 -13.234  -3.281  0.00  0.00     0.237 C 
BRANCH  13  14
ATOM     14  C   UNL d   1      25.879 -12.961  -4.533  0.00  0.00     0.240 C 
ATOM     15  N   UNL d   1      26.472 -11.922  -5.139  0.00  0.00    -0.325 N 
ATOM     16  H   UNL d   1      26.524 -11.031  -4.667  0.00  0.00     0.169 HD
ATOM     17  O   UNL d   1      26.016 -14.012  -5.111  0.00  0.00    -0.271 OA
BRANCH  15  18
ATOM     18  C   UNL d   1      27.149 -12.049  -6.460  0.00  0.00     0.040 A 
ATOM     19  C   UNL d   1      26.765 -11.140  -7.436  0.00  0.00     0.030 A 
ATOM     20  C   UNL d   1      27.335 -11.170  -8.729  0.00  0.00     0.002 A 
ATOM     21  C   UNL d   1      28.295 -12.105  -9.104  0.00  0.00     0.001 A 
ATOM     22  C   UNL d   1      28.707 -13.016  -8.183  0.00  0.00     0.009 A 
ATOM     23  C   UNL d   1      28.155 -12.987  -6.900  0.00  0.00    -0.035 A 
ATOM     24  C   UNL d   1      28.797 -14.066  -6.130  0.00  0.00     0.050 C 
ENDBRANCH  15  18
ENDBRANCH  13  14
ENDBRANCH   1  13
BRANCH   4  25
ATOM     25  C   UNL d   1      29.107 -15.402  -1.405  0.00  0.00     0.175 C 
BRANCH  25  26
ATOM     26  C   UNL d   1      29.845 -16.583  -1.990  0.00  0.00    -0.040 A 
ATOM     27  C   UNL d   1      29.927 -16.712  -3.379  0.00  0.00     0.009 A 
ATOM     28  C   UNL d   1      30.659 -17.760  -3.934  0.00  0.00     0.001 A 
ATOM     29  C   UNL d   1      31.320 -18.676  -3.111  0.00  0.00     0.000 A 
ATOM     30  C   UNL d   1      31.235 -18.564  -1.733  0.00  0.00     0.001 A 
ATOM     31  C   UNL d   1      30.473 -17.547  -1.183  0.00  0.00     0.009 A 
ENDBRANCH  25  26
ENDBRANCH   4  25
BRANCH  10  32
ATOM     32  C   UNL d   1      22.190 -18.007  -0.129  0.00  0.00     0.273 C 
ATOM     33  O   UNL d   1      22.000 -18.572   0.953  0.00  0.00    -0.266 OA
ATOM     34  N   UNL d   1      21.174 -18.020  -1.095  0.00  0.00    -0.289 N 
ATOM     35  H   UNL d   1      21.287 -17.523  -1.958  0.00  0.00     0.183 HD
BRANCH  34  36
ATOM     36  N   UNL d   1      19.903 -18.586  -0.897  0.00  0.00    -0.247 NA
ATOM     37  H   UNL d   1      19.202 -17.845  -0.998  0.00  0.00     0.143 HD
ATOM     38  H   UNL d   1      19.848 -18.899   0.076  0.00  0.00     0.143 HD
ENDBRANCH  34  36
ENDBRANCH  10  32
TORSDOF 7
ENDMDL
MODEL 3
REMARK VINA RESULT:   -29.879      2.210      3.461
REMARK INTER + INTRA:         -34.404
REMARK INTER:                 -31.967
REMARK INTRA:                  -2.437
REMARK CONF_INDEPENDENT:        2.088
REMARK UNBOUND:                -2.437
REMARK  7 active torsions:
REMARK  status: ('A' for Active; 'I' for Inactive)
REMARK    1  A    between atoms: C_7  and  N_8 
REMARK       I    between atoms: N_8  and  C_9 
REMARK    2  A    between atoms: C_9  and  C_11 
REMARK    3  A    between atoms: C_11  and  N_12 
REMARK    4  A    between atoms: N_15  and  C_16 
REMARK    5  A    between atoms: C_16  and  C_17 
REMARK    6  A    between atoms: C_28  and  C_29 
REMARK       I    between atoms: C_29  and  N_31 
REMARK    7  A    between atoms: N_31  and  N_32 
ROOT
ATOM      1  N   UNL d   1      25.761 -14.497  -2.210  0.00  0.00    -0.283 N 
ATOM      2  C   UNL d   1      27.155 -14.635  -2.312  0.00  0.00     0.333 A 
ATOM      3  O   UNL d   1      27.828 -13.760  -2.870  0.00  0.00    -0.246 OA
ATOM      4  N   UNL d   1      27.758 -15.738  -1.693  0.00  0.00    -0.261 N 
ATOM      5  C   UNL d   1      27.133 -16.786  -1.051  0.00  0.00     0.265 A 
ATOM      6  O   UNL d   1      27.736 -17.725  -0.546  0.00  0.00    -0.267 OA
ATOM      7  C   UNL d   1      25.714 -16.716  -1.010  0.00  0.00     0.074 A 
ATOM      8  C   UNL d   1      24.817 -17.717  -0.426  0.00  0.00    -0.021 A 
ATOM      9  C   UNL d   1      25.266 -18.946   0.218  0.00  0.00     0.051 C 
ATOM     10  C   UNL d   1      23.479 -17.415  -0.535  0.00  0.00     0.083 A 
ATOM     11  S   UNL d   1      23.477 -15.947  -1.275  0.00  0.00    -0.065 SA
ATOM     12  C   UNL d   1      25.097 -15.622  -1.555  0.00  0.00     0.098 A 
ENDROOT
BRANCH   1  13
ATOM     13  C   UNL d   1      25.274 -13.126  -2.855  0.00  0.00     0.237 C 
BRANCH  13  14
ATOM     14  C   UNL d   1      25.876 -12.790  -4.174  0.00  0.00     0.240 C 
ATOM     15  N   UNL d   1      26.966 -12.169  -4.649  0.00  0.00    -0.325 N 
ATOM     16  H   UNL d   1      27.677 -11.847  -4.010  0.00  0.00     0.169 HD
ATOM     17  O   UNL d   1      25.175 -13.277  -5.028  0.00  0.00    -0.271 OA
BRANCH  15  18
ATOM     18  C   UNL d   1      27.223 -12.013  -6.109  0.00  0.00     0.040 A 
ATOM     19  C   UNL d   1      26.596 -10.944  -6.731  0.00  0.00     0.030 A 
ATOM     20  C   UNL d   1      26.761 -10.702  -8.114  0.00  0.00     0.002 A 
ATOM     21  C   UNL d   1      27.543 -11.514  -8.930  0.00  0.00     0.001 A 
ATOM     22  C   UNL d   1      28.180 -12.575  -8.367  0.00  0.00     0.009 A 
ATOM     23  C   UNL d   1      28.028 -12.815  -6.999  0.00  0.00    -0.035 A 
ATOM     24  C   UNL d   1      28.837 -14.004  -6.679  0.00  0.00     0.050 C 
ENDBRANCH  15  18
ENDBRANCH  13  14
ENDBRANCH   1  13
BRANCH   4  25
ATOM     25  C   UNL d   1      29.202 -15.798  -1.616  0.00  0.00     0.175 C 
BRANCH  25  26
ATOM     26  C   UNL d   1      29.833 -16.585  -2.740  0.00  0.00    -0.040 A 
ATOM     27  C   UNL d   1      30.605 -17.708  -2.432  0.00  0.00     0.009 A 
ATOM     28  C   UNL d   1      31.140 -18.482  -3.460  0.00  0.00     0.001 A 
ATOM     29  C   UNL d   1      30.901 -18.150  -4.795  0.00  0.00     0.000 A 
ATOM     30  C   UNL d   1      30.147 -17.031  -5.111  0.00  0.00     0.001 A 
ATOM     31  C   UNL d   1      29.651 -16.239  -4.090  0.00  0.00     0.009 A 
ENDBRANCH  25  26
ENDBRANCH   4  25
BRANCH  10  32
ATOM     32  C   UNL d   1      22.212 -18.079  -0.136  0.00  0.00     0.273 C 
ATOM     33  O   UNL d   1      22.009 -18.641   0.946  0.00  0.00    -0.266 OA
ATOM     34  N   UNL d   1      21.192 -18.059  -1.097  0.00  0.00    -0.289 N 
ATOM     35  H   UNL d   1      21.316 -17.563  -1.959  0.00  0.00     0.183 HD
BRANCH  34  36
ATOM     36  N   UNL d   1      19.904 -18.585  -0.895  0.00  0.00    -0.247 NA
ATOM     37  H   UNL d   1      19.223 -17.928  -1.289  0.00  0.00     0.143 HD
ATOM     38  H   UNL d   1      19.730 -18.606   0.113  0.00  0.00     0.143 HD
ENDBRANCH  34  36
ENDBRANCH  10  32
TORSDOF 7
ENDMDL
MODEL 4
REMARK VINA RESULT:   -29.659      3.062      4.424
REMARK INTER + INTRA:         -33.733
REMARK INTER:                 -31.747
REMARK INTRA:                  -1.986
REMARK CONF_INDEPENDENT:        2.088
REMARK UNBOUND:                -1.986
REMARK  7 active torsions:
REMARK  status: ('A' for Active; 'I' for Inactive)
REMARK    1  A    between atoms: C_7  and  N_8 
REMARK       I    between atoms: N_8  and  C_9 
REMARK    2  A    between atoms: C_9  and  C_11 
REMARK    3  A    between atoms: C_11  and  N_12 
REMARK    4  A    between atoms: N_15  and  C_16 
REMARK    5  A    between atoms: C_16  and  C_17 
REMARK    6  A    between atoms: C_28  and  C_29 
REMARK       I    between atoms: C_29  and  N_31 
REMARK    7  A    between atoms: N_31  and  N_32 
ROOT
ATOM      1  N   UNL d   1      25.754 -14.771  -2.683  0.00  0.00    -0.283 N 
ATOM      2  C   UNL d   1      27.156 -14.824  -2.622  0.00  0.00     0.333 A 
ATOM      3  O   UNL d   1      27.838 -14.053  -3.305  0.00  0.00    -0.246 OA
ATOM      4  N   UNL d   1      27.746 -15.710  -1.709  0.00  0.00    -0.261 N 
ATOM      5  C   UNL d   1      27.110 -16.627  -0.900  0.00  0.00     0.265 A 
ATOM      6  O   UNL d   1      27.704 -17.380  -0.136  0.00  0.00    -0.267 OA
ATOM      7  C   UNL d   1      25.694 -16.656  -1.006  0.00  0.00     0.074 A 
ATOM      8  C   UNL d   1      24.791 -17.560  -0.288  0.00  0.00    -0.021 A 
ATOM      9  C   UNL d   1      25.232 -18.573   0.664  0.00  0.00     0.051 C 
ATOM     10  C   UNL d   1      23.459 -17.391  -0.586  0.00  0.00     0.083 A 
ATOM     11  S   UNL d   1      23.461 -16.134  -1.645  0.00  0.00    -0.065 SA
ATOM     12  C   UNL d   1      25.082 -15.764  -1.845  0.00  0.00     0.098 A 
ENDROOT
BRANCH   1  13
ATOM     13  C   UNL d   1      25.269 -13.623  -3.672  0.00  0.00     0.237 C 
BRANCH  13  14
ATOM     14  C   UNL d   1      25.630 -12.237  -3.269  0.00  0.00     0.240 C 
ATOM     15  N   UNL d   1      25.598 -11.001  -3.789  0.00  0.00    -0.325 N 
ATOM     16  H   UNL d   1      25.171 -10.849  -4.692  0.00  0.00     0.169 HD
ATOM     17  O   UNL d   1      26.010 -12.279  -2.124  0.00  0.00    -0.271 OA
BRANCH  15  18
ATOM     18  C   UNL d   1      26.087  -9.807  -3.043  0.00  0.00     0.040 A 
ATOM     19  C   UNL d   1      25.308  -8.664  -3.136  0.00  0.00     0.030 A 
ATOM     20  C   UNL d   1      25.678  -7.470  -2.476  0.00  0.00     0.002 A 
ATOM     21  C   UNL d   1      26.836  -7.364  -1.711  0.00  0.00     0.001 A 
ATOM     22  C   UNL d   1      27.632  -8.457  -1.587  0.00  0.00     0.009 A 
ATOM     23  C   UNL d   1      27.269  -9.644  -2.229  0.00  0.00    -0.035 A 
ATOM     24  C   UNL d   1      28.301 -10.643  -1.904  0.00  0.00     0.050 C 
ENDBRANCH  15  18
ENDBRANCH  13  14
ENDBRANCH   1  13
BRANCH   4  25
ATOM     25  C   UNL d   1      29.175 -15.644  -1.489  0.00  0.00     0.175 C 
BRANCH  25  26
ATOM     26  C   UNL d   1      29.952 -16.685  -2.259  0.00  0.00    -0.040 A 
ATOM     27  C   UNL d   1      29.833 -16.730  -3.651  0.00  0.00     0.009 A 
ATOM     28  C   UNL d   1      30.593 -17.642  -4.381  0.00  0.00     0.001 A 
ATOM     29  C   UNL d   1      31.480 -18.504  -3.732  0.00  0.00     0.000 A 
ATOM     30  C   UNL d   1      31.595 -18.477  -2.352  0.00  0.00     0.001 A 
ATOM     31  C   UNL d   1      30.810 -17.599  -1.624  0.00  0.00     0.009 A 
ENDBRANCH  25  26
ENDBRANCH   4  25
BRANCH  10  32
ATOM     32  C   UNL d   1      22.192 -18.039  -0.159  0.00  0.00     0.273 C 
ATOM     33  O   UNL d   1      21.990 -18.557   0.945  0.00  0.00    -0.266 OA
ATOM     34  N   UNL d   1      21.171 -18.057  -1.120  0.00  0.00    -0.289 N 
ATOM     35  H   UNL d   1      21.295 -17.596  -2.001  0.00  0.00     0.183 HD
BRANCH  34  36
ATOM     36  N   UNL d   1      19.884 -18.575  -0.895  0.00  0.00    -0.247 NA
ATOM     37  H   UNL d   1      19.200 -17.856  -1.152  0.00  0.00     0.143 HD
ATOM     38  H   UNL d   1      19.778 -18.723   0.112  0.00  0.00     0.143 HD
ENDBRANCH  34  36
ENDBRANCH  10  32
TORSDOF 7
ENDMDL
MODEL 5
REMARK VINA RESULT:   -29.476      1.377      2.262
REMARK INTER + INTRA:         -33.844
REMARK INTER:                 -31.564
REMARK INTRA:                  -2.280
REMARK CONF_INDEPENDENT:        2.088
REMARK UNBOUND:                -2.280
REMARK  7 active torsions:
REMARK  status: ('A' for Active; 'I' for Inactive)
REMARK    1  A    between atoms: C_7  and  N_8 
REMARK       I    between atoms: N_8  and  C_9 
REMARK    2  A    between atoms: C_9  and  C_11 
REMARK    3  A    between atoms: C_11  and  N_12 
REMARK    4  A    between atoms: N_15  and  C_16 
REMARK    5  A    between atoms: C_16  and  C_17 
REMARK    6  A    between atoms: C_28  and  C_29 
REMARK       I    between atoms: C_29  and  N_31 
REMARK    7  A    between atoms: N_31  and  N_32 
ROOT
ATOM      1  N   UNL d   1      25.643 -14.311  -1.933  0.00  0.00    -0.283 N 
ATOM      2  C   UNL d   1      26.981 -14.123  -1.548  0.00  0.00     0.333 A 
ATOM      3  O   UNL d   1      27.620 -13.155  -1.974  0.00  0.00    -0.246 OA
ATOM      4  N   UNL d   1      27.531 -15.008  -0.610  0.00  0.00    -0.261 N 
ATOM      5  C   UNL d   1      26.939 -16.126  -0.065  0.00  0.00     0.265 A 
ATOM      6  O   UNL d   1      27.496 -16.860   0.744  0.00  0.00    -0.267 OA
ATOM      7  C   UNL d   1      25.613 -16.391  -0.504  0.00  0.00     0.074 A 
ATOM      8  C   UNL d   1      24.783 -17.532  -0.108  0.00  0.00    -0.021 A 
ATOM      9  C   UNL d   1      25.209 -18.573   0.820  0.00  0.00     0.051 C 
ATOM     10  C   UNL d   1      23.540 -17.562  -0.695  0.00  0.00     0.083 A 
ATOM     11  S   UNL d   1      23.510 -16.191  -1.600  0.00  0.00    -0.065 SA
ATOM     12  C   UNL d   1      25.026 -15.514  -1.376  0.00  0.00     0.098 A 
ENDROOT
BRANCH   1  13
ATOM     13  C   UNL d   1      25.156 -13.141  -2.895  0.00  0.00     0.237 C 
BRANCH  13  14
ATOM     14  C   UNL d   1      25.939 -12.978  -4.150  0.00  0.00     0.240 C 
ATOM     15  N   UNL d   1      27.134 -12.506  -4.531  0.00  0.00    -0.325 N 
ATOM     16  H   UNL d   1      27.797 -12.199  -3.833  0.00  0.00     0.169 HD
ATOM     17  O   UNL d   1      25.294 -13.467  -5.047  0.00  0.00    -0.271 OA
BRANCH  15  18
ATOM     18  C   UNL d   1      27.574 -12.500  -5.955  0.00  0.00     0.040 A 
ATOM     19  C   UNL d   1      27.107 -11.454  -6.737  0.00  0.00     0.030 A 
ATOM     20  C   UNL d   1      27.453 -11.350  -8.103  0.00  0.00     0.002 A 
ATOM     21  C   UNL d   1      28.264 -12.281  -8.745  0.00  0.00     0.001 A 
ATOM     22  C   UNL d   1      28.749 -13.325  -8.022  0.00  0.00     0.009 A 
ATOM     23  C   UNL d   1      28.418 -13.429  -6.668  0.00  0.00    -0.035 A 
ATOM     24  C   UNL d   1      29.092 -14.634  -6.153  0.00  0.00     0.050 C 
ENDBRANCH  15  18
ENDBRANCH  13  14
ENDBRANCH   1  13
BRANCH   4  25
ATOM     25  C   UNL d   1      28.835 -14.720  -0.054  0.00  0.00     0.175 C 
BRANCH  25  26
ATOM     26  C   UNL d   1      29.861 -15.791  -0.338  0.00  0.00    -0.040 A 
ATOM     27  C   UNL d   1      30.956 -15.927   0.519  0.00  0.00     0.009 A 
ATOM     28  C   UNL d   1      31.876 -16.952   0.308  0.00  0.00     0.001 A 
ATOM     29  C   UNL d   1      31.706 -17.851  -0.747  0.00  0.00     0.000 A 
ATOM     30  C   UNL d   1      30.631 -17.717  -1.611  0.00  0.00     0.001 A 
ATOM     31  C   UNL d   1      29.740 -16.674  -1.425  0.00  0.00     0.009 A 
ENDBRANCH  25  26
ENDBRANCH   4  25
BRANCH  10  32
ATOM     32  C   UNL d   1      22.371 -18.478  -0.643  0.00  0.00     0.273 C 
ATOM     33  O   UNL d   1      22.417 -19.683  -0.371  0.00  0.00    -0.266 OA
ATOM     34  N   UNL d   1      21.133 -17.893  -0.946  0.00  0.00    -0.289 N 
ATOM     35  H   UNL d   1      21.065 -16.908  -1.116  0.00  0.00     0.183 HD
BRANCH  34  36
ATOM     36  N   UNL d   1      19.905 -18.575  -0.902  0.00  0.00    -0.247 NA
ATOM     37  H   UNL d   1      19.952 -19.364  -1.555  0.00  0.00     0.143 HD
ATOM     38  H   UNL d   1      19.185 -17.945  -1.266  0.00  0.00     0.143 HD
ENDBRANCH  34  36
ENDBRANCH  10  32
TORSDOF 7
ENDMDL
MODEL 6
REMARK VINA RESULT:   -28.910      2.435      3.243
REMARK INTER + INTRA:         -33.391
REMARK INTER:                 -30.998
REMARK INTRA:                  -2.393
REMARK CONF_INDEPENDENT:        2.088
REMARK UNBOUND:                -2.393
REMARK  7 active torsions:
REMARK  status: ('A' for Active; 'I' for Inactive)
REMARK    1  A    between atoms: C_7  and  N_8 
REMARK       I    between atoms: N_8  and  C_9 
REMARK    2  A    between atoms: C_9  and  C_11 
REMARK    3  A    between atoms: C_11  and  N_12 
REMARK    4  A    between atoms: N_15  and  C_16 
REMARK    5  A    between atoms: C_16  and  C_17 
REMARK    6  A    between atoms: C_28  and  C_29 
REMARK       I    between atoms: C_29  and  N_31 
REMARK    7  A    between atoms: N_31  and  N_32 
ROOT
ATOM      1  N   UNL d   1      25.797 -14.876  -2.654  0.00  0.00    -0.283 N 
ATOM      2  C   UNL d   1      27.194 -14.891  -2.515  0.00  0.00     0.333 A 
ATOM      3  O   UNL d   1      27.897 -14.154  -3.215  0.00  0.00    -0.246 OA
ATOM      4  N   UNL d   1      27.751 -15.692  -1.508  0.00  0.00    -0.261 N 
ATOM      5  C   UNL d   1      27.091 -16.564  -0.669  0.00  0.00     0.265 A 
ATOM      6  O   UNL d   1      27.656 -17.243   0.180  0.00  0.00    -0.267 OA
ATOM      7  C   UNL d   1      25.683 -16.635  -0.848  0.00  0.00     0.074 A 
ATOM      8  C   UNL d   1      24.761 -17.507  -0.115  0.00  0.00    -0.021 A 
ATOM      9  C   UNL d   1      25.169 -18.436   0.932  0.00  0.00     0.051 C 
ATOM     10  C   UNL d   1      23.444 -17.392  -0.496  0.00  0.00     0.083 A 
ATOM     11  S   UNL d   1      23.479 -16.217  -1.644  0.00  0.00    -0.065 SA
ATOM     12  C   UNL d   1      25.100 -15.822  -1.783  0.00  0.00     0.098 A 
ENDROOT
BRANCH   1  13
ATOM     13  C   UNL d   1      25.344 -13.816  -3.751  0.00  0.00     0.237 C 
BRANCH  13  14
ATOM     14  C   UNL d   1      25.682 -12.399  -3.449  0.00  0.00     0.240 C 
ATOM     15  N   UNL d   1      25.616 -11.202  -4.050  0.00  0.00    -0.325 N 
ATOM     16  H   UNL d   1      25.173 -11.120  -4.954  0.00  0.00     0.169 HD
ATOM     17  O   UNL d   1      26.081 -12.356  -2.309  0.00  0.00    -0.271 OA
BRANCH  15  18
ATOM     18  C   UNL d   1      26.092  -9.951  -3.394  0.00  0.00     0.040 A 
ATOM     19  C   UNL d   1      25.177  -8.912  -3.320  0.00  0.00     0.030 A 
ATOM     20  C   UNL d   1      25.520  -7.676  -2.726  0.00  0.00     0.002 A 
ATOM     21  C   UNL d   1      26.781  -7.423  -2.194  0.00  0.00     0.001 A 
ATOM     22  C   UNL d   1      27.713  -8.411  -2.241  0.00  0.00     0.009 A 
ATOM     23  C   UNL d   1      27.379  -9.638  -2.819  0.00  0.00    -0.035 A 
ATOM     24  C   UNL d   1      28.567 -10.503  -2.711  0.00  0.00     0.050 C 
ENDBRANCH  15  18
ENDBRANCH  13  14
ENDBRANCH   1  13
BRANCH   4  25
ATOM     25  C   UNL d   1      29.164 -15.575  -1.217  0.00  0.00     0.175 C 
BRANCH  25  26
ATOM     26  C   UNL d   1      29.491 -14.451  -0.262  0.00  0.00    -0.040 A 
ATOM     27  C   UNL d   1      30.054 -13.275  -0.765  0.00  0.00     0.009 A 
ATOM     28  C   UNL d   1      30.301 -12.205   0.093  0.00  0.00     0.001 A 
ATOM     29  C   UNL d   1      29.979 -12.296   1.449  0.00  0.00     0.000 A 
ATOM     30  C   UNL d   1      29.432 -13.462   1.960  0.00  0.00     0.001 A 
ATOM     31  C   UNL d   1      29.225 -14.539   1.115  0.00  0.00     0.009 A 
ENDBRANCH  25  26
ENDBRANCH   4  25
BRANCH  10  32
ATOM     32  C   UNL d   1      22.169 -18.039  -0.091  0.00  0.00     0.273 C 
ATOM     33  O   UNL d   1      21.926 -18.501   1.029  0.00  0.00    -0.266 OA
ATOM     34  N   UNL d   1      21.193 -18.126  -1.093  0.00  0.00    -0.289 N 
ATOM     35  H   UNL d   1      21.349 -17.711  -1.992  0.00  0.00     0.183 HD
BRANCH  34  36
ATOM     36  N   UNL d   1      19.905 -18.654  -0.898  0.00  0.00    -0.247 NA
ATOM     37  H   UNL d   1      19.222 -17.959  -1.217  0.00  0.00     0.143 HD
ATOM     38  H   UNL d   1      19.759 -18.756   0.109  0.00  0.00     0.143 HD
ENDBRANCH  34  36
ENDBRANCH  10  32
TORSDOF 7
ENDMDL
MODEL 7
REMARK VINA RESULT:   -28.492      1.317      2.002
REMARK INTER + INTRA:         -32.663
REMARK INTER:                 -30.580
REMARK INTRA:                  -2.083
REMARK CONF_INDEPENDENT:        2.088
REMARK UNBOUND:                -2.083
REMARK  7 active torsions:
REMARK  status: ('A' for Active; 'I' for Inactive)
REMARK    1  A    between atoms: C_7  and  N_8 
REMARK       I    between atoms: N_8  and  C_9 
REMARK    2  A    between atoms: C_9  and  C_11 
REMARK    3  A    between atoms: C_11  and  N_12 
REMARK    4  A    between atoms: N_15  and  C_16 
REMARK    5  A    between atoms: C_16  and  C_17 
REMARK    6  A    between atoms: C_28  and  C_29 
REMARK       I    between atoms: C_29  and  N_31 
REMARK    7  A    between atoms: N_31  and  N_32 
ROOT
ATOM      1  N   UNL d   1      26.253 -15.242  -2.373  0.00  0.00    -0.283 N 
ATOM      2  C   UNL d   1      27.488 -14.979  -1.757  0.00  0.00     0.333 A 
ATOM      3  O   UNL d   1      28.299 -14.215  -2.291  0.00  0.00    -0.246 OA
ATOM      4  N   UNL d   1      27.729 -15.535  -0.493  0.00  0.00    -0.261 N 
ATOM      5  C   UNL d   1      26.923 -16.406   0.208  0.00  0.00     0.265 A 
ATOM      6  O   UNL d   1      27.215 -16.860   1.308  0.00  0.00    -0.267 OA
ATOM      7  C   UNL d   1      25.705 -16.759  -0.432  0.00  0.00     0.074 A 
ATOM      8  C   UNL d   1      24.697 -17.692   0.080  0.00  0.00    -0.021 A 
ATOM      9  C   UNL d   1      24.804 -18.396   1.353  0.00  0.00     0.051 C 
ATOM     10  C   UNL d   1      23.614 -17.873  -0.748  0.00  0.00     0.083 A 
ATOM     11  S   UNL d   1      23.920 -16.859  -2.005  0.00  0.00    -0.065 SA
ATOM     12  C   UNL d   1      25.412 -16.188  -1.642  0.00  0.00     0.098 A 
ENDROOT
BRANCH   1  13
ATOM     13  C   UNL d   1      26.107 -14.425  -3.731  0.00  0.00     0.237 C 
BRANCH  13  14
ATOM     14  C   UNL d   1      27.310 -14.422  -4.607  0.00  0.00     0.240 C 
ATOM     15  N   UNL d   1      28.462 -13.746  -4.726  0.00  0.00    -0.325 N 
ATOM     16  H   UNL d   1      28.709 -13.053  -4.035  0.00  0.00     0.169 HD
ATOM     17  O   UNL d   1      27.192 -15.335  -5.389  0.00  0.00    -0.271 OA
BRANCH  15  18
ATOM     18  C   UNL d   1      29.455 -14.042  -5.797  0.00  0.00     0.040 A 
ATOM     19  C   UNL d   1      30.213 -15.191  -5.630  0.00  0.00     0.030 A 
ATOM     20  C   UNL d   1      31.191 -15.567  -6.579  0.00  0.00     0.002 A 
ATOM     21  C   UNL d   1      31.458 -14.816  -7.720  0.00  0.00     0.001 A 
ATOM     22  C   UNL d   1      30.739 -13.682  -7.931  0.00  0.00     0.009 A 
ATOM     23  C   UNL d   1      29.765 -13.308  -7.001  0.00  0.00    -0.035 A 
ATOM     24  C   UNL d   1      29.151 -12.064  -7.498  0.00  0.00     0.050 C 
ENDBRANCH  15  18
ENDBRANCH  13  14
ENDBRANCH   1  13
BRANCH   4  25
ATOM     25  C   UNL d   1      28.904 -15.121   0.244  0.00  0.00     0.175 C 
BRANCH  25  26
ATOM     26  C   UNL d   1      28.615 -14.094   1.313  0.00  0.00    -0.040 A 
ATOM     27  C   UNL d   1      28.504 -12.750   0.949  0.00  0.00     0.009 A 
ATOM     28  C   UNL d   1      28.173 -11.798   1.912  0.00  0.00     0.001 A 
ATOM     29  C   UNL d   1      27.941 -12.181   3.236  0.00  0.00     0.000 A 
ATOM     30  C   UNL d   1      28.060 -13.510   3.609  0.00  0.00     0.001 A 
ATOM     31  C   UNL d   1      28.429 -14.448   2.660  0.00  0.00     0.009 A 
ENDBRANCH  25  26
ENDBRANCH   4  25
BRANCH  10  32
ATOM     32  C   UNL d   1      22.375 -18.692  -0.701  0.00  0.00     0.273 C 
ATOM     33  O   UNL d   1      22.329 -19.907  -0.481  0.00  0.00    -0.266 OA
ATOM     34  N   UNL d   1      21.183 -17.995  -0.946  0.00  0.00    -0.289 N 
ATOM     35  H   UNL d   1      21.193 -17.001  -1.074  0.00  0.00     0.183 HD
BRANCH  34  36
ATOM     36  N   UNL d   1      19.904 -18.576  -0.895  0.00  0.00    -0.247 NA
ATOM     37  H   UNL d   1      19.986 -19.558  -1.177  0.00  0.00     0.143 HD
ATOM     38  H   UNL d   1      19.327 -18.122  -1.607  0.00  0.00     0.143 HD
ENDBRANCH  34  36
ENDBRANCH  10  32
TORSDOF 7
ENDMDL
MODEL 8
REMARK VINA RESULT:   -27.828      3.089      5.873
REMARK INTER + INTRA:         -32.503
REMARK INTER:                 -29.916
REMARK INTRA:                  -2.587
REMARK CONF_INDEPENDENT:        2.088
REMARK UNBOUND:                -2.587
REMARK  7 active torsions:
REMARK  status: ('A' for Active; 'I' for Inactive)
REMARK    1  A    between atoms: C_7  and  N_8 
REMARK       I    between atoms: N_8  and  C_9 
REMARK    2  A    between atoms: C_9  and  C_11 
REMARK    3  A    between atoms: C_11  and  N_12 
REMARK    4  A    between atoms: N_15  and  C_16 
REMARK    5  A    between atoms: C_16  and  C_17 
REMARK    6  A    between atoms: C_28  and  C_29 
REMARK       I    between atoms: C_29  and  N_31 
REMARK    7  A    between atoms: N_31  and  N_32 
ROOT
ATOM      1  N   UNL d   1      27.421 -16.765  -0.779  0.00  0.00    -0.283 N 
ATOM      2  C   UNL d   1      27.940 -15.572  -1.308  0.00  0.00     0.333 A 
ATOM      3  O   UNL d   1      29.161 -15.383  -1.335  0.00  0.00    -0.246 OA
ATOM      4  N   UNL d   1      27.045 -14.654  -1.873  0.00  0.00    -0.261 N 
ATOM      5  C   UNL d   1      25.669 -14.732  -1.901  0.00  0.00     0.265 A 
ATOM      6  O   UNL d   1      24.953 -13.874  -2.406  0.00  0.00    -0.267 OA
ATOM      7  C   UNL d   1      25.111 -15.889  -1.294  0.00  0.00     0.074 A 
ATOM      8  C   UNL d   1      23.683 -16.191  -1.157  0.00  0.00    -0.021 A 
ATOM      9  C   UNL d   1      22.613 -15.329  -1.645  0.00  0.00     0.051 C 
ATOM     10  C   UNL d   1      23.411 -17.374  -0.511  0.00  0.00     0.083 A 
ATOM     11  S   UNL d   1      24.901 -17.993  -0.201  0.00  0.00    -0.065 SA
ATOM     12  C   UNL d   1      25.961 -16.834  -0.783  0.00  0.00     0.098 A 
ENDROOT
BRANCH   1  13
ATOM     13  C   UNL d   1      28.590 -17.735  -0.305  0.00  0.00     0.237 C 
BRANCH  13  14
ATOM     14  C   UNL d   1      29.697 -17.928  -1.280  0.00  0.00     0.240 C 
ATOM     15  N   UNL d   1      30.042 -17.498  -2.503  0.00  0.00    -0.325 N 
ATOM     16  H   UNL d   1      29.484 -16.793  -2.961  0.00  0.00     0.169 HD
ATOM     17  O   UNL d   1      30.518 -18.645  -0.761  0.00  0.00    -0.271 OA
BRANCH  15  18
ATOM     18  C   UNL d   1      31.284 -17.954  -3.189  0.00  0.00     0.040 A 
ATOM     19  C   UNL d   1      32.480 -17.479  -2.671  0.00  0.00     0.030 A 
ATOM     20  C   UNL d   1      33.720 -17.839  -3.245  0.00  0.00     0.002 A 
ATOM     21  C   UNL d   1      33.820 -18.672  -4.355  0.00  0.00     0.001 A 
ATOM     22  C   UNL d   1      32.676 -19.165  -4.899  0.00  0.00     0.009 A 
ATOM     23  C   UNL d   1      31.447 -18.821  -4.332  0.00  0.00    -0.035 A 
ATOM     24  C   UNL d   1      30.404 -19.508  -5.114  0.00  0.00     0.050 C 
ENDBRANCH  15  18
ENDBRANCH  13  14
ENDBRANCH   1  13
BRANCH   4  25
ATOM     25  C   UNL d   1      27.569 -13.514  -2.596  0.00  0.00     0.175 C 
BRANCH  25  26
ATOM     26  C   UNL d   1      28.032 -13.848  -3.994  0.00  0.00    -0.040 A 
ATOM     27  C   UNL d   1      28.030 -12.846  -4.967  0.00  0.00     0.009 A 
ATOM     28  C   UNL d   1      28.515 -13.121  -6.245  0.00  0.00     0.001 A 
ATOM     29  C   UNL d   1      29.013 -14.389  -6.555  0.00  0.00     0.000 A 
ATOM     30  C   UNL d   1      29.008 -15.394  -5.601  0.00  0.00     0.001 A 
ATOM     31  C   UNL d   1      28.488 -15.131  -4.345  0.00  0.00     0.009 A 
ENDBRANCH  25  26
ENDBRANCH   4  25
BRANCH  10  32
ATOM     32  C   UNL d   1      22.176 -18.101  -0.118  0.00  0.00     0.273 C 
ATOM     33  O   UNL d   1      21.992 -18.666   0.965  0.00  0.00    -0.266 OA
ATOM     34  N   UNL d   1      21.165 -18.139  -1.089  0.00  0.00    -0.289 N 
ATOM     35  H   UNL d   1      21.272 -17.643  -1.953  0.00  0.00     0.183 HD
BRANCH  34  36
ATOM     36  N   UNL d   1      19.905 -18.731  -0.895  0.00  0.00    -0.247 NA
ATOM     37  H   UNL d   1      19.189 -18.078  -1.232  0.00  0.00     0.143 HD
ATOM     38  H   UNL d   1      19.755 -18.823   0.113  0.00  0.00     0.143 HD
ENDBRANCH  34  36
ENDBRANCH  10  32
TORSDOF 7
ENDMDL
MODEL 9
REMARK VINA RESULT:   -27.248      2.841      4.275
REMARK INTER + INTRA:         -32.239
REMARK INTER:                 -29.337
REMARK INTRA:                  -2.902
REMARK CONF_INDEPENDENT:        2.088
REMARK UNBOUND:                -2.902
REMARK  7 active torsions:
REMARK  status: ('A' for Active; 'I' for Inactive)
REMARK    1  A    between atoms: C_7  and  N_8 
REMARK       I    between atoms: N_8  and  C_9 
REMARK    2  A    between atoms: C_9  and  C_11 
REMARK    3  A    between atoms: C_11  and  N_12 
REMARK    4  A    between atoms: N_15  and  C_16 
REMARK    5  A    between atoms: C_16  and  C_17 
REMARK    6  A    between atoms: C_28  and  C_29 
REMARK       I    between atoms: C_29  and  N_31 
REMARK    7  A    between atoms: N_31  and  N_32 
ROOT
ATOM      1  N   UNL d   1      26.385 -15.067  -1.969  0.00  0.00    -0.283 N 
ATOM      2  C   UNL d   1      27.656 -15.548  -1.618  0.00  0.00     0.333 A 
ATOM      3  O   UNL d   1      28.671 -14.921  -1.943  0.00  0.00    -0.246 OA
ATOM      4  N   UNL d   1      27.732 -16.700  -0.823  0.00  0.00    -0.261 N 
ATOM      5  C   UNL d   1      26.690 -17.498  -0.401  0.00  0.00     0.265 A 
ATOM      6  O   UNL d   1      26.843 -18.503   0.283  0.00  0.00    -0.267 OA
ATOM      7  C   UNL d   1      25.396 -17.083  -0.817  0.00  0.00     0.074 A 
ATOM      8  C   UNL d   1      24.135 -17.774  -0.537  0.00  0.00    -0.021 A 
ATOM      9  C   UNL d   1      24.029 -19.008   0.233  0.00  0.00     0.051 C 
ATOM     10  C   UNL d   1      23.022 -17.168  -1.072  0.00  0.00     0.083 A 
ATOM     11  S   UNL d   1      23.629 -15.822  -1.794  0.00  0.00    -0.065 SA
ATOM     12  C   UNL d   1      25.282 -15.929  -1.546  0.00  0.00     0.098 A 
ENDROOT
BRANCH   1  13
ATOM     13  C   UNL d   1      26.493 -13.687  -2.755  0.00  0.00     0.237 C 
BRANCH  13  14
ATOM     14  C   UNL d   1      26.979 -12.531  -1.953  0.00  0.00     0.240 C 
ATOM     15  N   UNL d   1      27.962 -12.257  -1.083  0.00  0.00    -0.325 N 
ATOM     16  H   UNL d   1      28.666 -12.954  -0.888  0.00  0.00     0.169 HD
ATOM     17  O   UNL d   1      26.292 -11.579  -2.235  0.00  0.00    -0.271 OA
BRANCH  15  18
ATOM     18  C   UNL d   1      28.118 -10.916  -0.451  0.00  0.00     0.040 A 
ATOM     19  C   UNL d   1      28.570  -9.898  -1.277  0.00  0.00     0.030 A 
ATOM     20  C   UNL d   1      28.762  -8.587  -0.784  0.00  0.00     0.002 A 
ATOM     21  C   UNL d   1      28.524  -8.242   0.543  0.00  0.00     0.001 A 
ATOM     22  C   UNL d   1      28.078  -9.204   1.392  0.00  0.00     0.009 A 
ATOM     23  C   UNL d   1      27.877 -10.500   0.910  0.00  0.00    -0.035 A 
ATOM     24  C   UNL d   1      27.383 -11.308   2.040  0.00  0.00     0.050 C 
ENDBRANCH  15  18
ENDBRANCH  13  14
ENDBRANCH   1  13
BRANCH   4  25
ATOM     25  C   UNL d   1      29.015 -17.101  -0.288  0.00  0.00     0.175 C 
BRANCH  25  26
ATOM     26  C   UNL d   1      29.705 -16.014   0.502  0.00  0.00    -0.040 A 
ATOM     27  C   UNL d   1      31.087 -16.089   0.696  0.00  0.00     0.009 A 
ATOM     28  C   UNL d   1      31.747 -15.060   1.366  0.00  0.00     0.001 A 
ATOM     29  C   UNL d   1      31.040 -13.951   1.835  0.00  0.00     0.000 A 
ATOM     30  C   UNL d   1      29.668 -13.873   1.658  0.00  0.00     0.001 A 
ATOM     31  C   UNL d   1      29.007 -14.914   1.029  0.00  0.00     0.009 A 
ENDBRANCH  25  26
ENDBRANCH   4  25
BRANCH  10  32
ATOM     32  C   UNL d   1      21.566 -17.463  -1.090  0.00  0.00     0.273 C 
ATOM     33  O   UNL d   1      20.670 -16.632  -1.269  0.00  0.00    -0.266 OA
ATOM     34  N   UNL d   1      21.221 -18.803  -0.867  0.00  0.00    -0.289 N 
ATOM     35  H   UNL d   1      21.933 -19.503  -0.772  0.00  0.00     0.183 HD
BRANCH  34  36
ATOM     36  N   UNL d   1      19.905 -19.296  -0.896  0.00  0.00    -0.247 NA
ATOM     37  H   UNL d   1      19.800 -19.883  -1.729  0.00  0.00     0.143 HD
ATOM     38  H   UNL d   1      19.276 -18.499  -1.027  0.00  0.00     0.143 HD
ENDBRANCH  34  36
ENDBRANCH  10  32
TORSDOF 7
ENDMDL
