MODEL 1
REMARK VINA RESULT:    -8.865      0.000      0.000
REMARK INTER + INTRA:         -12.872
REMARK INTER:                 -11.252
REMARK INTRA:                  -1.621
REMARK CONF_INDEPENDENT:        2.386
REMARK UNBOUND:                -1.621
REMARK  8 active torsions:
REMARK  status: ('A' for Active; 'I' for Inactive)
REMARK    1  A    between atoms: C_3  and  C_4 
REMARK       I    between atoms: C_4  and  N_6 
REMARK    2  A    between atoms: N_6  and  C_7 
REMARK    3  A    between atoms: C_14  and  C_15 
REMARK    4  A    between atoms: C_18  and  O_19 
REMARK    5  A    between atoms: C_24  and  C_25 
REMARK    6  A    between atoms: C_25  and  C_26 
REMARK    7  A    between atoms: C_26  and  C_27 
REMARK    8  A    between atoms: C_27  and  O_28 
ROOT
ATOM      1  C   UNL d   1      29.986 -17.440  -0.467  0.00  0.00     0.070 C 
ATOM      2  C   UNL d   1      28.629 -17.169  -1.048  0.00  0.00     0.037 C 
ATOM      3  C   UNL d   1      28.324 -16.454  -2.166  0.00  0.00     0.062 C 
ATOM      4  C   UNL d   1      26.786 -16.325  -2.601  0.00  0.00     0.202 C 
ATOM      5  N   UNL d   1      25.888 -16.988  -1.607  0.00  0.00    -0.083 N 
ATOM      6  N   UNL d   1      24.527 -17.008  -1.648  0.00  0.00    -0.140 NA
ATOM      7  C   UNL d   1      24.224 -17.526  -0.443  0.00  0.00     0.166 A 
ATOM      8  N   UNL d   1      25.311 -17.968   0.272  0.00  0.00    -0.046 NA
ATOM      9  C   UNL d   1      26.324 -17.624  -0.482  0.00  0.00     0.726 A 
ATOM     10  N   UNL d   1      27.637 -17.775  -0.286  0.00  0.00    -0.192 N 
ATOM     11  H   UNL d   1      27.933 -18.358   0.492  0.00  0.00     0.184 HD
ENDROOT
BRANCH   3  12
ATOM     12  C   UNL d   1      29.348 -15.899  -3.165  0.00  0.00     0.256 C 
ATOM     13  O   UNL d   1      30.505 -15.794  -2.811  0.00  0.00    -0.267 OA
ATOM     14  N   UNL d   1      28.960 -15.467  -4.428  0.00  0.00    -0.323 N 
ATOM     15  H   UNL d   1      28.080 -15.059  -4.622  0.00  0.00     0.169 HD
BRANCH  14  16
ATOM     16  C   UNL d   1      29.864 -15.067  -5.425  0.00  0.00     0.041 A 
ATOM     17  C   UNL d   1      29.857 -13.723  -5.830  0.00  0.00     0.030 A 
ATOM     18  C   UNL d   1      30.654 -13.319  -6.897  0.00  0.00     0.002 A 
ATOM     19  C   UNL d   1      31.415 -14.267  -7.577  0.00  0.00     0.001 A 
ATOM     20  C   UNL d   1      31.366 -15.616  -7.210  0.00  0.00     0.009 A 
ATOM     21  C   UNL d   1      30.575 -16.034  -6.139  0.00  0.00    -0.035 A 
ATOM     22  C   UNL d   1      30.404 -17.492  -5.836  0.00  0.00     0.050 C 
ENDBRANCH  14  16
ENDBRANCH   3  12
BRANCH   4  23
ATOM     23  C   UNL d   1      26.304 -14.879  -2.901  0.00  0.00    -0.028 C 
ATOM     24  C   UNL d   1      25.497 -14.610  -4.019  0.00  0.00     0.012 C 
ATOM     25  C   UNL d   1      25.200 -13.311  -4.436  0.00  0.00     0.037 C 
ATOM     26  C   UNL d   1      25.536 -12.249  -3.620  0.00  0.00     0.065 C 
ATOM     27  C   UNL d   1      26.186 -12.477  -2.422  0.00  0.00     0.037 C 
ATOM     28  C   UNL d   1      26.602 -13.771  -2.088  0.00  0.00     0.012 C 
BRANCH  26  29
ATOM     29  O   UNL d   1      25.220 -10.969  -3.952  0.00  0.00    -0.361 OA
ATOM     30  H   UNL d   1      24.952 -10.956  -4.886  0.00  0.00     0.217 HD
ENDBRANCH  26  29
ENDBRANCH   4  23
BRANCH   7  31
ATOM     31  C   UNL d   1      22.832 -17.623   0.106  0.00  0.00     0.085 C 
BRANCH  31  32
ATOM     32  C   UNL d   1      22.151 -18.964  -0.168  0.00  0.00     0.034 C 
BRANCH  32  33
ATOM     33  C   UNL d   1      20.822 -18.814  -0.895  0.00  0.00     0.164 C 
BRANCH  33  34
ATOM     34  O   UNL d   1      20.624 -17.454  -1.267  0.00  0.00    -0.401 OA
ATOM     35  H   UNL d   1      20.007 -17.438  -2.019  0.00  0.00     0.209 HD
ENDBRANCH  33  34
ENDBRANCH  32  33
ENDBRANCH  31  32
ENDBRANCH   7  31
TORSDOF 8
ENDMDL
MODEL 2
REMARK VINA RESULT:    -8.359      6.334      8.059
REMARK INTER + INTRA:         -12.375
REMARK INTER:                 -10.745
REMARK INTRA:                  -1.630
REMARK CONF_INDEPENDENT:        2.386
REMARK UNBOUND:                -1.630
REMARK  8 active torsions:
REMARK  status: ('A' for Active; 'I' for Inactive)
REMARK    1  A    between atoms: C_3  and  C_4 
REMARK       I    between atoms: C_4  and  N_6 
REMARK    2  A    between atoms: N_6  and  C_7 
REMARK    3  A    between atoms: C_14  and  C_15 
REMARK    4  A    between atoms: C_18  and  O_19 
REMARK    5  A    between atoms: C_24  and  C_25 
REMARK    6  A    between atoms: C_25  and  C_26 
REMARK    7  A    between atoms: C_26  and  C_27 
REMARK    8  A    between atoms: C_27  and  O_28 
ROOT
ATOM      1  C   UNL d   1      31.467 -15.053   1.920  0.00  0.00     0.070 C 
ATOM      2  C   UNL d   1      30.368 -14.568   2.820  0.00  0.00     0.037 C 
ATOM      3  C   UNL d   1      29.162 -14.044   2.464  0.00  0.00     0.062 C 
ATOM      4  C   UNL d   1      28.137 -13.616   3.621  0.00  0.00     0.202 C 
ATOM      5  N   UNL d   1      28.743 -13.807   4.974  0.00  0.00    -0.083 N 
ATOM      6  N   UNL d   1      28.162 -13.483   6.162  0.00  0.00    -0.140 NA
ATOM      7  C   UNL d   1      29.185 -13.647   7.021  0.00  0.00     0.166 A 
ATOM      8  N   UNL d   1      30.313 -14.197   6.460  0.00  0.00    -0.046 NA
ATOM      9  C   UNL d   1      30.001 -14.288   5.192  0.00  0.00     0.726 A 
ATOM     10  N   UNL d   1      30.719 -14.728   4.155  0.00  0.00    -0.192 N 
ATOM     11  H   UNL d   1      31.600 -15.195   4.357  0.00  0.00     0.184 HD
ENDROOT
BRANCH   3  12
ATOM     12  C   UNL d   1      28.613 -13.989   1.032  0.00  0.00     0.256 C 
ATOM     13  O   UNL d   1      29.267 -13.423   0.182  0.00  0.00    -0.267 OA
ATOM     14  N   UNL d   1      27.367 -14.520   0.719  0.00  0.00    -0.323 N 
ATOM     15  H   UNL d   1      26.604 -14.535   1.348  0.00  0.00     0.169 HD
BRANCH  14  16
ATOM     16  C   UNL d   1      26.866 -14.610  -0.589  0.00  0.00     0.041 A 
ATOM     17  C   UNL d   1      26.648 -13.421  -1.302  0.00  0.00     0.030 A 
ATOM     18  C   UNL d   1      26.042 -13.467  -2.553  0.00  0.00     0.002 A 
ATOM     19  C   UNL d   1      25.618 -14.693  -3.062  0.00  0.00     0.001 A 
ATOM     20  C   UNL d   1      25.778 -15.866  -2.316  0.00  0.00     0.009 A 
ATOM     21  C   UNL d   1      26.390 -15.834  -1.062  0.00  0.00    -0.035 A 
ATOM     22  C   UNL d   1      26.431 -17.059  -0.199  0.00  0.00     0.050 C 
ENDBRANCH  14  16
ENDBRANCH   3  12
BRANCH   4  23
ATOM     23  C   UNL d   1      27.542 -12.188   3.479  0.00  0.00    -0.028 C 
ATOM     24  C   UNL d   1      26.691 -11.871   2.407  0.00  0.00     0.012 C 
ATOM     25  C   UNL d   1      26.288 -10.562   2.131  0.00  0.00     0.037 C 
ATOM     26  C   UNL d   1      26.562  -9.566   3.045  0.00  0.00     0.065 C 
ATOM     27  C   UNL d   1      27.256  -9.864   4.204  0.00  0.00     0.037 C 
ATOM     28  C   UNL d   1      27.775 -11.149   4.397  0.00  0.00     0.012 C 
BRANCH  26  29
ATOM     29  O   UNL d   1      26.144  -8.287   2.852  0.00  0.00    -0.361 OA
ATOM     30  H   UNL d   1      26.316  -8.049   1.926  0.00  0.00     0.217 HD
ENDBRANCH  26  29
ENDBRANCH   4  23
BRANCH   7  31
ATOM     31  C   UNL d   1      29.136 -13.267   8.471  0.00  0.00     0.085 C 
BRANCH  31  32
ATOM     32  C   UNL d   1      28.539 -11.883   8.728  0.00  0.00     0.034 C 
BRANCH  32  33
ATOM     33  C   UNL d   1      29.257 -10.779   7.964  0.00  0.00     0.164 C 
BRANCH  33  34
ATOM     34  O   UNL d   1      29.270  -9.584   8.737  0.00  0.00    -0.401 OA
ATOM     35  H   UNL d   1      28.964  -9.806   9.633  0.00  0.00     0.209 HD
ENDBRANCH  33  34
ENDBRANCH  32  33
ENDBRANCH  31  32
ENDBRANCH   7  31
TORSDOF 8
ENDMDL
MODEL 3
REMARK VINA RESULT:    -8.253      6.407      8.129
REMARK INTER + INTRA:         -12.686
REMARK INTER:                 -10.640
REMARK INTRA:                  -2.047
REMARK CONF_INDEPENDENT:        2.386
REMARK UNBOUND:                -2.047
REMARK  8 active torsions:
REMARK  status: ('A' for Active; 'I' for Inactive)
REMARK    1  A    between atoms: C_3  and  C_4 
REMARK       I    between atoms: C_4  and  N_6 
REMARK    2  A    between atoms: N_6  and  C_7 
REMARK    3  A    between atoms: C_14  and  C_15 
REMARK    4  A    between atoms: C_18  and  O_19 
REMARK    5  A    between atoms: C_24  and  C_25 
REMARK    6  A    between atoms: C_25  and  C_26 
REMARK    7  A    between atoms: C_26  and  C_27 
REMARK    8  A    between atoms: C_27  and  O_28 
ROOT
ATOM      1  C   UNL d   1      31.415 -15.010   2.234  0.00  0.00     0.070 C 
ATOM      2  C   UNL d   1      30.318 -14.450   3.091  0.00  0.00     0.037 C 
ATOM      3  C   UNL d   1      29.122 -13.935   2.691  0.00  0.00     0.062 C 
ATOM      4  C   UNL d   1      28.095 -13.415   3.808  0.00  0.00     0.202 C 
ATOM      5  N   UNL d   1      28.690 -13.522   5.176  0.00  0.00    -0.083 N 
ATOM      6  N   UNL d   1      28.105 -13.111   6.335  0.00  0.00    -0.140 NA
ATOM      7  C   UNL d   1      29.120 -13.230   7.211  0.00  0.00     0.166 A 
ATOM      8  N   UNL d   1      30.243 -13.832   6.697  0.00  0.00    -0.046 NA
ATOM      9  C   UNL d   1      29.938 -14.005   5.435  0.00  0.00     0.726 A 
ATOM     10  N   UNL d   1      30.658 -14.524   4.436  0.00  0.00    -0.192 N 
ATOM     11  H   UNL d   1      31.530 -14.988   4.676  0.00  0.00     0.184 HD
ENDROOT
BRANCH   3  12
ATOM     12  C   UNL d   1      28.583 -13.970   1.255  0.00  0.00     0.256 C 
ATOM     13  O   UNL d   1      29.219 -13.414   0.383  0.00  0.00    -0.267 OA
ATOM     14  N   UNL d   1      27.364 -14.570   0.958  0.00  0.00    -0.323 N 
ATOM     15  H   UNL d   1      26.597 -14.590   1.582  0.00  0.00     0.169 HD
BRANCH  14  16
ATOM     16  C   UNL d   1      26.879 -14.741  -0.348  0.00  0.00     0.041 A 
ATOM     17  C   UNL d   1      26.625 -13.597  -1.120  0.00  0.00     0.030 A 
ATOM     18  C   UNL d   1      26.033 -13.726  -2.372  0.00  0.00     0.002 A 
ATOM     19  C   UNL d   1      25.658 -14.990  -2.823  0.00  0.00     0.001 A 
ATOM     20  C   UNL d   1      25.853 -16.118  -2.019  0.00  0.00     0.009 A 
ATOM     21  C   UNL d   1      26.451 -16.003  -0.764  0.00  0.00    -0.035 A 
ATOM     22  C   UNL d   1      26.528 -17.182   0.159  0.00  0.00     0.050 C 
ENDBRANCH  14  16
ENDBRANCH   3  12
BRANCH   4  23
ATOM     23  C   UNL d   1      27.522 -11.993   3.566  0.00  0.00    -0.028 C 
ATOM     24  C   UNL d   1      26.665 -11.742   2.480  0.00  0.00     0.012 C 
ATOM     25  C   UNL d   1      26.280 -10.451   2.111  0.00  0.00     0.037 C 
ATOM     26  C   UNL d   1      26.579  -9.394   2.946  0.00  0.00     0.065 C 
ATOM     27  C   UNL d   1      27.279  -9.616   4.117  0.00  0.00     0.037 C 
ATOM     28  C   UNL d   1      27.780 -10.891   4.401  0.00  0.00     0.012 C 
BRANCH  26  29
ATOM     29  O   UNL d   1      26.179  -8.126   2.661  0.00  0.00    -0.361 OA
ATOM     30  H   UNL d   1      26.904  -7.678   2.195  0.00  0.00     0.217 HD
ENDBRANCH  26  29
ENDBRANCH   4  23
BRANCH   7  31
ATOM     31  C   UNL d   1      29.067 -12.752   8.631  0.00  0.00     0.085 C 
BRANCH  31  32
ATOM     32  C   UNL d   1      28.394 -13.735   9.590  0.00  0.00     0.034 C 
BRANCH  32  33
ATOM     33  C   UNL d   1      29.336 -14.831  10.068  0.00  0.00     0.164 C 
BRANCH  33  34
ATOM     34  O   UNL d   1      30.513 -14.844   9.267  0.00  0.00    -0.401 OA
ATOM     35  H   UNL d   1      30.274 -15.200   8.394  0.00  0.00     0.209 HD
ENDBRANCH  33  34
ENDBRANCH  32  33
ENDBRANCH  31  32
ENDBRANCH   7  31
TORSDOF 8
ENDMDL
MODEL 4
REMARK VINA RESULT:    -7.594      3.199      4.807
REMARK INTER + INTRA:         -11.946
REMARK INTER:                  -9.980
REMARK INTRA:                  -1.966
REMARK CONF_INDEPENDENT:        2.386
REMARK UNBOUND:                -1.966
REMARK  8 active torsions:
REMARK  status: ('A' for Active; 'I' for Inactive)
REMARK    1  A    between atoms: C_3  and  C_4 
REMARK       I    between atoms: C_4  and  N_6 
REMARK    2  A    between atoms: N_6  and  C_7 
REMARK    3  A    between atoms: C_14  and  C_15 
REMARK    4  A    between atoms: C_18  and  O_19 
REMARK    5  A    between atoms: C_24  and  C_25 
REMARK    6  A    between atoms: C_25  and  C_26 
REMARK    7  A    between atoms: C_26  and  C_27 
REMARK    8  A    between atoms: C_27  and  O_28 
ROOT
ATOM      1  C   UNL d   1      32.140 -15.618  -1.826  0.00  0.00     0.070 C 
ATOM      2  C   UNL d   1      30.743 -15.683  -1.284  0.00  0.00     0.037 C 
ATOM      3  C   UNL d   1      29.611 -16.083  -1.928  0.00  0.00     0.062 C 
ATOM      4  C   UNL d   1      28.225 -16.085  -1.120  0.00  0.00     0.202 C 
ATOM      5  N   UNL d   1      28.408 -15.547   0.262  0.00  0.00    -0.083 N 
ATOM      6  N   UNL d   1      27.422 -15.358   1.183  0.00  0.00    -0.140 NA
ATOM      7  C   UNL d   1      28.070 -14.670   2.141  0.00  0.00     0.166 A 
ATOM      8  N   UNL d   1      29.424 -14.556   1.939  0.00  0.00    -0.046 NA
ATOM      9  C   UNL d   1      29.599 -15.116   0.768  0.00  0.00     0.726 A 
ATOM     10  N   UNL d   1      30.711 -15.276   0.044  0.00  0.00    -0.192 N 
ATOM     11  H   UNL d   1      31.599 -15.063   0.492  0.00  0.00     0.184 HD
ENDROOT
BRANCH   3  12
ATOM     12  C   UNL d   1      29.568 -16.711  -3.327  0.00  0.00     0.256 C 
ATOM     13  O   UNL d   1      28.729 -16.321  -4.113  0.00  0.00    -0.267 OA
ATOM     14  N   UNL d   1      30.427 -17.747  -3.677  0.00  0.00    -0.323 N 
ATOM     15  H   UNL d   1      30.756 -18.426  -3.038  0.00  0.00     0.169 HD
BRANCH  14  16
ATOM     16  C   UNL d   1      30.520 -18.276  -4.974  0.00  0.00     0.041 A 
ATOM     17  C   UNL d   1      30.405 -19.665  -5.137  0.00  0.00     0.030 A 
ATOM     18  C   UNL d   1      30.611 -20.234  -6.389  0.00  0.00     0.002 A 
ATOM     19  C   UNL d   1      30.973 -19.417  -7.459  0.00  0.00     0.001 A 
ATOM     20  C   UNL d   1      31.151 -18.041  -7.274  0.00  0.00     0.009 A 
ATOM     21  C   UNL d   1      30.942 -17.458  -6.024  0.00  0.00    -0.035 A 
ATOM     22  C   UNL d   1      31.273 -16.015  -5.787  0.00  0.00     0.050 C 
ENDBRANCH  14  16
ENDBRANCH   3  12
BRANCH   4  23
ATOM     23  C   UNL d   1      27.043 -15.377  -1.837  0.00  0.00    -0.028 C 
ATOM     24  C   UNL d   1      25.721 -15.808  -1.633  0.00  0.00     0.012 C 
ATOM     25  C   UNL d   1      24.651 -15.333  -2.395  0.00  0.00     0.037 C 
ATOM     26  C   UNL d   1      24.851 -14.262  -3.242  0.00  0.00     0.065 C 
ATOM     27  C   UNL d   1      26.105 -13.692  -3.351  0.00  0.00     0.037 C 
ATOM     28  C   UNL d   1      27.195 -14.269  -2.689  0.00  0.00     0.012 C 
BRANCH  26  29
ATOM     29  O   UNL d   1      23.831 -13.726  -3.964  0.00  0.00    -0.361 OA
ATOM     30  H   UNL d   1      24.003 -13.899  -4.904  0.00  0.00     0.217 HD
ENDBRANCH  26  29
ENDBRANCH   4  23
BRANCH   7  31
ATOM     31  C   UNL d   1      27.402 -14.059   3.336  0.00  0.00     0.085 C 
BRANCH  31  32
ATOM     32  C   UNL d   1      28.375 -13.431   4.335  0.00  0.00     0.034 C 
BRANCH  32  33
ATOM     33  C   UNL d   1      28.979 -14.450   5.291  0.00  0.00     0.164 C 
BRANCH  33  34
ATOM     34  O   UNL d   1      30.005 -15.185   4.632  0.00  0.00    -0.401 OA
ATOM     35  H   UNL d   1      29.621 -15.575   3.828  0.00  0.00     0.209 HD
ENDBRANCH  33  34
ENDBRANCH  32  33
ENDBRANCH  31  32
ENDBRANCH   7  31
TORSDOF 8
ENDMDL
MODEL 5
REMARK VINA RESULT:    -7.518      3.395      5.579
REMARK INTER + INTRA:         -12.017
REMARK INTER:                  -9.904
REMARK INTRA:                  -2.113
REMARK CONF_INDEPENDENT:        2.386
REMARK UNBOUND:                -2.113
REMARK  8 active torsions:
REMARK  status: ('A' for Active; 'I' for Inactive)
REMARK    1  A    between atoms: C_3  and  C_4 
REMARK       I    between atoms: C_4  and  N_6 
REMARK    2  A    between atoms: N_6  and  C_7 
REMARK    3  A    between atoms: C_14  and  C_15 
REMARK    4  A    between atoms: C_18  and  O_19 
REMARK    5  A    between atoms: C_24  and  C_25 
REMARK    6  A    between atoms: C_25  and  C_26 
REMARK    7  A    between atoms: C_26  and  C_27 
REMARK    8  A    between atoms: C_27  and  O_28 
ROOT
ATOM      1  C   UNL d   1      29.088 -12.652  -2.479  0.00  0.00     0.070 C 
ATOM      2  C   UNL d   1      28.726 -13.613  -1.384  0.00  0.00     0.037 C 
ATOM      3  C   UNL d   1      28.437 -14.939  -1.495  0.00  0.00     0.062 C 
ATOM      4  C   UNL d   1      28.100 -15.768  -0.164  0.00  0.00     0.202 C 
ATOM      5  N   UNL d   1      28.089 -14.876   1.036  0.00  0.00    -0.083 N 
ATOM      6  N   UNL d   1      27.780 -15.253   2.308  0.00  0.00    -0.140 NA
ATOM      7  C   UNL d   1      27.709 -14.064   2.936  0.00  0.00     0.166 A 
ATOM      8  N   UNL d   1      28.104 -12.995   2.169  0.00  0.00    -0.046 NA
ATOM      9  C   UNL d   1      28.338 -13.536   0.999  0.00  0.00     0.726 A 
ATOM     10  N   UNL d   1      28.728 -12.976  -0.149  0.00  0.00    -0.192 N 
ATOM     11  H   UNL d   1      29.026 -12.004  -0.122  0.00  0.00     0.184 HD
ENDROOT
BRANCH   3  12
ATOM     12  C   UNL d   1      28.579 -15.768  -2.779  0.00  0.00     0.256 C 
ATOM     13  O   UNL d   1      27.594 -15.947  -3.465  0.00  0.00    -0.267 OA
ATOM     14  N   UNL d   1      29.790 -16.356  -3.125  0.00  0.00    -0.323 N 
ATOM     15  H   UNL d   1      30.448 -16.686  -2.465  0.00  0.00     0.169 HD
BRANCH  14  16
ATOM     16  C   UNL d   1      30.013 -17.019  -4.342  0.00  0.00     0.041 A 
ATOM     17  C   UNL d   1      30.405 -18.367  -4.305  0.00  0.00     0.030 A 
ATOM     18  C   UNL d   1      30.750 -19.018  -5.485  0.00  0.00     0.002 A 
ATOM     19  C   UNL d   1      30.743 -18.309  -6.684  0.00  0.00     0.001 A 
ATOM     20  C   UNL d   1      30.415 -16.949  -6.704  0.00  0.00     0.009 A 
ATOM     21  C   UNL d   1      30.062 -16.284  -5.528  0.00  0.00    -0.035 A 
ATOM     22  C   UNL d   1      29.855 -14.800  -5.521  0.00  0.00     0.050 C 
ENDBRANCH  14  16
ENDBRANCH   3  12
BRANCH   4  23
ATOM     23  C   UNL d   1      26.805 -16.622  -0.229  0.00  0.00    -0.028 C 
ATOM     24  C   UNL d   1      25.703 -16.195  -0.988  0.00  0.00     0.012 C 
ATOM     25  C   UNL d   1      24.458 -16.826  -0.925  0.00  0.00     0.037 C 
ATOM     26  C   UNL d   1      24.345 -18.026  -0.255  0.00  0.00     0.065 C 
ATOM     27  C   UNL d   1      25.449 -18.575   0.370  0.00  0.00     0.037 C 
ATOM     28  C   UNL d   1      26.652 -17.861   0.418  0.00  0.00     0.012 C 
BRANCH  26  29
ATOM     29  O   UNL d   1      23.170 -18.709  -0.210  0.00  0.00    -0.361 OA
ATOM     30  H   UNL d   1      23.293 -19.486   0.359  0.00  0.00     0.217 HD
ENDBRANCH  26  29
ENDBRANCH   4  23
BRANCH   7  31
ATOM     31  C   UNL d   1      27.237 -13.885   4.348  0.00  0.00     0.085 C 
BRANCH  31  32
ATOM     32  C   UNL d   1      28.366 -13.645   5.351  0.00  0.00     0.034 C 
BRANCH  32  33
ATOM     33  C   UNL d   1      29.355 -14.800   5.414  0.00  0.00     0.164 C 
BRANCH  33  34
ATOM     34  O   UNL d   1      30.093 -14.874   4.198  0.00  0.00    -0.401 OA
ATOM     35  H   UNL d   1      29.568 -15.391   3.563  0.00  0.00     0.209 HD
ENDBRANCH  33  34
ENDBRANCH  32  33
ENDBRANCH  31  32
ENDBRANCH   7  31
TORSDOF 8
ENDMDL
MODEL 6
REMARK VINA RESULT:    -7.032      4.205      7.902
REMARK INTER + INTRA:         -11.482
REMARK INTER:                  -9.419
REMARK INTRA:                  -2.063
REMARK CONF_INDEPENDENT:        2.386
REMARK UNBOUND:                -2.063
REMARK  8 active torsions:
REMARK  status: ('A' for Active; 'I' for Inactive)
REMARK    1  A    between atoms: C_3  and  C_4 
REMARK       I    between atoms: C_4  and  N_6 
REMARK    2  A    between atoms: N_6  and  C_7 
REMARK    3  A    between atoms: C_14  and  C_15 
REMARK    4  A    between atoms: C_18  and  O_19 
REMARK    5  A    between atoms: C_24  and  C_25 
REMARK    6  A    between atoms: C_25  and  C_26 
REMARK    7  A    between atoms: C_26  and  C_27 
REMARK    8  A    between atoms: C_27  and  O_28 
ROOT
ATOM      1  C   UNL d   1      31.716 -15.287   1.771  0.00  0.00     0.070 C 
ATOM      2  C   UNL d   1      30.715 -15.476   0.670  0.00  0.00     0.037 C 
ATOM      3  C   UNL d   1      29.375 -15.230   0.703  0.00  0.00     0.062 C 
ATOM      4  C   UNL d   1      28.511 -15.492  -0.622  0.00  0.00     0.202 C 
ATOM      5  N   UNL d   1      29.359 -16.063  -1.712  0.00  0.00    -0.083 N 
ATOM      6  N   UNL d   1      28.923 -16.454  -2.942  0.00  0.00    -0.140 NA
ATOM      7  C   UNL d   1      30.010 -17.078  -3.433  0.00  0.00     0.166 A 
ATOM      8  N   UNL d   1      31.132 -16.962  -2.648  0.00  0.00    -0.046 NA
ATOM      9  C   UNL d   1      30.693 -16.322  -1.593  0.00  0.00     0.726 A 
ATOM     10  N   UNL d   1      31.333 -15.949  -0.481  0.00  0.00    -0.192 N 
ATOM     11  H   UNL d   1      32.345 -16.040  -0.468  0.00  0.00     0.184 HD
ENDROOT
BRANCH   3  12
ATOM     12  C   UNL d   1      28.633 -14.546   1.859  0.00  0.00     0.256 C 
ATOM     13  O   UNL d   1      27.432 -14.698   1.948  0.00  0.00    -0.267 OA
ATOM     14  N   UNL d   1      29.302 -13.720   2.755  0.00  0.00    -0.323 N 
ATOM     15  H   UNL d   1      30.081 -13.163   2.510  0.00  0.00     0.169 HD
BRANCH  14  16
ATOM     16  C   UNL d   1      28.705 -13.168   3.899  0.00  0.00     0.041 A 
ATOM     17  C   UNL d   1      28.266 -11.835   3.845  0.00  0.00     0.030 A 
ATOM     18  C   UNL d   1      27.781 -11.221   4.995  0.00  0.00     0.002 A 
ATOM     19  C   UNL d   1      27.778 -11.926   6.196  0.00  0.00     0.001 A 
ATOM     20  C   UNL d   1      28.279 -13.231   6.256  0.00  0.00     0.009 A 
ATOM     21  C   UNL d   1      28.764 -13.861   5.109  0.00  0.00    -0.035 A 
ATOM     22  C   UNL d   1      29.434 -15.199   5.196  0.00  0.00     0.050 C 
ENDBRANCH  14  16
ENDBRANCH   3  12
BRANCH   4  23
ATOM     23  C   UNL d   1      27.229 -16.343  -0.417  0.00  0.00    -0.028 C 
ATOM     24  C   UNL d   1      27.283 -17.560   0.283  0.00  0.00     0.012 C 
ATOM     25  C   UNL d   1      26.205 -18.448   0.329  0.00  0.00     0.037 C 
ATOM     26  C   UNL d   1      24.978 -18.042  -0.154  0.00  0.00     0.065 C 
ATOM     27  C   UNL d   1      24.834 -16.782  -0.703  0.00  0.00     0.037 C 
ATOM     28  C   UNL d   1      25.954 -15.960  -0.870  0.00  0.00     0.012 C 
BRANCH  26  29
ATOM     29  O   UNL d   1      23.884 -18.846  -0.084  0.00  0.00    -0.361 OA
ATOM     30  H   UNL d   1      23.645 -18.950   0.852  0.00  0.00     0.217 HD
ENDBRANCH  26  29
ENDBRANCH   4  23
BRANCH   7  31
ATOM     31  C   UNL d   1      30.029 -17.848  -4.720  0.00  0.00     0.085 C 
BRANCH  31  32
ATOM     32  C   UNL d   1      30.033 -16.966  -5.969  0.00  0.00     0.034 C 
BRANCH  32  33
ATOM     33  C   UNL d   1      29.538 -15.553  -5.695  0.00  0.00     0.164 C 
BRANCH  33  34
ATOM     34  O   UNL d   1      28.138 -15.571  -5.436  0.00  0.00    -0.401 OA
ATOM     35  H   UNL d   1      27.950 -16.337  -4.868  0.00  0.00     0.209 HD
ENDBRANCH  33  34
ENDBRANCH  32  33
ENDBRANCH  31  32
ENDBRANCH   7  31
TORSDOF 8
ENDMDL
MODEL 7
REMARK VINA RESULT:    -7.024      2.568      8.463
REMARK INTER + INTRA:         -11.833
REMARK INTER:                  -9.410
REMARK INTRA:                  -2.423
REMARK CONF_INDEPENDENT:        2.386
REMARK UNBOUND:                -2.423
REMARK  8 active torsions:
REMARK  status: ('A' for Active; 'I' for Inactive)
REMARK    1  A    between atoms: C_3  and  C_4 
REMARK       I    between atoms: C_4  and  N_6 
REMARK    2  A    between atoms: N_6  and  C_7 
REMARK    3  A    between atoms: C_14  and  C_15 
REMARK    4  A    between atoms: C_18  and  O_19 
REMARK    5  A    between atoms: C_24  and  C_25 
REMARK    6  A    between atoms: C_25  and  C_26 
REMARK    7  A    between atoms: C_26  and  C_27 
REMARK    8  A    between atoms: C_27  and  O_28 
ROOT
ATOM      1  C   UNL d   1      25.530 -11.933  -3.700  0.00  0.00     0.070 C 
ATOM      2  C   UNL d   1      26.427 -12.598  -4.703  0.00  0.00     0.037 C 
ATOM      3  C   UNL d   1      26.710 -13.925  -4.824  0.00  0.00     0.062 C 
ATOM      4  C   UNL d   1      27.689 -14.399  -6.003  0.00  0.00     0.202 C 
ATOM      5  N   UNL d   1      28.214 -13.227  -6.769  0.00  0.00    -0.083 N 
ATOM      6  N   UNL d   1      29.112 -13.279  -7.792  0.00  0.00    -0.140 NA
ATOM      7  C   UNL d   1      29.399 -11.976  -7.971  0.00  0.00     0.166 A 
ATOM      8  N   UNL d   1      28.622 -11.118  -7.230  0.00  0.00    -0.046 NA
ATOM      9  C   UNL d   1      27.895 -11.928  -6.502  0.00  0.00     0.726 A 
ATOM     10  N   UNL d   1      26.972 -11.662  -5.573  0.00  0.00    -0.192 N 
ATOM     11  H   UNL d   1      26.663 -10.698  -5.479  0.00  0.00     0.184 HD
ENDROOT
BRANCH   3  12
ATOM     12  C   UNL d   1      26.028 -15.048  -4.033  0.00  0.00     0.256 C 
ATOM     13  O   UNL d   1      25.496 -15.950  -4.647  0.00  0.00    -0.267 OA
ATOM     14  N   UNL d   1      25.961 -15.012  -2.645  0.00  0.00    -0.323 N 
ATOM     15  H   UNL d   1      25.899 -14.176  -2.120  0.00  0.00     0.169 HD
BRANCH  14  16
ATOM     16  C   UNL d   1      25.462 -16.065  -1.862  0.00  0.00     0.041 A 
ATOM     17  C   UNL d   1      24.076 -16.135  -1.645  0.00  0.00     0.030 A 
ATOM     18  C   UNL d   1      23.561 -17.093  -0.778  0.00  0.00     0.002 A 
ATOM     19  C   UNL d   1      24.434 -17.942  -0.102  0.00  0.00     0.001 A 
ATOM     20  C   UNL d   1      25.817 -17.822  -0.272  0.00  0.00     0.009 A 
ATOM     21  C   UNL d   1      26.347 -16.869  -1.143  0.00  0.00    -0.035 A 
ATOM     22  C   UNL d   1      27.827 -16.639  -1.217  0.00  0.00     0.050 C 
ENDBRANCH  14  16
ENDBRANCH   3  12
BRANCH   4  23
ATOM     23  C   UNL d   1      28.848 -15.333  -5.562  0.00  0.00    -0.028 C 
ATOM     24  C   UNL d   1      29.670 -15.954  -6.519  0.00  0.00     0.012 C 
ATOM     25  C   UNL d   1      30.595 -16.945  -6.183  0.00  0.00     0.037 C 
ATOM     26  C   UNL d   1      30.863 -17.193  -4.852  0.00  0.00     0.065 C 
ATOM     27  C   UNL d   1      30.198 -16.484  -3.870  0.00  0.00     0.037 C 
ATOM     28  C   UNL d   1      29.173 -15.597  -4.220  0.00  0.00     0.012 C 
BRANCH  26  29
ATOM     29  O   UNL d   1      31.795 -18.108  -4.472  0.00  0.00    -0.361 OA
ATOM     30  H   UNL d   1      32.229 -17.781  -3.667  0.00  0.00     0.217 HD
ENDBRANCH  26  29
ENDBRANCH   4  23
BRANCH   7  31
ATOM     31  C   UNL d   1      30.473 -11.468  -8.886  0.00  0.00     0.085 C 
BRANCH  31  32
ATOM     32  C   UNL d   1      31.884 -11.891  -8.478  0.00  0.00     0.034 C 
BRANCH  32  33
ATOM     33  C   UNL d   1      32.297 -13.228  -9.078  0.00  0.00     0.164 C 
BRANCH  33  34
ATOM     34  O   UNL d   1      31.637 -14.290  -8.396  0.00  0.00    -0.401 OA
ATOM     35  H   UNL d   1      30.710 -14.300  -8.688  0.00  0.00     0.209 HD
ENDBRANCH  33  34
ENDBRANCH  32  33
ENDBRANCH  31  32
ENDBRANCH   7  31
TORSDOF 8
ENDMDL
MODEL 8
REMARK VINA RESULT:    -6.881      3.426      6.801
REMARK INTER + INTRA:         -11.321
REMARK INTER:                  -9.267
REMARK INTRA:                  -2.054
REMARK CONF_INDEPENDENT:        2.386
REMARK UNBOUND:                -2.054
REMARK  8 active torsions:
REMARK  status: ('A' for Active; 'I' for Inactive)
REMARK    1  A    between atoms: C_3  and  C_4 
REMARK       I    between atoms: C_4  and  N_6 
REMARK    2  A    between atoms: N_6  and  C_7 
REMARK    3  A    between atoms: C_14  and  C_15 
REMARK    4  A    between atoms: C_18  and  O_19 
REMARK    5  A    between atoms: C_24  and  C_25 
REMARK    6  A    between atoms: C_25  and  C_26 
REMARK    7  A    between atoms: C_26  and  C_27 
REMARK    8  A    between atoms: C_27  and  O_28 
ROOT
ATOM      1  C   UNL d   1      27.425 -16.512  -0.951  0.00  0.00     0.070 C 
ATOM      2  C   UNL d   1      28.710 -17.015  -1.542  0.00  0.00     0.037 C 
ATOM      3  C   UNL d   1      29.212 -16.775  -2.785  0.00  0.00     0.062 C 
ATOM      4  C   UNL d   1      30.630 -17.411  -3.179  0.00  0.00     0.202 C 
ATOM      5  N   UNL d   1      31.159 -18.271  -2.077  0.00  0.00    -0.083 N 
ATOM      6  N   UNL d   1      32.307 -19.001  -2.114  0.00  0.00    -0.140 NA
ATOM      7  C   UNL d   1      32.201 -19.737  -0.992  0.00  0.00     0.166 A 
ATOM      8  N   UNL d   1      31.139 -19.395  -0.190  0.00  0.00    -0.046 NA
ATOM      9  C   UNL d   1      30.519 -18.479  -0.891  0.00  0.00     0.726 A 
ATOM     10  N   UNL d   1      29.400 -17.799  -0.625  0.00  0.00    -0.192 N 
ATOM     11  H   UNL d   1      29.012 -17.879   0.312  0.00  0.00     0.184 HD
ENDROOT
BRANCH   3  12
ATOM     12  C   UNL d   1      28.618 -15.788  -3.800  0.00  0.00     0.256 C 
ATOM     13  O   UNL d   1      28.586 -16.109  -4.970  0.00  0.00    -0.267 OA
ATOM     14  N   UNL d   1      28.181 -14.529  -3.407  0.00  0.00    -0.323 N 
ATOM     15  H   UNL d   1      28.588 -14.012  -2.669  0.00  0.00     0.169 HD
BRANCH  14  16
ATOM     16  C   UNL d   1      27.518 -13.634  -4.262  0.00  0.00     0.041 A 
ATOM     17  C   UNL d   1      28.293 -12.781  -5.064  0.00  0.00     0.030 A 
ATOM     18  C   UNL d   1      27.672 -11.802  -5.832  0.00  0.00     0.002 A 
ATOM     19  C   UNL d   1      26.288 -11.653  -5.759  0.00  0.00     0.001 A 
ATOM     20  C   UNL d   1      25.530 -12.462  -4.907  0.00  0.00     0.009 A 
ATOM     21  C   UNL d   1      26.140 -13.452  -4.135  0.00  0.00    -0.035 A 
ATOM     22  C   UNL d   1      25.355 -14.219  -3.114  0.00  0.00     0.050 C 
ENDBRANCH  14  16
ENDBRANCH   3  12
BRANCH   4  23
ATOM     23  C   UNL d   1      30.659 -18.170  -4.533  0.00  0.00    -0.028 C 
ATOM     24  C   UNL d   1      30.973 -17.496  -5.726  0.00  0.00     0.012 C 
ATOM     25  C   UNL d   1      30.825 -18.086  -6.983  0.00  0.00     0.037 C 
ATOM     26  C   UNL d   1      30.556 -19.437  -7.065  0.00  0.00     0.065 C 
ATOM     27  C   UNL d   1      30.404 -20.182  -5.911  0.00  0.00     0.037 C 
ATOM     28  C   UNL d   1      30.414 -19.549  -4.663  0.00  0.00     0.012 C 
BRANCH  26  29
ATOM     29  O   UNL d   1      30.458 -20.072  -8.263  0.00  0.00    -0.361 OA
ATOM     30  H   UNL d   1      29.586 -19.872  -8.641  0.00  0.00     0.217 HD
ENDBRANCH  26  29
ENDBRANCH   4  23
BRANCH   7  31
ATOM     31  C   UNL d   1      33.139 -20.846  -0.620  0.00  0.00     0.085 C 
BRANCH  31  32
ATOM     32  C   UNL d   1      32.834 -21.486   0.735  0.00  0.00     0.034 C 
BRANCH  32  33
ATOM     33  C   UNL d   1      31.613 -22.394   0.698  0.00  0.00     0.164 C 
BRANCH  33  34
ATOM     34  O   UNL d   1      30.537 -21.790   1.408  0.00  0.00    -0.401 OA
ATOM     35  H   UNL d   1      30.657 -20.826   1.366  0.00  0.00     0.209 HD
ENDBRANCH  33  34
ENDBRANCH  32  33
ENDBRANCH  31  32
ENDBRANCH   7  31
TORSDOF 8
ENDMDL
MODEL 9
REMARK VINA RESULT:    -6.629      5.471      7.692
REMARK INTER + INTRA:         -11.222
REMARK INTER:                  -9.016
REMARK INTRA:                  -2.206
REMARK CONF_INDEPENDENT:        2.386
REMARK UNBOUND:                -2.206
REMARK  8 active torsions:
REMARK  status: ('A' for Active; 'I' for Inactive)
REMARK    1  A    between atoms: C_3  and  C_4 
REMARK       I    between atoms: C_4  and  N_6 
REMARK    2  A    between atoms: N_6  and  C_7 
REMARK    3  A    between atoms: C_14  and  C_15 
REMARK    4  A    between atoms: C_18  and  O_19 
REMARK    5  A    between atoms: C_24  and  C_25 
REMARK    6  A    between atoms: C_25  and  C_26 
REMARK    7  A    between atoms: C_26  and  C_27 
REMARK    8  A    between atoms: C_27  and  O_28 
ROOT
ATOM      1  C   UNL d   1      29.649 -14.828  -0.280  0.00  0.00     0.070 C 
ATOM      2  C   UNL d   1      28.897 -14.275   0.894  0.00  0.00     0.037 C 
ATOM      3  C   UNL d   1      27.878 -13.370   0.887  0.00  0.00     0.062 C 
ATOM      4  C   UNL d   1      27.213 -12.948   2.283  0.00  0.00     0.202 C 
ATOM      5  N   UNL d   1      27.912 -13.602   3.431  0.00  0.00    -0.083 N 
ATOM      6  N   UNL d   1      27.635 -13.409   4.750  0.00  0.00    -0.140 NA
ATOM      7  C   UNL d   1      28.665 -14.041   5.343  0.00  0.00     0.166 A 
ATOM      8  N   UNL d   1      29.473 -14.740   4.478  0.00  0.00    -0.046 NA
ATOM      9  C   UNL d   1      28.973 -14.450   3.303  0.00  0.00     0.726 A 
ATOM     10  N   UNL d   1      29.364 -14.825   2.081  0.00  0.00    -0.192 N 
ATOM     11  H   UNL d   1      30.073 -15.551   2.016  0.00  0.00     0.184 HD
ENDROOT
BRANCH   3  12
ATOM     12  C   UNL d   1      27.178 -12.841  -0.372  0.00  0.00     0.256 C 
ATOM     13  O   UNL d   1      26.281 -13.499  -0.857  0.00  0.00    -0.267 OA
ATOM     14  N   UNL d   1      27.595 -11.666  -0.987  0.00  0.00    -0.323 N 
ATOM     15  H   UNL d   1      28.534 -11.355  -0.996  0.00  0.00     0.169 HD
BRANCH  14  16
ATOM     16  C   UNL d   1      26.921 -11.069  -2.064  0.00  0.00     0.041 A 
ATOM     17  C   UNL d   1      26.727 -11.825  -3.230  0.00  0.00     0.030 A 
ATOM     18  C   UNL d   1      26.170 -11.227  -4.356  0.00  0.00     0.002 A 
ATOM     19  C   UNL d   1      25.852  -9.871  -4.322  0.00  0.00     0.001 A 
ATOM     20  C   UNL d   1      26.110  -9.108  -3.178  0.00  0.00     0.009 A 
ATOM     21  C   UNL d   1      26.664  -9.697  -2.040  0.00  0.00    -0.035 A 
ATOM     22  C   UNL d   1      27.077  -8.858  -0.868  0.00  0.00     0.050 C 
ENDBRANCH  14  16
ENDBRANCH   3  12
BRANCH   4  23
ATOM     23  C   UNL d   1      27.082 -11.418   2.516  0.00  0.00    -0.028 C 
ATOM     24  C   UNL d   1      28.114 -10.698   3.142  0.00  0.00     0.012 C 
ATOM     25  C   UNL d   1      27.965  -9.369   3.543  0.00  0.00     0.037 C 
ATOM     26  C   UNL d   1      26.848  -8.666   3.142  0.00  0.00     0.065 C 
ATOM     27  C   UNL d   1      25.878  -9.287   2.378  0.00  0.00     0.037 C 
ATOM     28  C   UNL d   1      25.974 -10.656   2.105  0.00  0.00     0.012 C 
BRANCH  26  29
ATOM     29  O   UNL d   1      26.681  -7.354   3.459  0.00  0.00    -0.361 OA
ATOM     30  H   UNL d   1      27.369  -7.107   4.098  0.00  0.00     0.217 HD
ENDBRANCH  26  29
ENDBRANCH   4  23
BRANCH   7  31
ATOM     31  C   UNL d   1      28.942 -14.002   6.816  0.00  0.00     0.085 C 
BRANCH  31  32
ATOM     32  C   UNL d   1      29.982 -12.957   7.222  0.00  0.00     0.034 C 
BRANCH  32  33
ATOM     33  C   UNL d   1      30.164 -11.868   6.174  0.00  0.00     0.164 C 
BRANCH  33  34
ATOM     34  O   UNL d   1      31.055 -12.316   5.158  0.00  0.00    -0.401 OA
ATOM     35  H   UNL d   1      31.555 -13.071   5.513  0.00  0.00     0.209 HD
ENDBRANCH  33  34
ENDBRANCH  32  33
ENDBRANCH  31  32
ENDBRANCH   7  31
TORSDOF 8
ENDMDL
