MODEL 1
REMARK VINA RESULT:    -9.585      0.000      0.000
REMARK INTER + INTRA:         -12.281
REMARK INTER:                 -11.076
REMARK INTRA:                  -1.205
REMARK CONF_INDEPENDENT:        1.492
REMARK UNBOUND:                -1.205
REMARK  5 active torsions:
REMARK  status: ('A' for Active; 'I' for Inactive)
REMARK    1  A    between atoms: C_5  and  N_6 
REMARK       I    between atoms: N_6  and  C_7 
REMARK       I    between atoms: C_7  and  N_9 
REMARK    2  A    between atoms: N_9  and  N_10 
REMARK    3  A    between atoms: N_9  and  C_20 
REMARK       I    between atoms: N_10  and  C_11 
REMARK       I    between atoms: C_11  and  N_13 
REMARK    4  A    between atoms: N_13  and  C_14 
REMARK    5  A    between atoms: C_22  and  C_23 
ROOT
ATOM      1  N   UNL d   1      25.434 -16.997  -0.172  0.00  0.00    -0.307 N 
ATOM      2  C   UNL d   1      26.378 -16.590  -1.091  0.00  0.00     0.348 C 
ATOM      3  O   UNL d   1      26.187 -16.758  -2.300  0.00  0.00    -0.245 OA
ATOM      4  N   UNL d   1      27.607 -16.031  -0.610  0.00  0.00    -0.176 N 
ATOM      5  H   UNL d   1      25.630 -16.818   0.793  0.00  0.00     0.170 HD
ENDROOT
BRANCH   4   6
ATOM      6  N   UNL d   1      28.085 -15.947   0.832  0.00  0.00    -0.239 N 
ATOM      7  C   UNL d   1      27.915 -14.836   1.623  0.00  0.00     0.335 C 
ATOM      8  O   UNL d   1      27.255 -13.844   1.307  0.00  0.00    -0.246 OA
ATOM      9  N   UNL d   1      28.363 -14.825   2.916  0.00  0.00    -0.337 N 
ATOM     10  H   UNL d   1      29.140 -15.390   3.226  0.00  0.00     0.164 HD
ATOM     11  H   UNL d   1      28.923 -16.500   0.980  0.00  0.00     0.192 HD
BRANCH   9  12
ATOM     12  C   UNL d   1      27.825 -13.717   3.764  0.00  0.00     0.086 C 
ATOM     13  C   UNL d   1      28.108 -14.023   5.258  0.00  0.00     0.025 C 
ATOM     14  C   UNL d   1      27.588 -12.950   6.205  0.00  0.00     0.002 C 
ATOM     15  C   UNL d   1      28.138 -11.586   5.829  0.00  0.00     0.000 C 
ATOM     16  C   UNL d   1      27.803 -11.256   4.376  0.00  0.00     0.002 C 
ATOM     17  C   UNL d   1      28.336 -12.323   3.402  0.00  0.00     0.025 C 
ENDBRANCH   9  12
ENDBRANCH   4   6
BRANCH   4  18
ATOM     18  C   UNL d   1      28.482 -15.634  -1.674  0.00  0.00     0.197 A 
ATOM     19  N   UNL d   1      28.728 -16.303  -2.790  0.00  0.00    -0.222 NA
ATOM     20  C   UNL d   1      29.728 -15.711  -3.559  0.00  0.00     0.076 A 
ATOM     21  C   UNL d   1      30.242 -14.552  -3.015  0.00  0.00     0.086 A 
ATOM     22  S   UNL d   1      29.409 -14.187  -1.532  0.00  0.00    -0.060 SA
BRANCH  20  23
ATOM     23  C   UNL d   1      30.137 -16.267  -4.858  0.00  0.00    -0.007 A 
ATOM     24  C   UNL d   1      30.360 -17.650  -4.980  0.00  0.00     0.017 A 
ATOM     25  C   UNL d   1      30.830 -18.203  -6.182  0.00  0.00     0.043 A 
ATOM     26  C   UNL d   1      31.073 -17.377  -7.270  0.00  0.00     0.116 A 
ATOM     27  F   UNL d   1      31.548 -17.903  -8.408  0.00  0.00    -0.206 F 
ATOM     28  C   UNL d   1      30.831 -16.011  -7.187  0.00  0.00     0.043 A 
ATOM     29  C   UNL d   1      30.359 -15.456  -5.985  0.00  0.00     0.017 A 
ENDBRANCH  20  23
ENDBRANCH   4  18
BRANCH   1  30
ATOM     30  C   UNL d   1      24.132 -17.497  -0.348  0.00  0.00     0.036 A 
ATOM     31  C   UNL d   1      23.082 -16.628  -0.728  0.00  0.00     0.030 A 
ATOM     32  C   UNL d   1      21.780 -17.123  -0.895  0.00  0.00     0.009 A 
ATOM     33  C   UNL d   1      21.529 -18.482  -0.689  0.00  0.00    -0.062 A 
ATOM     34  C   UNL d   1      20.175 -19.092  -0.858  0.00  0.00     0.048 C 
ATOM     35  C   UNL d   1      22.576 -19.325  -0.318  0.00  0.00     0.009 A 
ATOM     36  C   UNL d   1      23.858 -18.835  -0.155  0.00  0.00     0.030 A 
ENDBRANCH   1  30
TORSDOF 5
ENDMDL
MODEL 2
REMARK VINA RESULT:    -9.138      1.658      2.092
REMARK INTER + INTRA:         -11.920
REMARK INTER:                 -10.630
REMARK INTRA:                  -1.290
REMARK CONF_INDEPENDENT:        1.492
REMARK UNBOUND:                -1.290
REMARK  5 active torsions:
REMARK  status: ('A' for Active; 'I' for Inactive)
REMARK    1  A    between atoms: C_5  and  N_6 
REMARK       I    between atoms: N_6  and  C_7 
REMARK       I    between atoms: C_7  and  N_9 
REMARK    2  A    between atoms: N_9  and  N_10 
REMARK    3  A    between atoms: N_9  and  C_20 
REMARK       I    between atoms: N_10  and  C_11 
REMARK       I    between atoms: C_11  and  N_13 
REMARK    4  A    between atoms: N_13  and  C_14 
REMARK    5  A    between atoms: C_22  and  C_23 
ROOT
ATOM      1  N   UNL d   1      25.466 -17.003  -0.167  0.00  0.00    -0.307 N 
ATOM      2  C   UNL d   1      26.411 -16.601  -1.087  0.00  0.00     0.348 C 
ATOM      3  O   UNL d   1      26.221 -16.773  -2.295  0.00  0.00    -0.245 OA
ATOM      4  N   UNL d   1      27.641 -16.042  -0.607  0.00  0.00    -0.176 N 
ATOM      5  H   UNL d   1      25.662 -16.821   0.798  0.00  0.00     0.170 HD
ENDROOT
BRANCH   4   6
ATOM      6  N   UNL d   1      28.118 -15.955   0.835  0.00  0.00    -0.239 N 
ATOM      7  C   UNL d   1      27.945 -14.842   1.624  0.00  0.00     0.335 C 
ATOM      8  O   UNL d   1      27.283 -13.853   1.305  0.00  0.00    -0.246 OA
ATOM      9  N   UNL d   1      28.392 -14.828   2.917  0.00  0.00    -0.337 N 
ATOM     10  H   UNL d   1      29.172 -15.390   3.229  0.00  0.00     0.164 HD
ATOM     11  H   UNL d   1      28.958 -16.505   0.985  0.00  0.00     0.192 HD
BRANCH   9  12
ATOM     12  C   UNL d   1      27.852 -13.719   3.763  0.00  0.00     0.086 C 
ATOM     13  C   UNL d   1      28.135 -14.022   5.258  0.00  0.00     0.025 C 
ATOM     14  C   UNL d   1      27.612 -12.948   6.203  0.00  0.00     0.002 C 
ATOM     15  C   UNL d   1      28.158 -11.583   5.823  0.00  0.00     0.000 C 
ATOM     16  C   UNL d   1      27.823 -11.258   4.370  0.00  0.00     0.002 C 
ATOM     17  C   UNL d   1      28.359 -12.324   3.398  0.00  0.00     0.025 C 
ENDBRANCH   9  12
ENDBRANCH   4   6
BRANCH   4  18
ATOM     18  C   UNL d   1      28.518 -15.651  -1.671  0.00  0.00     0.197 A 
ATOM     19  N   UNL d   1      28.174 -15.051  -2.801  0.00  0.00    -0.222 NA
ATOM     20  C   UNL d   1      29.244 -14.926  -3.686  0.00  0.00     0.076 A 
ATOM     21  C   UNL d   1      30.433 -15.434  -3.204  0.00  0.00     0.086 A 
ATOM     22  S   UNL d   1      30.197 -16.032  -1.588  0.00  0.00    -0.060 SA
BRANCH  20  23
ATOM     23  C   UNL d   1      29.097 -14.258  -4.988  0.00  0.00    -0.007 A 
ATOM     24  C   UNL d   1      27.995 -13.413  -5.213  0.00  0.00     0.017 A 
ATOM     25  C   UNL d   1      27.780 -12.825  -6.469  0.00  0.00     0.043 A 
ATOM     26  C   UNL d   1      28.669 -13.072  -7.506  0.00  0.00     0.116 A 
ATOM     27  F   UNL d   1      28.447 -12.533  -8.713  0.00  0.00    -0.206 F 
ATOM     28  C   UNL d   1      29.783 -13.878  -7.303  0.00  0.00     0.043 A 
ATOM     29  C   UNL d   1      30.001 -14.466  -6.045  0.00  0.00     0.017 A 
ENDBRANCH  20  23
ENDBRANCH   4  18
BRANCH   1  30
ATOM     30  C   UNL d   1      24.162 -17.500  -0.342  0.00  0.00     0.036 A 
ATOM     31  C   UNL d   1      23.116 -16.632  -0.729  0.00  0.00     0.030 A 
ATOM     32  C   UNL d   1      21.813 -17.125  -0.894  0.00  0.00     0.009 A 
ATOM     33  C   UNL d   1      21.558 -18.482  -0.680  0.00  0.00    -0.062 A 
ATOM     34  C   UNL d   1      20.203 -19.090  -0.847  0.00  0.00     0.048 C 
ATOM     35  C   UNL d   1      22.602 -19.325  -0.302  0.00  0.00     0.009 A 
ATOM     36  C   UNL d   1      23.885 -18.837  -0.140  0.00  0.00     0.030 A 
ENDBRANCH   1  30
TORSDOF 5
ENDMDL
MODEL 3
REMARK VINA RESULT:    -9.074      5.004      5.808
REMARK INTER + INTRA:         -12.455
REMARK INTER:                 -10.566
REMARK INTRA:                  -1.889
REMARK CONF_INDEPENDENT:        1.492
REMARK UNBOUND:                -1.889
REMARK  5 active torsions:
REMARK  status: ('A' for Active; 'I' for Inactive)
REMARK    1  A    between atoms: C_5  and  N_6 
REMARK       I    between atoms: N_6  and  C_7 
REMARK       I    between atoms: C_7  and  N_9 
REMARK    2  A    between atoms: N_9  and  N_10 
REMARK    3  A    between atoms: N_9  and  C_20 
REMARK       I    between atoms: N_10  and  C_11 
REMARK       I    between atoms: C_11  and  N_13 
REMARK    4  A    between atoms: N_13  and  C_14 
REMARK    5  A    between atoms: C_22  and  C_23 
ROOT
ATOM      1  N   UNL d   1      25.288 -15.601  -1.100  0.00  0.00    -0.307 N 
ATOM      2  C   UNL d   1      25.381 -14.678  -2.120  0.00  0.00     0.348 C 
ATOM      3  O   UNL d   1      24.625 -14.743  -3.093  0.00  0.00    -0.245 OA
ATOM      4  N   UNL d   1      26.416 -13.687  -2.056  0.00  0.00    -0.176 N 
ATOM      5  H   UNL d   1      25.913 -15.490  -0.325  0.00  0.00     0.170 HD
ENDROOT
BRANCH   4   6
ATOM      6  N   UNL d   1      27.550 -13.596  -1.046  0.00  0.00    -0.239 N 
ATOM      7  C   UNL d   1      27.372 -13.753   0.308  0.00  0.00     0.335 C 
ATOM      8  O   UNL d   1      26.318 -14.106   0.841  0.00  0.00    -0.246 OA
ATOM      9  N   UNL d   1      28.435 -13.665   1.166  0.00  0.00    -0.337 N 
ATOM     10  H   UNL d   1      29.258 -13.118   0.957  0.00  0.00     0.164 HD
ATOM     11  H   UNL d   1      28.268 -12.947  -1.348  0.00  0.00     0.192 HD
BRANCH   9  12
ATOM     12  C   UNL d   1      28.182 -14.185   2.545  0.00  0.00     0.086 C 
ATOM     13  C   UNL d   1      29.525 -14.294   3.313  0.00  0.00     0.025 C 
ATOM     14  C   UNL d   1      29.369 -14.825   4.732  0.00  0.00     0.002 C 
ATOM     15  C   UNL d   1      28.375 -13.988   5.516  0.00  0.00     0.000 C 
ATOM     16  C   UNL d   1      27.032 -13.934   4.791  0.00  0.00     0.002 C 
ATOM     17  C   UNL d   1      27.167 -13.384   3.360  0.00  0.00     0.025 C 
ENDBRANCH   9  12
ENDBRANCH   4   6
BRANCH   4  18
ATOM     18  C   UNL d   1      26.380 -12.784  -3.169  0.00  0.00     0.197 A 
ATOM     19  N   UNL d   1      25.925 -11.541  -3.167  0.00  0.00    -0.222 NA
ATOM     20  C   UNL d   1      25.907 -10.976  -4.441  0.00  0.00     0.076 A 
ATOM     21  C   UNL d   1      26.378 -11.813  -5.432  0.00  0.00     0.086 A 
ATOM     22  S   UNL d   1      26.893 -13.317  -4.726  0.00  0.00    -0.060 SA
BRANCH  20  23
ATOM     23  C   UNL d   1      25.472  -9.590  -4.667  0.00  0.00    -0.007 A 
ATOM     24  C   UNL d   1      25.710  -8.618  -3.679  0.00  0.00     0.017 A 
ATOM     25  C   UNL d   1      25.236  -7.305  -3.826  0.00  0.00     0.043 A 
ATOM     26  C   UNL d   1      24.527  -6.954  -4.966  0.00  0.00     0.116 A 
ATOM     27  F   UNL d   1      24.051  -5.707  -5.092  0.00  0.00    -0.206 F 
ATOM     28  C   UNL d   1      24.304  -7.885  -5.973  0.00  0.00     0.043 A 
ATOM     29  C   UNL d   1      24.780  -9.200  -5.828  0.00  0.00     0.017 A 
ENDBRANCH  20  23
ENDBRANCH   4  18
BRANCH   1  30
ATOM     30  C   UNL d   1      24.346 -16.616  -0.859  0.00  0.00     0.036 A 
ATOM     31  C   UNL d   1      24.777 -17.933  -0.577  0.00  0.00     0.030 A 
ATOM     32  C   UNL d   1      23.837 -18.950  -0.346  0.00  0.00     0.009 A 
ATOM     33  C   UNL d   1      22.473 -18.650  -0.392  0.00  0.00    -0.062 A 
ATOM     34  C   UNL d   1      21.409 -19.670  -0.145  0.00  0.00     0.048 C 
ATOM     35  C   UNL d   1      22.066 -17.345  -0.668  0.00  0.00     0.009 A 
ATOM     36  C   UNL d   1      22.994 -16.346  -0.895  0.00  0.00     0.030 A 
ENDBRANCH   1  30
TORSDOF 5
ENDMDL
MODEL 4
REMARK VINA RESULT:    -8.594      3.069      3.589
REMARK INTER + INTRA:         -11.988
REMARK INTER:                 -10.085
REMARK INTRA:                  -1.903
REMARK CONF_INDEPENDENT:        1.492
REMARK UNBOUND:                -1.903
REMARK  5 active torsions:
REMARK  status: ('A' for Active; 'I' for Inactive)
REMARK    1  A    between atoms: C_5  and  N_6 
REMARK       I    between atoms: N_6  and  C_7 
REMARK       I    between atoms: C_7  and  N_9 
REMARK    2  A    between atoms: N_9  and  N_10 
REMARK    3  A    between atoms: N_9  and  C_20 
REMARK       I    between atoms: N_10  and  C_11 
REMARK       I    between atoms: C_11  and  N_13 
REMARK    4  A    between atoms: N_13  and  C_14 
REMARK    5  A    between atoms: C_22  and  C_23 
ROOT
ATOM      1  N   UNL d   1      25.354 -15.658  -1.150  0.00  0.00    -0.307 N 
ATOM      2  C   UNL d   1      25.499 -14.808  -2.225  0.00  0.00     0.348 C 
ATOM      3  O   UNL d   1      24.773 -14.925  -3.217  0.00  0.00    -0.245 OA
ATOM      4  N   UNL d   1      26.550 -13.834  -2.192  0.00  0.00    -0.176 N 
ATOM      5  H   UNL d   1      25.954 -15.507  -0.363  0.00  0.00     0.170 HD
ENDROOT
BRANCH   4   6
ATOM      6  N   UNL d   1      27.652 -13.695  -1.153  0.00  0.00    -0.239 N 
ATOM      7  C   UNL d   1      27.437 -13.819   0.200  0.00  0.00     0.335 C 
ATOM      8  O   UNL d   1      26.374 -14.177   0.711  0.00  0.00    -0.246 OA
ATOM      9  N   UNL d   1      28.472 -13.689   1.086  0.00  0.00    -0.337 N 
ATOM     10  H   UNL d   1      29.291 -13.132   0.886  0.00  0.00     0.164 HD
ATOM     11  H   UNL d   1      28.368 -13.041  -1.451  0.00  0.00     0.192 HD
BRANCH   9  12
ATOM     12  C   UNL d   1      28.188 -14.176   2.470  0.00  0.00     0.086 C 
ATOM     13  C   UNL d   1      29.519 -14.325   3.252  0.00  0.00     0.025 C 
ATOM     14  C   UNL d   1      29.331 -14.827   4.678  0.00  0.00     0.002 C 
ATOM     15  C   UNL d   1      28.364 -13.939   5.439  0.00  0.00     0.000 C 
ATOM     16  C   UNL d   1      27.030 -13.845   4.702  0.00  0.00     0.002 C 
ATOM     17  C   UNL d   1      27.198 -13.322   3.263  0.00  0.00     0.025 C 
ENDBRANCH   9  12
ENDBRANCH   4   6
BRANCH   4  18
ATOM     18  C   UNL d   1      26.569 -13.008  -3.364  0.00  0.00     0.197 A 
ATOM     19  N   UNL d   1      27.266 -13.218  -4.471  0.00  0.00    -0.222 NA
ATOM     20  C   UNL d   1      27.168 -12.160  -5.373  0.00  0.00     0.076 A 
ATOM     21  C   UNL d   1      26.361 -11.127  -4.940  0.00  0.00     0.086 A 
ATOM     22  S   UNL d   1      25.682 -11.531  -3.391  0.00  0.00    -0.060 SA
BRANCH  20  23
ATOM     23  C   UNL d   1      27.834 -12.196  -6.683  0.00  0.00    -0.007 A 
ATOM     24  C   UNL d   1      29.004 -12.958  -6.846  0.00  0.00     0.017 A 
ATOM     25  C   UNL d   1      29.710 -12.951  -8.059  0.00  0.00     0.043 A 
ATOM     26  C   UNL d   1      29.245 -12.186  -9.120  0.00  0.00     0.116 A 
ATOM     27  F   UNL d   1      29.936 -12.157 -10.269  0.00  0.00    -0.206 F 
ATOM     28  C   UNL d   1      28.074 -11.447  -8.998  0.00  0.00     0.043 A 
ATOM     29  C   UNL d   1      27.366 -11.456  -7.784  0.00  0.00     0.017 A 
ENDBRANCH  20  23
ENDBRANCH   4  18
BRANCH   1  30
ATOM     30  C   UNL d   1      24.384 -16.639  -0.874  0.00  0.00     0.036 A 
ATOM     31  C   UNL d   1      24.778 -17.963  -0.571  0.00  0.00     0.030 A 
ATOM     32  C   UNL d   1      23.810 -18.944  -0.306  0.00  0.00     0.009 A 
ATOM     33  C   UNL d   1      22.456 -18.602  -0.336  0.00  0.00    -0.062 A 
ATOM     34  C   UNL d   1      21.365 -19.582  -0.052  0.00  0.00     0.048 C 
ATOM     35  C   UNL d   1      22.086 -17.291  -0.633  0.00  0.00     0.009 A 
ATOM     36  C   UNL d   1      23.041 -16.326  -0.894  0.00  0.00     0.030 A 
ENDBRANCH   1  30
TORSDOF 5
ENDMDL
MODEL 5
REMARK VINA RESULT:    -8.560      1.896      2.346
REMARK INTER + INTRA:         -11.928
REMARK INTER:                 -10.051
REMARK INTRA:                  -1.877
REMARK CONF_INDEPENDENT:        1.492
REMARK UNBOUND:                -1.877
REMARK  5 active torsions:
REMARK  status: ('A' for Active; 'I' for Inactive)
REMARK    1  A    between atoms: C_5  and  N_6 
REMARK       I    between atoms: N_6  and  C_7 
REMARK       I    between atoms: C_7  and  N_9 
REMARK    2  A    between atoms: N_9  and  N_10 
REMARK    3  A    between atoms: N_9  and  C_20 
REMARK       I    between atoms: N_10  and  C_11 
REMARK       I    between atoms: C_11  and  N_13 
REMARK    4  A    between atoms: N_13  and  C_14 
REMARK    5  A    between atoms: C_22  and  C_23 
ROOT
ATOM      1  N   UNL d   1      25.060 -15.814  -1.142  0.00  0.00    -0.307 N 
ATOM      2  C   UNL d   1      25.696 -15.489  -2.322  0.00  0.00     0.348 C 
ATOM      3  O   UNL d   1      25.535 -16.183  -3.331  0.00  0.00    -0.245 OA
ATOM      4  N   UNL d   1      26.597 -14.374  -2.331  0.00  0.00    -0.176 N 
ATOM      5  H   UNL d   1      25.210 -15.207  -0.360  0.00  0.00     0.170 HD
ENDROOT
BRANCH   4   6
ATOM      6  N   UNL d   1      27.066 -13.553  -1.139  0.00  0.00    -0.239 N 
ATOM      7  C   UNL d   1      27.153 -14.054   0.139  0.00  0.00     0.335 C 
ATOM      8  O   UNL d   1      26.989 -15.238   0.440  0.00  0.00    -0.246 OA
ATOM      9  N   UNL d   1      27.588 -13.266   1.169  0.00  0.00    -0.337 N 
ATOM     10  H   UNL d   1      27.480 -12.262   1.168  0.00  0.00     0.164 HD
ATOM     11  H   UNL d   1      26.818 -12.575  -1.238  0.00  0.00     0.192 HD
BRANCH   9  12
ATOM     12  C   UNL d   1      27.962 -14.001   2.416  0.00  0.00     0.086 C 
ATOM     13  C   UNL d   1      29.453 -13.733   2.750  0.00  0.00     0.025 C 
ATOM     14  C   UNL d   1      29.931 -14.449   4.006  0.00  0.00     0.002 C 
ATOM     15  C   UNL d   1      29.050 -14.104   5.193  0.00  0.00     0.000 C 
ATOM     16  C   UNL d   1      27.590 -14.429   4.888  0.00  0.00     0.002 C 
ATOM     17  C   UNL d   1      27.084 -13.700   3.630  0.00  0.00     0.025 C 
ENDBRANCH   9  12
ENDBRANCH   4   6
BRANCH   4  18
ATOM     18  C   UNL d   1      27.169 -14.141  -3.624  0.00  0.00     0.197 A 
ATOM     19  N   UNL d   1      28.161 -14.816  -4.186  0.00  0.00    -0.222 NA
ATOM     20  C   UNL d   1      28.572 -14.256  -5.394  0.00  0.00     0.076 A 
ATOM     21  C   UNL d   1      27.857 -13.134  -5.764  0.00  0.00     0.086 A 
ATOM     22  S   UNL d   1      26.619 -12.819  -4.584  0.00  0.00    -0.060 SA
BRANCH  20  23
ATOM     23  C   UNL d   1      29.636 -14.863  -6.206  0.00  0.00    -0.007 A 
ATOM     24  C   UNL d   1      29.806 -16.259  -6.195  0.00  0.00     0.017 A 
ATOM     25  C   UNL d   1      30.863 -16.865  -6.893  0.00  0.00     0.043 A 
ATOM     26  C   UNL d   1      31.752 -16.078  -7.612  0.00  0.00     0.116 A 
ATOM     27  F   UNL d   1      32.778 -16.655  -8.255  0.00  0.00    -0.206 F 
ATOM     28  C   UNL d   1      31.590 -14.699  -7.666  0.00  0.00     0.043 A 
ATOM     29  C   UNL d   1      30.531 -14.091  -6.969  0.00  0.00     0.017 A 
ENDBRANCH  20  23
ENDBRANCH   4  18
BRANCH   1  30
ATOM     30  C   UNL d   1      24.083 -16.785  -0.859  0.00  0.00     0.036 A 
ATOM     31  C   UNL d   1      24.467 -18.106  -0.533  0.00  0.00     0.030 A 
ATOM     32  C   UNL d   1      23.493 -19.078  -0.260  0.00  0.00     0.009 A 
ATOM     33  C   UNL d   1      22.141 -18.730  -0.307  0.00  0.00    -0.062 A 
ATOM     34  C   UNL d   1      21.042 -19.701  -0.017  0.00  0.00     0.048 C 
ATOM     35  C   UNL d   1      21.780 -17.422  -0.626  0.00  0.00     0.009 A 
ATOM     36  C   UNL d   1      22.741 -16.466  -0.895  0.00  0.00     0.030 A 
ENDBRANCH   1  30
TORSDOF 5
ENDMDL
MODEL 6
REMARK VINA RESULT:    -8.376      4.226      7.344
REMARK INTER + INTRA:         -11.690
REMARK INTER:                  -9.868
REMARK INTRA:                  -1.823
REMARK CONF_INDEPENDENT:        1.492
REMARK UNBOUND:                -1.823
REMARK  5 active torsions:
REMARK  status: ('A' for Active; 'I' for Inactive)
REMARK    1  A    between atoms: C_5  and  N_6 
REMARK       I    between atoms: N_6  and  C_7 
REMARK       I    between atoms: C_7  and  N_9 
REMARK    2  A    between atoms: N_9  and  N_10 
REMARK    3  A    between atoms: N_9  and  C_20 
REMARK       I    between atoms: N_10  and  C_11 
REMARK       I    between atoms: C_11  and  N_13 
REMARK    4  A    between atoms: N_13  and  C_14 
REMARK    5  A    between atoms: C_22  and  C_23 
ROOT
ATOM      1  N   UNL d   1      27.868 -12.112   1.838  0.00  0.00    -0.307 N 
ATOM      2  C   UNL d   1      27.404 -13.241   1.196  0.00  0.00     0.348 C 
ATOM      3  O   UNL d   1      26.432 -13.174   0.438  0.00  0.00    -0.245 OA
ATOM      4  N   UNL d   1      28.032 -14.498   1.480  0.00  0.00    -0.176 N 
ATOM      5  H   UNL d   1      28.672 -12.218   2.426  0.00  0.00     0.170 HD
ENDROOT
BRANCH   4   6
ATOM      6  N   UNL d   1      29.091 -14.787   2.533  0.00  0.00    -0.239 N 
ATOM      7  C   UNL d   1      29.223 -14.061   3.693  0.00  0.00     0.335 C 
ATOM      8  O   UNL d   1      28.435 -13.192   4.070  0.00  0.00    -0.246 OA
ATOM      9  N   UNL d   1      30.194 -14.375   4.606  0.00  0.00    -0.337 N 
ATOM     10  H   UNL d   1      31.060 -14.824   4.344  0.00  0.00     0.164 HD
ATOM     11  H   UNL d   1      29.939 -15.158   2.118  0.00  0.00     0.192 HD
BRANCH   9  12
ATOM     12  C   UNL d   1      30.022 -13.753   5.954  0.00  0.00     0.086 C 
ATOM     13  C   UNL d   1      30.215 -12.218   5.846  0.00  0.00     0.025 C 
ATOM     14  C   UNL d   1      30.066 -11.493   7.177  0.00  0.00     0.002 C 
ATOM     15  C   UNL d   1      28.731 -11.817   7.822  0.00  0.00     0.000 C 
ATOM     16  C   UNL d   1      28.569 -13.326   7.988  0.00  0.00     0.002 C 
ATOM     17  C   UNL d   1      28.699 -14.074   6.649  0.00  0.00     0.025 C 
ENDBRANCH   9  12
ENDBRANCH   4   6
BRANCH   4  18
ATOM     18  C   UNL d   1      27.462 -15.577   0.728  0.00  0.00     0.197 A 
ATOM     19  N   UNL d   1      26.174 -15.858   0.596  0.00  0.00    -0.222 NA
ATOM     20  C   UNL d   1      25.956 -17.051  -0.091  0.00  0.00     0.076 A 
ATOM     21  C   UNL d   1      27.112 -17.682  -0.503  0.00  0.00     0.086 A 
ATOM     22  S   UNL d   1      28.490 -16.720  -0.053  0.00  0.00    -0.060 SA
BRANCH  20  23
ATOM     23  C   UNL d   1      24.599 -17.539  -0.382  0.00  0.00    -0.007 A 
ATOM     24  C   UNL d   1      23.583 -16.617  -0.693  0.00  0.00     0.017 A 
ATOM     25  C   UNL d   1      22.260 -17.040  -0.895  0.00  0.00     0.043 A 
ATOM     26  C   UNL d   1      21.947 -18.388  -0.796  0.00  0.00     0.116 A 
ATOM     27  F   UNL d   1      20.678 -18.788  -0.962  0.00  0.00    -0.206 F 
ATOM     28  C   UNL d   1      22.936 -19.325  -0.521  0.00  0.00     0.043 A 
ATOM     29  C   UNL d   1      24.262 -18.902  -0.320  0.00  0.00     0.017 A 
ENDBRANCH  20  23
ENDBRANCH   4  18
BRANCH   1  30
ATOM     30  C   UNL d   1      27.508 -10.760   1.701  0.00  0.00     0.036 A 
ATOM     31  C   UNL d   1      28.338  -9.872   0.978  0.00  0.00     0.030 A 
ATOM     32  C   UNL d   1      27.984  -8.520   0.849  0.00  0.00     0.009 A 
ATOM     33  C   UNL d   1      26.803  -8.059   1.435  0.00  0.00    -0.062 A 
ATOM     34  C   UNL d   1      26.347  -6.640   1.333  0.00  0.00     0.048 C 
ATOM     35  C   UNL d   1      25.994  -8.949   2.140  0.00  0.00     0.009 A 
ATOM     36  C   UNL d   1      26.344 -10.280   2.266  0.00  0.00     0.030 A 
ENDBRANCH   1  30
TORSDOF 5
ENDMDL
MODEL 7
REMARK VINA RESULT:    -8.338      3.760      4.364
REMARK INTER + INTRA:         -11.871
REMARK INTER:                  -9.829
REMARK INTRA:                  -2.041
REMARK CONF_INDEPENDENT:        1.492
REMARK UNBOUND:                -2.041
REMARK  5 active torsions:
REMARK  status: ('A' for Active; 'I' for Inactive)
REMARK    1  A    between atoms: C_5  and  N_6 
REMARK       I    between atoms: N_6  and  C_7 
REMARK       I    between atoms: C_7  and  N_9 
REMARK    2  A    between atoms: N_9  and  N_10 
REMARK    3  A    between atoms: N_9  and  C_20 
REMARK       I    between atoms: N_10  and  C_11 
REMARK       I    between atoms: C_11  and  N_13 
REMARK    4  A    between atoms: N_13  and  C_14 
REMARK    5  A    between atoms: C_22  and  C_23 
ROOT
ATOM      1  N   UNL d   1      25.603 -16.004  -1.214  0.00  0.00    -0.307 N 
ATOM      2  C   UNL d   1      25.999 -15.485  -2.429  0.00  0.00     0.348 C 
ATOM      3  O   UNL d   1      25.436 -15.833  -3.471  0.00  0.00    -0.245 OA
ATOM      4  N   UNL d   1      27.117 -14.588  -2.459  0.00  0.00    -0.176 N 
ATOM      5  H   UNL d   1      26.080 -15.673  -0.399  0.00  0.00     0.170 HD
ENDROOT
BRANCH   4   6
ATOM      6  N   UNL d   1      28.044 -14.224  -1.309  0.00  0.00    -0.239 N 
ATOM      7  C   UNL d   1      27.600 -13.736  -0.103  0.00  0.00     0.335 C 
ATOM      8  O   UNL d   1      26.415 -13.659   0.228  0.00  0.00    -0.246 OA
ATOM      9  N   UNL d   1      28.484 -13.432   0.895  0.00  0.00    -0.337 N 
ATOM     10  H   UNL d   1      29.440 -13.160   0.711  0.00  0.00     0.164 HD
ATOM     11  H   UNL d   1      28.941 -13.888  -1.644  0.00  0.00     0.192 HD
BRANCH   9  12
ATOM     12  C   UNL d   1      27.875 -13.243   2.248  0.00  0.00     0.086 C 
ATOM     13  C   UNL d   1      28.053 -14.538   3.083  0.00  0.00     0.025 C 
ATOM     14  C   UNL d   1      27.454 -14.445   4.480  0.00  0.00     0.002 C 
ATOM     15  C   UNL d   1      28.013 -13.248   5.228  0.00  0.00     0.000 C 
ATOM     16  C   UNL d   1      27.780 -11.965   4.435  0.00  0.00     0.002 C 
ATOM     17  C   UNL d   1      28.394 -12.034   3.025  0.00  0.00     0.025 C 
ENDBRANCH   9  12
ENDBRANCH   4   6
BRANCH   4  18
ATOM     18  C   UNL d   1      27.402 -14.112  -3.781  0.00  0.00     0.197 A 
ATOM     19  N   UNL d   1      27.022 -12.958  -4.308  0.00  0.00    -0.222 NA
ATOM     20  C   UNL d   1      27.348 -12.853  -5.658  0.00  0.00     0.076 A 
ATOM     21  C   UNL d   1      28.008 -13.956  -6.163  0.00  0.00     0.086 A 
ATOM     22  S   UNL d   1      28.258 -15.116  -4.891  0.00  0.00    -0.060 SA
BRANCH  20  23
ATOM     23  C   UNL d   1      27.051 -11.640  -6.435  0.00  0.00    -0.007 A 
ATOM     24  C   UNL d   1      27.521 -11.530  -7.755  0.00  0.00     0.017 A 
ATOM     25  C   UNL d   1      27.327 -10.353  -8.497  0.00  0.00     0.043 A 
ATOM     26  C   UNL d   1      26.655  -9.283  -7.923  0.00  0.00     0.116 A 
ATOM     27  F   UNL d   1      26.495  -8.150  -8.622  0.00  0.00    -0.206 F 
ATOM     28  C   UNL d   1      26.153  -9.375  -6.631  0.00  0.00     0.043 A 
ATOM     29  C   UNL d   1      26.345 -10.554  -5.888  0.00  0.00     0.017 A 
ENDBRANCH  20  23
ENDBRANCH   4  18
BRANCH   1  30
ATOM     30  C   UNL d   1      24.515 -16.827  -0.874  0.00  0.00     0.036 A 
ATOM     31  C   UNL d   1      24.729 -18.179  -0.521  0.00  0.00     0.030 A 
ATOM     32  C   UNL d   1      23.642 -19.004  -0.191  0.00  0.00     0.009 A 
ATOM     33  C   UNL d   1      22.348 -18.478  -0.209  0.00  0.00    -0.062 A 
ATOM     34  C   UNL d   1      21.139 -19.283   0.142  0.00  0.00     0.048 C 
ATOM     35  C   UNL d   1      22.156 -17.141  -0.556  0.00  0.00     0.009 A 
ATOM     36  C   UNL d   1      23.227 -16.331  -0.880  0.00  0.00     0.030 A 
ENDBRANCH   1  30
TORSDOF 5
ENDMDL
MODEL 8
REMARK VINA RESULT:    -8.120      5.373      9.848
REMARK INTER + INTRA:         -11.519
REMARK INTER:                  -9.612
REMARK INTRA:                  -1.908
REMARK CONF_INDEPENDENT:        1.492
REMARK UNBOUND:                -1.908
REMARK  5 active torsions:
REMARK  status: ('A' for Active; 'I' for Inactive)
REMARK    1  A    between atoms: C_5  and  N_6 
REMARK       I    between atoms: N_6  and  C_7 
REMARK       I    between atoms: C_7  and  N_9 
REMARK    2  A    between atoms: N_9  and  N_10 
REMARK    3  A    between atoms: N_9  and  C_20 
REMARK       I    between atoms: N_10  and  C_11 
REMARK       I    between atoms: C_11  and  N_13 
REMARK    4  A    between atoms: N_13  and  C_14 
REMARK    5  A    between atoms: C_22  and  C_23 
ROOT
ATOM      1  N   UNL d   1      26.285 -11.772  -5.107  0.00  0.00    -0.307 N 
ATOM      2  C   UNL d   1      26.209 -12.801  -4.192  0.00  0.00     0.348 C 
ATOM      3  O   UNL d   1      25.731 -12.606  -3.070  0.00  0.00    -0.245 OA
ATOM      4  N   UNL d   1      26.757 -14.077  -4.548  0.00  0.00    -0.176 N 
ATOM      5  H   UNL d   1      26.662 -11.989  -6.009  0.00  0.00     0.170 HD
ENDROOT
BRANCH   4   6
ATOM      6  N   UNL d   1      27.560 -14.425  -5.792  0.00  0.00    -0.239 N 
ATOM      7  C   UNL d   1      28.390 -13.535  -6.432  0.00  0.00     0.335 C 
ATOM      8  O   UNL d   1      28.676 -12.414  -6.007  0.00  0.00    -0.246 OA
ATOM      9  N   UNL d   1      29.091 -13.911  -7.545  0.00  0.00    -0.337 N 
ATOM     10  H   UNL d   1      28.771 -14.638  -8.169  0.00  0.00     0.164 HD
ATOM     11  H   UNL d   1      27.079 -15.108  -6.369  0.00  0.00     0.192 HD
BRANCH   9  12
ATOM     12  C   UNL d   1      30.199 -12.987  -7.940  0.00  0.00     0.086 C 
ATOM     13  C   UNL d   1      31.526 -13.783  -8.047  0.00  0.00     0.025 C 
ATOM     14  C   UNL d   1      32.719 -12.922  -8.438  0.00  0.00     0.002 C 
ATOM     15  C   UNL d   1      32.444 -12.172  -9.728  0.00  0.00     0.000 C 
ATOM     16  C   UNL d   1      31.172 -11.337  -9.601  0.00  0.00     0.002 C 
ATOM     17  C   UNL d   1      29.950 -12.194  -9.223  0.00  0.00     0.025 C 
ENDBRANCH   9  12
ENDBRANCH   4   6
BRANCH   4  18
ATOM     18  C   UNL d   1      26.591 -15.054  -3.512  0.00  0.00     0.197 A 
ATOM     19  N   UNL d   1      25.445 -15.493  -3.014  0.00  0.00    -0.222 NA
ATOM     20  C   UNL d   1      25.627 -16.344  -1.925  0.00  0.00     0.076 A 
ATOM     21  C   UNL d   1      26.951 -16.565  -1.601  0.00  0.00     0.086 A 
ATOM     22  S   UNL d   1      27.973 -15.719  -2.726  0.00  0.00    -0.060 SA
BRANCH  20  23
ATOM     23  C   UNL d   1      24.491 -16.977  -1.239  0.00  0.00    -0.007 A 
ATOM     24  C   UNL d   1      24.627 -18.282  -0.732  0.00  0.00     0.017 A 
ATOM     25  C   UNL d   1      23.539 -18.947  -0.145  0.00  0.00     0.043 A 
ATOM     26  C   UNL d   1      22.310 -18.308  -0.055  0.00  0.00     0.116 A 
ATOM     27  F   UNL d   1      21.265 -18.955   0.480  0.00  0.00    -0.206 F 
ATOM     28  C   UNL d   1      22.155 -17.008  -0.520  0.00  0.00     0.043 A 
ATOM     29  C   UNL d   1      23.245 -16.340  -1.106  0.00  0.00     0.017 A 
ENDBRANCH  20  23
ENDBRANCH   4  18
BRANCH   1  30
ATOM     30  C   UNL d   1      25.772 -10.463  -5.067  0.00  0.00     0.036 A 
ATOM     31  C   UNL d   1      25.838  -9.711  -3.872  0.00  0.00     0.030 A 
ATOM     32  C   UNL d   1      25.318  -8.408  -3.827  0.00  0.00     0.009 A 
ATOM     33  C   UNL d   1      24.741  -7.858  -4.974  0.00  0.00    -0.062 A 
ATOM     34  C   UNL d   1      24.177  -6.475  -5.015  0.00  0.00     0.048 C 
ATOM     35  C   UNL d   1      24.687  -8.613  -6.145  0.00  0.00     0.009 A 
ATOM     36  C   UNL d   1      25.200  -9.896  -6.186  0.00  0.00     0.030 A 
ENDBRANCH   1  30
TORSDOF 5
ENDMDL
MODEL 9
REMARK VINA RESULT:    -7.847      4.658      9.794
REMARK INTER + INTRA:         -11.442
REMARK INTER:                  -9.338
REMARK INTRA:                  -2.103
REMARK CONF_INDEPENDENT:        1.492
REMARK UNBOUND:                -2.103
REMARK  5 active torsions:
REMARK  status: ('A' for Active; 'I' for Inactive)
REMARK    1  A    between atoms: C_5  and  N_6 
REMARK       I    between atoms: N_6  and  C_7 
REMARK       I    between atoms: C_7  and  N_9 
REMARK    2  A    between atoms: N_9  and  N_10 
REMARK    3  A    between atoms: N_9  and  C_20 
REMARK       I    between atoms: N_10  and  C_11 
REMARK       I    between atoms: C_11  and  N_13 
REMARK    4  A    between atoms: N_13  and  C_14 
REMARK    5  A    between atoms: C_22  and  C_23 
ROOT
ATOM      1  N   UNL d   1      28.747 -14.759  -5.885  0.00  0.00    -0.307 N 
ATOM      2  C   UNL d   1      28.249 -15.304  -4.721  0.00  0.00     0.348 C 
ATOM      3  O   UNL d   1      28.788 -16.292  -4.212  0.00  0.00    -0.245 OA
ATOM      4  N   UNL d   1      27.058 -14.741  -4.154  0.00  0.00    -0.176 N 
ATOM      5  H   UNL d   1      28.284 -13.946  -6.244  0.00  0.00     0.170 HD
ENDROOT
BRANCH   4   6
ATOM      6  N   UNL d   1      26.161 -13.672  -4.759  0.00  0.00    -0.239 N 
ATOM      7  C   UNL d   1      26.621 -12.446  -5.179  0.00  0.00     0.335 C 
ATOM      8  O   UNL d   1      27.809 -12.124  -5.233  0.00  0.00    -0.246 OA
ATOM      9  N   UNL d   1      25.763 -11.527  -5.721  0.00  0.00    -0.337 N 
ATOM     10  H   UNL d   1      24.780 -11.499  -5.489  0.00  0.00     0.164 HD
ATOM     11  H   UNL d   1      25.223 -13.709  -4.374  0.00  0.00     0.192 HD
BRANCH   9  12
ATOM     12  C   UNL d   1      26.420 -10.394  -6.441  0.00  0.00     0.086 C 
ATOM     13  C   UNL d   1      26.618 -10.772  -7.933  0.00  0.00     0.025 C 
ATOM     14  C   UNL d   1      27.291  -9.678  -8.751  0.00  0.00     0.002 C 
ATOM     15  C   UNL d   1      26.531  -8.369  -8.630  0.00  0.00     0.000 C 
ATOM     16  C   UNL d   1      26.393  -7.964  -7.165  0.00  0.00     0.002 C 
ATOM     17  C   UNL d   1      25.699  -9.052  -6.325  0.00  0.00     0.025 C 
ENDBRANCH   9  12
ENDBRANCH   4   6
BRANCH   4  18
ATOM     18  C   UNL d   1      26.668 -15.393  -2.938  0.00  0.00     0.197 A 
ATOM     19  N   UNL d   1      25.533 -16.036  -2.712  0.00  0.00    -0.222 NA
ATOM     20  C   UNL d   1      25.404 -16.442  -1.385  0.00  0.00     0.076 A 
ATOM     21  C   UNL d   1      26.482 -16.109  -0.589  0.00  0.00     0.086 A 
ATOM     22  S   UNL d   1      27.691 -15.314  -1.553  0.00  0.00    -0.060 SA
BRANCH  20  23
ATOM     23  C   UNL d   1      24.237 -17.205  -0.919  0.00  0.00    -0.007 A 
ATOM     24  C   UNL d   1      24.397 -18.544  -0.522  0.00  0.00     0.017 A 
ATOM     25  C   UNL d   1      23.292 -19.326  -0.150  0.00  0.00     0.043 A 
ATOM     26  C   UNL d   1      22.020 -18.770  -0.166  0.00  0.00     0.116 A 
ATOM     27  F   UNL d   1      20.962 -19.525   0.162  0.00  0.00    -0.206 F 
ATOM     28  C   UNL d   1      21.836 -17.440  -0.524  0.00  0.00     0.043 A 
ATOM     29  C   UNL d   1      22.942 -16.656  -0.895  0.00  0.00     0.017 A 
ENDBRANCH  20  23
ENDBRANCH   4  18
BRANCH   1  30
ATOM     30  C   UNL d   1      29.917 -15.045  -6.610  0.00  0.00     0.036 A 
ATOM     31  C   UNL d   1      30.395 -16.373  -6.693  0.00  0.00     0.030 A 
ATOM     32  C   UNL d   1      31.568 -16.659  -7.408  0.00  0.00     0.009 A 
ATOM     33  C   UNL d   1      32.257 -15.622  -8.042  0.00  0.00    -0.062 A 
ATOM     34  C   UNL d   1      33.505 -15.843  -8.834  0.00  0.00     0.048 C 
ATOM     35  C   UNL d   1      31.770 -14.319  -7.953  0.00  0.00     0.009 A 
ATOM     36  C   UNL d   1      30.614 -14.040  -7.249  0.00  0.00     0.030 A 
ENDBRANCH   1  30
TORSDOF 5
ENDMDL
