MODEL 1
REMARK VINA RESULT:   -10.265      0.000      0.000
REMARK INTER + INTRA:         -16.412
REMARK INTER:                 -14.441
REMARK INTRA:                  -1.971
REMARK CONF_INDEPENDENT:        4.176
REMARK UNBOUND:                -1.971
REMARK  14 active torsions:
REMARK  status: ('A' for Active; 'I' for Inactive)
REMARK    1  A    between atoms: C_2  and  C_14 
REMARK    2  A    between atoms: C_2  and  N_3 
REMARK       I    between atoms: N_3  and  C_4 
REMARK    3  A    between atoms: C_4  and  O_6 
REMARK    4  A    between atoms: O_6  and  C_7 
REMARK    5  A    between atoms: C_7  and  C_8 
REMARK       I    between atoms: C_14  and  N_16 
REMARK    6  A    between atoms: N_16  and  C_17 
REMARK    7  A    between atoms: C_17  and  C_18 
REMARK    8  A    between atoms: C_17  and  C_27 
REMARK    9  A    between atoms: C_18  and  S_19 
REMARK   10  A    between atoms: S_19  and  C_20 
REMARK   11  A    between atoms: C_20  and  C_21 
REMARK   12  A    between atoms: C_27  and  O_29 
REMARK   13  A    between atoms: O_29  and  C_30 
REMARK   14  A    between atoms: C_30  and  C_31 
ROOT
ATOM      1  C   UNL d   1      26.345 -15.283  -2.835  0.00  0.00     0.193 C 
ENDROOT
BRANCH   1   2
ATOM      2  N   UNL d   1      25.906 -16.473  -2.022  0.00  0.00    -0.345 N 
ATOM      3  C   UNL d   1      25.665 -16.420  -0.647  0.00  0.00     0.240 C 
ATOM      4  O   UNL d   1      25.677 -15.377   0.001  0.00  0.00    -0.271 OA
ATOM      5  H   UNL d   1      25.543 -17.255  -2.559  0.00  0.00     0.163 HD
BRANCH   3   6
ATOM      6  C   UNL d   1      25.296 -17.734   0.076  0.00  0.00     0.174 C 
ATOM      7  C   UNL d   1      26.583 -18.526   0.235  0.00  0.00     0.042 C 
BRANCH   6   8
ATOM      8  N   UNL d   1      24.255 -18.494  -0.668  0.00  0.00    -0.324 N 
ATOM      9  C   UNL d   1      22.922 -18.155  -0.637  0.00  0.00     0.361 C 
ATOM     10  O   UNL d   1      22.469 -17.122  -0.147  0.00  0.00    -0.238 OA
ATOM     11  H   UNL d   1      24.438 -19.463  -0.903  0.00  0.00     0.165 HD
BRANCH   9  12
ATOM     12  O   UNL d   1      22.131 -19.064  -1.269  0.00  0.00    -0.299 OA
BRANCH  12  13
ATOM     13  C   UNL d   1      20.748 -18.645  -1.270  0.00  0.00     0.219 C 
BRANCH  13  14
ATOM     14  C   UNL d   1      19.939 -19.323  -0.188  0.00  0.00    -0.034 A 
ATOM     15  C   UNL d   1      20.398 -19.326   1.134  0.00  0.00     0.009 A 
ATOM     16  C   UNL d   1      19.768 -20.109   2.101  0.00  0.00     0.001 A 
ATOM     17  C   UNL d   1      18.624 -20.834   1.779  0.00  0.00     0.000 A 
ATOM     18  C   UNL d   1      18.138 -20.822   0.473  0.00  0.00     0.001 A 
ATOM     19  C   UNL d   1      18.801 -20.082  -0.511  0.00  0.00     0.009 A 
ENDBRANCH  13  14
ENDBRANCH  12  13
ENDBRANCH   9  12
ENDBRANCH   6   8
ENDBRANCH   3   6
ENDBRANCH   1   2
BRANCH   1  20
ATOM     20  C   UNL d   1      27.867 -15.336  -3.171  0.00  0.00     0.109 C 
BRANCH  20  21
ATOM     21  S   UNL d   1      28.106 -15.287  -4.975  0.00  0.00    -0.162 SA
BRANCH  21  22
ATOM     22  C   UNL d   1      29.882 -15.314  -5.308  0.00  0.00     0.112 C 
BRANCH  22  23
ATOM     23  C   UNL d   1      30.211 -16.679  -5.900  0.00  0.00    -0.049 A 
ATOM     24  C   UNL d   1      30.032 -17.867  -5.174  0.00  0.00     0.008 A 
ATOM     25  C   UNL d   1      30.497 -19.088  -5.683  0.00  0.00     0.001 A 
ATOM     26  C   UNL d   1      31.080 -19.149  -6.949  0.00  0.00     0.000 A 
ATOM     27  C   UNL d   1      31.257 -17.981  -7.685  0.00  0.00     0.001 A 
ATOM     28  C   UNL d   1      30.834 -16.758  -7.161  0.00  0.00     0.008 A 
ENDBRANCH  22  23
ENDBRANCH  21  22
ENDBRANCH  20  21
ENDBRANCH   1  20
BRANCH   1  29
ATOM     29  C   UNL d   1      25.530 -15.200  -4.165  0.00  0.00     0.282 C 
ATOM     30  O   UNL d   1      25.574 -16.059  -5.040  0.00  0.00    -0.263 OA
BRANCH  29  31
ATOM     31  O   UNL d   1      24.750 -14.079  -4.237  0.00  0.00    -0.315 OA
BRANCH  31  32
ATOM     32  C   UNL d   1      25.206 -12.930  -3.477  0.00  0.00     0.217 C 
BRANCH  32  33
ATOM     33  C   UNL d   1      25.891 -11.938  -4.400  0.00  0.00    -0.034 A 
ATOM     34  C   UNL d   1      26.606 -12.408  -5.510  0.00  0.00     0.009 A 
ATOM     35  C   UNL d   1      27.312 -11.531  -6.336  0.00  0.00     0.001 A 
ATOM     36  C   UNL d   1      27.257 -10.159  -6.106  0.00  0.00     0.000 A 
ATOM     37  C   UNL d   1      26.560  -9.671  -5.003  0.00  0.00     0.001 A 
ATOM     38  C   UNL d   1      25.896 -10.556  -4.141  0.00  0.00     0.009 A 
ENDBRANCH  32  33
ENDBRANCH  31  32
ENDBRANCH  29  31
ENDBRANCH   1  29
TORSDOF 14
ENDMDL
MODEL 2
REMARK VINA RESULT:    -9.295      2.657      4.677
REMARK INTER + INTRA:         -16.106
REMARK INTER:                 -13.471
REMARK INTRA:                  -2.635
REMARK CONF_INDEPENDENT:        4.176
REMARK UNBOUND:                -2.635
REMARK  14 active torsions:
REMARK  status: ('A' for Active; 'I' for Inactive)
REMARK    1  A    between atoms: C_2  and  C_14 
REMARK    2  A    between atoms: C_2  and  N_3 
REMARK       I    between atoms: N_3  and  C_4 
REMARK    3  A    between atoms: C_4  and  O_6 
REMARK    4  A    between atoms: O_6  and  C_7 
REMARK    5  A    between atoms: C_7  and  C_8 
REMARK       I    between atoms: C_14  and  N_16 
REMARK    6  A    between atoms: N_16  and  C_17 
REMARK    7  A    between atoms: C_17  and  C_18 
REMARK    8  A    between atoms: C_17  and  C_27 
REMARK    9  A    between atoms: C_18  and  S_19 
REMARK   10  A    between atoms: S_19  and  C_20 
REMARK   11  A    between atoms: C_20  and  C_21 
REMARK   12  A    between atoms: C_27  and  O_29 
REMARK   13  A    between atoms: O_29  and  C_30 
REMARK   14  A    between atoms: C_30  and  C_31 
ROOT
ATOM      1  C   UNL d   1      26.366 -14.978  -2.616  0.00  0.00     0.193 C 
ENDROOT
BRANCH   1   2
ATOM      2  N   UNL d   1      26.133 -16.239  -1.824  0.00  0.00    -0.345 N 
ATOM      3  C   UNL d   1      25.782 -16.247  -0.472  0.00  0.00     0.240 C 
ATOM      4  O   UNL d   1      25.520 -15.229   0.163  0.00  0.00    -0.271 OA
ATOM      5  H   UNL d   1      25.988 -17.078  -2.379  0.00  0.00     0.163 HD
BRANCH   3   6
ATOM      6  C   UNL d   1      25.650 -17.613   0.236  0.00  0.00     0.174 C 
ATOM      7  C   UNL d   1      27.029 -18.252   0.221  0.00  0.00     0.042 C 
BRANCH   6   8
ATOM      8  N   UNL d   1      24.625 -18.472  -0.418  0.00  0.00    -0.324 N 
ATOM      9  C   UNL d   1      23.314 -18.081  -0.567  0.00  0.00     0.361 C 
ATOM     10  O   UNL d   1      22.885 -16.951  -0.340  0.00  0.00    -0.238 OA
ATOM     11  H   UNL d   1      24.770 -19.474  -0.432  0.00  0.00     0.165 HD
BRANCH   9  12
ATOM     12  O   UNL d   1      22.521 -19.071  -1.061  0.00  0.00    -0.299 OA
BRANCH  12  13
ATOM     13  C   UNL d   1      21.144 -18.643  -1.154  0.00  0.00     0.219 C 
BRANCH  13  14
ATOM     14  C   UNL d   1      20.259 -19.318  -0.131  0.00  0.00    -0.034 A 
ATOM     15  C   UNL d   1      20.623 -19.322   1.220  0.00  0.00     0.009 A 
ATOM     16  C   UNL d   1      19.925 -20.103   2.140  0.00  0.00     0.001 A 
ATOM     17  C   UNL d   1      18.806 -20.827   1.738  0.00  0.00     0.000 A 
ATOM     18  C   UNL d   1      18.414 -20.814   0.401  0.00  0.00     0.001 A 
ATOM     19  C   UNL d   1      19.147 -20.077  -0.534  0.00  0.00     0.009 A 
ENDBRANCH  13  14
ENDBRANCH  12  13
ENDBRANCH   9  12
ENDBRANCH   6   8
ENDBRANCH   3   6
ENDBRANCH   1   2
BRANCH   1  20
ATOM     20  C   UNL d   1      27.790 -14.391  -2.369  0.00  0.00     0.109 C 
BRANCH  20  21
ATOM     21  S   UNL d   1      27.855 -13.586  -0.738  0.00  0.00    -0.162 SA
BRANCH  21  22
ATOM     22  C   UNL d   1      28.790 -14.654   0.380  0.00  0.00     0.112 C 
BRANCH  22  23
ATOM     23  C   UNL d   1      28.548 -14.149   1.797  0.00  0.00    -0.049 A 
ATOM     24  C   UNL d   1      29.421 -14.452   2.854  0.00  0.00     0.008 A 
ATOM     25  C   UNL d   1      29.085 -14.114   4.172  0.00  0.00     0.001 A 
ATOM     26  C   UNL d   1      27.913 -13.408   4.443  0.00  0.00     0.000 A 
ATOM     27  C   UNL d   1      27.042 -13.092   3.405  0.00  0.00     0.001 A 
ATOM     28  C   UNL d   1      27.353 -13.468   2.098  0.00  0.00     0.008 A 
ENDBRANCH  22  23
ENDBRANCH  21  22
ENDBRANCH  20  21
ENDBRANCH   1  20
BRANCH   1  29
ATOM     29  C   UNL d   1      26.182 -15.250  -4.142  0.00  0.00     0.282 C 
ATOM     30  O   UNL d   1      26.985 -15.885  -4.818  0.00  0.00    -0.263 OA
BRANCH  29  31
ATOM     31  O   UNL d   1      25.021 -14.721  -4.636  0.00  0.00    -0.315 OA
BRANCH  31  32
ATOM     32  C   UNL d   1      24.530 -13.525  -3.978  0.00  0.00     0.217 C 
BRANCH  32  33
ATOM     33  C   UNL d   1      25.525 -12.391  -4.157  0.00  0.00    -0.034 A 
ATOM     34  C   UNL d   1      26.149 -12.211  -5.400  0.00  0.00     0.009 A 
ATOM     35  C   UNL d   1      27.125 -11.228  -5.578  0.00  0.00     0.001 A 
ATOM     36  C   UNL d   1      27.443 -10.362  -4.537  0.00  0.00     0.000 A 
ATOM     37  C   UNL d   1      26.842 -10.530  -3.291  0.00  0.00     0.001 A 
ATOM     38  C   UNL d   1      25.902 -11.552  -3.094  0.00  0.00     0.009 A 
ENDBRANCH  32  33
ENDBRANCH  31  32
ENDBRANCH  29  31
ENDBRANCH   1  29
TORSDOF 14
ENDMDL
MODEL 3
REMARK VINA RESULT:    -9.018      1.306      2.219
REMARK INTER + INTRA:         -16.086
REMARK INTER:                 -13.194
REMARK INTRA:                  -2.891
REMARK CONF_INDEPENDENT:        4.176
REMARK UNBOUND:                -2.891
REMARK  14 active torsions:
REMARK  status: ('A' for Active; 'I' for Inactive)
REMARK    1  A    between atoms: C_2  and  C_14 
REMARK    2  A    between atoms: C_2  and  N_3 
REMARK       I    between atoms: N_3  and  C_4 
REMARK    3  A    between atoms: C_4  and  O_6 
REMARK    4  A    between atoms: O_6  and  C_7 
REMARK    5  A    between atoms: C_7  and  C_8 
REMARK       I    between atoms: C_14  and  N_16 
REMARK    6  A    between atoms: N_16  and  C_17 
REMARK    7  A    between atoms: C_17  and  C_18 
REMARK    8  A    between atoms: C_17  and  C_27 
REMARK    9  A    between atoms: C_18  and  S_19 
REMARK   10  A    between atoms: S_19  and  C_20 
REMARK   11  A    between atoms: C_20  and  C_21 
REMARK   12  A    between atoms: C_27  and  O_29 
REMARK   13  A    between atoms: O_29  and  C_30 
REMARK   14  A    between atoms: C_30  and  C_31 
ROOT
ATOM      1  C   UNL d   1      27.245 -15.018  -2.855  0.00  0.00     0.193 C 
ENDROOT
BRANCH   1   2
ATOM      2  N   UNL d   1      26.924 -16.146  -1.907  0.00  0.00    -0.345 N 
ATOM      3  C   UNL d   1      25.701 -16.270  -1.243  0.00  0.00     0.240 C 
ATOM      4  O   UNL d   1      24.740 -15.537  -1.457  0.00  0.00    -0.271 OA
ATOM      5  H   UNL d   1      27.538 -16.953  -1.971  0.00  0.00     0.163 HD
BRANCH   3   6
ATOM      6  C   UNL d   1      25.536 -17.432  -0.240  0.00  0.00     0.174 C 
ATOM      7  C   UNL d   1      26.886 -18.121  -0.136  0.00  0.00     0.042 C 
BRANCH   6   8
ATOM      8  N   UNL d   1      24.458 -18.368  -0.661  0.00  0.00    -0.324 N 
ATOM      9  C   UNL d   1      23.123 -18.043  -0.593  0.00  0.00     0.361 C 
ATOM     10  O   UNL d   1      22.682 -16.921  -0.349  0.00  0.00    -0.238 OA
ATOM     11  H   UNL d   1      24.649 -19.363  -0.653  0.00  0.00     0.165 HD
BRANCH   9  12
ATOM     12  O   UNL d   1      22.308 -19.091  -0.892  0.00  0.00    -0.299 OA
BRANCH  12  13
ATOM     13  C   UNL d   1      20.919 -18.691  -0.897  0.00  0.00     0.219 C 
BRANCH  13  14
ATOM     14  C   UNL d   1      20.066 -19.557   0.001  0.00  0.00    -0.034 A 
ATOM     15  C   UNL d   1      18.928 -20.191  -0.510  0.00  0.00     0.009 A 
ATOM     16  C   UNL d   1      18.027 -20.828   0.345  0.00  0.00     0.001 A 
ATOM     17  C   UNL d   1      18.294 -20.909   1.708  0.00  0.00     0.000 A 
ATOM     18  C   UNL d   1      19.437 -20.306   2.231  0.00  0.00     0.001 A 
ATOM     19  C   UNL d   1      20.311 -19.618   1.384  0.00  0.00     0.009 A 
ENDBRANCH  13  14
ENDBRANCH  12  13
ENDBRANCH   9  12
ENDBRANCH   6   8
ENDBRANCH   3   6
ENDBRANCH   1   2
BRANCH   1  20
ATOM     20  C   UNL d   1      28.743 -15.032  -3.290  0.00  0.00     0.109 C 
BRANCH  20  21
ATOM     21  S   UNL d   1      29.422 -16.714  -3.122  0.00  0.00    -0.162 SA
BRANCH  21  22
ATOM     22  C   UNL d   1      30.369 -17.089  -4.614  0.00  0.00     0.112 C 
BRANCH  22  23
ATOM     23  C   UNL d   1      30.371 -15.833  -5.477  0.00  0.00    -0.049 A 
ATOM     24  C   UNL d   1      31.366 -14.850  -5.358  0.00  0.00     0.008 A 
ATOM     25  C   UNL d   1      31.249 -13.634  -6.046  0.00  0.00     0.001 A 
ATOM     26  C   UNL d   1      30.180 -13.414  -6.914  0.00  0.00     0.000 A 
ATOM     27  C   UNL d   1      29.190 -14.383  -7.050  0.00  0.00     0.001 A 
ATOM     28  C   UNL d   1      29.281 -15.576  -6.332  0.00  0.00     0.008 A 
ENDBRANCH  22  23
ENDBRANCH  21  22
ENDBRANCH  20  21
ENDBRANCH   1  20
BRANCH   1  29
ATOM     29  C   UNL d   1      26.342 -15.099  -4.126  0.00  0.00     0.282 C 
ATOM     30  O   UNL d   1      26.718 -15.575  -5.193  0.00  0.00    -0.263 OA
BRANCH  29  31
ATOM     31  O   UNL d   1      25.086 -14.603  -3.914  0.00  0.00    -0.315 OA
BRANCH  31  32
ATOM     32  C   UNL d   1      24.779 -13.337  -4.555  0.00  0.00     0.217 C 
BRANCH  32  33
ATOM     33  C   UNL d   1      25.941 -12.374  -4.381  0.00  0.00    -0.034 A 
ATOM     34  C   UNL d   1      26.035 -11.613  -3.207  0.00  0.00     0.009 A 
ATOM     35  C   UNL d   1      27.045 -10.663  -3.046  0.00  0.00     0.001 A 
ATOM     36  C   UNL d   1      28.020 -10.506  -4.026  0.00  0.00     0.000 A 
ATOM     37  C   UNL d   1      27.940 -11.246  -5.204  0.00  0.00     0.001 A 
ATOM     38  C   UNL d   1      26.894 -12.161  -5.391  0.00  0.00     0.009 A 
ENDBRANCH  32  33
ENDBRANCH  31  32
ENDBRANCH  29  31
ENDBRANCH   1  29
TORSDOF 14
ENDMDL
MODEL 4
REMARK VINA RESULT:    -8.972      1.090      1.846
REMARK INTER + INTRA:         -16.485
REMARK INTER:                 -13.149
REMARK INTRA:                  -3.337
REMARK CONF_INDEPENDENT:        4.176
REMARK UNBOUND:                -3.337
REMARK  14 active torsions:
REMARK  status: ('A' for Active; 'I' for Inactive)
REMARK    1  A    between atoms: C_2  and  C_14 
REMARK    2  A    between atoms: C_2  and  N_3 
REMARK       I    between atoms: N_3  and  C_4 
REMARK    3  A    between atoms: C_4  and  O_6 
REMARK    4  A    between atoms: O_6  and  C_7 
REMARK    5  A    between atoms: C_7  and  C_8 
REMARK       I    between atoms: C_14  and  N_16 
REMARK    6  A    between atoms: N_16  and  C_17 
REMARK    7  A    between atoms: C_17  and  C_18 
REMARK    8  A    between atoms: C_17  and  C_27 
REMARK    9  A    between atoms: C_18  and  S_19 
REMARK   10  A    between atoms: S_19  and  C_20 
REMARK   11  A    between atoms: C_20  and  C_21 
REMARK   12  A    between atoms: C_27  and  O_29 
REMARK   13  A    between atoms: O_29  and  C_30 
REMARK   14  A    between atoms: C_30  and  C_31 
ROOT
ATOM      1  C   UNL d   1      26.016 -14.870  -2.659  0.00  0.00     0.193 C 
ENDROOT
BRANCH   1   2
ATOM      2  N   UNL d   1      25.494 -15.814  -1.606  0.00  0.00    -0.345 N 
ATOM      3  C   UNL d   1      26.310 -16.684  -0.879  0.00  0.00     0.240 C 
ATOM      4  O   UNL d   1      27.536 -16.678  -0.951  0.00  0.00    -0.271 OA
ATOM      5  H   UNL d   1      24.560 -15.608  -1.265  0.00  0.00     0.163 HD
BRANCH   3   6
ATOM      6  C   UNL d   1      25.633 -17.653   0.114  0.00  0.00     0.174 C 
ATOM      7  C   UNL d   1      26.726 -18.553   0.667  0.00  0.00     0.042 C 
BRANCH   6   8
ATOM      8  N   UNL d   1      24.541 -18.429  -0.535  0.00  0.00    -0.324 N 
ATOM      9  C   UNL d   1      23.281 -17.914  -0.732  0.00  0.00     0.361 C 
ATOM     10  O   UNL d   1      22.963 -16.739  -0.558  0.00  0.00    -0.238 OA
ATOM     11  H   UNL d   1      24.584 -19.441  -0.509  0.00  0.00     0.165 HD
BRANCH   9  12
ATOM     12  O   UNL d   1      22.403 -18.837  -1.211  0.00  0.00    -0.299 OA
BRANCH  12  13
ATOM     13  C   UNL d   1      21.036 -18.417  -1.005  0.00  0.00     0.219 C 
BRANCH  13  14
ATOM     14  C   UNL d   1      20.287 -19.330  -0.060  0.00  0.00    -0.034 A 
ATOM     15  C   UNL d   1      19.197 -20.077  -0.522  0.00  0.00     0.009 A 
ATOM     16  C   UNL d   1      18.381 -20.767   0.374  0.00  0.00     0.001 A 
ATOM     17  C   UNL d   1      18.690 -20.786   1.732  0.00  0.00     0.000 A 
ATOM     18  C   UNL d   1      19.788 -20.069   2.205  0.00  0.00     0.001 A 
ATOM     19  C   UNL d   1      20.574 -19.330   1.316  0.00  0.00     0.009 A 
ENDBRANCH  13  14
ENDBRANCH  12  13
ENDBRANCH   9  12
ENDBRANCH   6   8
ENDBRANCH   3   6
ENDBRANCH   1   2
BRANCH   1  20
ATOM     20  C   UNL d   1      27.007 -15.576  -3.635  0.00  0.00     0.109 C 
BRANCH  20  21
ATOM     21  S   UNL d   1      28.688 -14.918  -3.394  0.00  0.00    -0.162 SA
BRANCH  21  22
ATOM     22  C   UNL d   1      29.823 -16.317  -3.243  0.00  0.00     0.112 C 
BRANCH  22  23
ATOM     23  C   UNL d   1      30.121 -16.812  -4.653  0.00  0.00    -0.049 A 
ATOM     24  C   UNL d   1      30.382 -18.164  -4.926  0.00  0.00     0.008 A 
ATOM     25  C   UNL d   1      30.813 -18.561  -6.200  0.00  0.00     0.001 A 
ATOM     26  C   UNL d   1      30.921 -17.629  -7.231  0.00  0.00     0.000 A 
ATOM     27  C   UNL d   1      30.659 -16.286  -6.978  0.00  0.00     0.001 A 
ATOM     28  C   UNL d   1      30.271 -15.882  -5.699  0.00  0.00     0.008 A 
ENDBRANCH  22  23
ENDBRANCH  21  22
ENDBRANCH  20  21
ENDBRANCH   1  20
BRANCH   1  29
ATOM     29  C   UNL d   1      24.835 -14.263  -3.481  0.00  0.00     0.282 C 
ATOM     30  O   UNL d   1      23.675 -14.238  -3.083  0.00  0.00    -0.263 OA
BRANCH  29  31
ATOM     31  O   UNL d   1      25.239 -13.745  -4.681  0.00  0.00    -0.315 OA
BRANCH  31  32
ATOM     32  C   UNL d   1      25.897 -12.452  -4.633  0.00  0.00     0.217 C 
BRANCH  32  33
ATOM     33  C   UNL d   1      26.843 -12.310  -5.812  0.00  0.00    -0.034 A 
ATOM     34  C   UNL d   1      26.738 -11.191  -6.650  0.00  0.00     0.009 A 
ATOM     35  C   UNL d   1      27.539 -11.065  -7.786  0.00  0.00     0.001 A 
ATOM     36  C   UNL d   1      28.509 -12.023  -8.066  0.00  0.00     0.000 A 
ATOM     37  C   UNL d   1      28.624 -13.147  -7.252  0.00  0.00     0.001 A 
ATOM     38  C   UNL d   1      27.783 -13.302  -6.141  0.00  0.00     0.009 A 
ENDBRANCH  32  33
ENDBRANCH  31  32
ENDBRANCH  29  31
ENDBRANCH   1  29
TORSDOF 14
ENDMDL
MODEL 5
REMARK VINA RESULT:    -8.785      2.563      8.707
REMARK INTER + INTRA:         -17.032
REMARK INTER:                 -12.961
REMARK INTRA:                  -4.071
REMARK CONF_INDEPENDENT:        4.176
REMARK UNBOUND:                -4.071
REMARK  14 active torsions:
REMARK  status: ('A' for Active; 'I' for Inactive)
REMARK    1  A    between atoms: C_2  and  C_14 
REMARK    2  A    between atoms: C_2  and  N_3 
REMARK       I    between atoms: N_3  and  C_4 
REMARK    3  A    between atoms: C_4  and  O_6 
REMARK    4  A    between atoms: O_6  and  C_7 
REMARK    5  A    between atoms: C_7  and  C_8 
REMARK       I    between atoms: C_14  and  N_16 
REMARK    6  A    between atoms: N_16  and  C_17 
REMARK    7  A    between atoms: C_17  and  C_18 
REMARK    8  A    between atoms: C_17  and  C_27 
REMARK    9  A    between atoms: C_18  and  S_19 
REMARK   10  A    between atoms: S_19  and  C_20 
REMARK   11  A    between atoms: C_20  and  C_21 
REMARK   12  A    between atoms: C_27  and  O_29 
REMARK   13  A    between atoms: O_29  and  C_30 
REMARK   14  A    between atoms: C_30  and  C_31 
ROOT
ATOM      1  C   UNL d   1      25.228 -16.177  -2.241  0.00  0.00     0.193 C 
ENDROOT
BRANCH   1   2
ATOM      2  N   UNL d   1      26.533 -16.145  -1.487  0.00  0.00    -0.345 N 
ATOM      3  C   UNL d   1      26.853 -17.038  -0.463  0.00  0.00     0.240 C 
ATOM      4  O   UNL d   1      26.151 -18.000  -0.162  0.00  0.00    -0.271 OA
ATOM      5  H   UNL d   1      27.275 -15.610  -1.929  0.00  0.00     0.163 HD
BRANCH   3   6
ATOM      6  C   UNL d   1      28.193 -16.842   0.279  0.00  0.00     0.174 C 
ATOM      7  C   UNL d   1      28.368 -15.347   0.485  0.00  0.00     0.042 C 
BRANCH   6   8
ATOM      8  N   UNL d   1      29.328 -17.442  -0.474  0.00  0.00    -0.324 N 
ATOM      9  C   UNL d   1      29.561 -17.176  -1.804  0.00  0.00     0.361 C 
ATOM     10  O   UNL d   1      28.983 -16.313  -2.462  0.00  0.00    -0.238 OA
ATOM     11  H   UNL d   1      29.721 -18.316  -0.145  0.00  0.00     0.165 HD
BRANCH   9  12
ATOM     12  O   UNL d   1      30.561 -17.936  -2.328  0.00  0.00    -0.299 OA
BRANCH  12  13
ATOM     13  C   UNL d   1      31.116 -17.328  -3.515  0.00  0.00     0.219 C 
BRANCH  13  14
ATOM     14  C   UNL d   1      30.820 -18.126  -4.764  0.00  0.00    -0.034 A 
ATOM     15  C   UNL d   1      30.597 -19.505  -4.680  0.00  0.00     0.009 A 
ATOM     16  C   UNL d   1      30.519 -20.283  -5.835  0.00  0.00     0.001 A 
ATOM     17  C   UNL d   1      30.582 -19.682  -7.089  0.00  0.00     0.000 A 
ATOM     18  C   UNL d   1      30.778 -18.306  -7.192  0.00  0.00     0.001 A 
ATOM     19  C   UNL d   1      30.914 -17.532  -6.035  0.00  0.00     0.009 A 
ENDBRANCH  13  14
ENDBRANCH  12  13
ENDBRANCH   9  12
ENDBRANCH   6   8
ENDBRANCH   3   6
ENDBRANCH   1   2
BRANCH   1  20
ATOM     20  C   UNL d   1      24.000 -16.215  -1.279  0.00  0.00     0.109 C 
BRANCH  20  21
ATOM     21  S   UNL d   1      23.235 -17.867  -1.316  0.00  0.00    -0.162 SA
BRANCH  21  22
ATOM     22  C   UNL d   1      22.706 -18.279   0.362  0.00  0.00     0.112 C 
BRANCH  22  23
ATOM     23  C   UNL d   1      21.361 -18.986   0.252  0.00  0.00    -0.049 A 
ATOM     24  C   UNL d   1      20.731 -19.197  -0.985  0.00  0.00     0.008 A 
ATOM     25  C   UNL d   1      19.423 -19.700  -1.039  0.00  0.00     0.001 A 
ATOM     26  C   UNL d   1      18.758 -20.064   0.131  0.00  0.00     0.000 A 
ATOM     27  C   UNL d   1      19.372 -19.869   1.364  0.00  0.00     0.001 A 
ATOM     28  C   UNL d   1      20.657 -19.327   1.423  0.00  0.00     0.008 A 
ENDBRANCH  22  23
ENDBRANCH  21  22
ENDBRANCH  20  21
ENDBRANCH   1  20
BRANCH   1  29
ATOM     29  C   UNL d   1      25.107 -14.932  -3.176  0.00  0.00     0.282 C 
ATOM     30  O   UNL d   1      24.046 -14.361  -3.408  0.00  0.00    -0.263 OA
BRANCH  29  31
ATOM     31  O   UNL d   1      26.312 -14.537  -3.688  0.00  0.00    -0.315 OA
BRANCH  31  32
ATOM     32  C   UNL d   1      26.777 -15.255  -4.861  0.00  0.00     0.217 C 
BRANCH  32  33
ATOM     33  C   UNL d   1      28.161 -14.767  -5.251  0.00  0.00    -0.034 A 
ATOM     34  C   UNL d   1      28.948 -14.096  -4.304  0.00  0.00     0.009 A 
ATOM     35  C   UNL d   1      30.193 -13.567  -4.649  0.00  0.00     0.001 A 
ATOM     36  C   UNL d   1      30.704 -13.761  -5.928  0.00  0.00     0.000 A 
ATOM     37  C   UNL d   1      29.935 -14.417  -6.887  0.00  0.00     0.001 A 
ATOM     38  C   UNL d   1      28.661 -14.901  -6.558  0.00  0.00     0.009 A 
ENDBRANCH  32  33
ENDBRANCH  31  32
ENDBRANCH  29  31
ENDBRANCH   1  29
TORSDOF 14
ENDMDL
MODEL 6
REMARK VINA RESULT:    -8.242      3.798      9.310
REMARK INTER + INTRA:         -16.743
REMARK INTER:                 -12.418
REMARK INTRA:                  -4.325
REMARK CONF_INDEPENDENT:        4.176
REMARK UNBOUND:                -4.325
REMARK  14 active torsions:
REMARK  status: ('A' for Active; 'I' for Inactive)
REMARK    1  A    between atoms: C_2  and  C_14 
REMARK    2  A    between atoms: C_2  and  N_3 
REMARK       I    between atoms: N_3  and  C_4 
REMARK    3  A    between atoms: C_4  and  O_6 
REMARK    4  A    between atoms: O_6  and  C_7 
REMARK    5  A    between atoms: C_7  and  C_8 
REMARK       I    between atoms: C_14  and  N_16 
REMARK    6  A    between atoms: N_16  and  C_17 
REMARK    7  A    between atoms: C_17  and  C_18 
REMARK    8  A    between atoms: C_17  and  C_27 
REMARK    9  A    between atoms: C_18  and  S_19 
REMARK   10  A    between atoms: S_19  and  C_20 
REMARK   11  A    between atoms: C_20  and  C_21 
REMARK   12  A    between atoms: C_27  and  O_29 
REMARK   13  A    between atoms: O_29  and  C_30 
REMARK   14  A    between atoms: C_30  and  C_31 
ROOT
ATOM      1  C   UNL d   1      27.327 -14.353  -0.621  0.00  0.00     0.193 C 
ENDROOT
BRANCH   1   2
ATOM      2  N   UNL d   1      26.585 -14.199  -1.924  0.00  0.00    -0.345 N 
ATOM      3  C   UNL d   1      26.338 -12.964  -2.528  0.00  0.00     0.240 C 
ATOM      4  O   UNL d   1      26.800 -11.905  -2.113  0.00  0.00    -0.271 OA
ATOM      5  H   UNL d   1      26.498 -15.048  -2.475  0.00  0.00     0.163 HD
BRANCH   3   6
ATOM      6  C   UNL d   1      25.498 -12.946  -3.824  0.00  0.00     0.174 C 
ATOM      7  C   UNL d   1      24.213 -13.700  -3.526  0.00  0.00     0.042 C 
BRANCH   6   8
ATOM      8  N   UNL d   1      26.244 -13.536  -4.968  0.00  0.00    -0.324 N 
ATOM      9  C   UNL d   1      26.441 -14.890  -5.108  0.00  0.00     0.361 C 
ATOM     10  O   UNL d   1      25.900 -15.756  -4.422  0.00  0.00    -0.238 OA
ATOM     11  H   UNL d   1      26.921 -12.960  -5.455  0.00  0.00     0.165 HD
BRANCH   9  12
ATOM     12  O   UNL d   1      27.266 -15.200  -6.145  0.00  0.00    -0.299 OA
BRANCH  12  13
ATOM     13  C   UNL d   1      28.625 -14.790  -5.875  0.00  0.00     0.219 C 
BRANCH  13  14
ATOM     14  C   UNL d   1      29.384 -15.809  -5.057  0.00  0.00    -0.034 A 
ATOM     15  C   UNL d   1      30.230 -16.727  -5.688  0.00  0.00     0.009 A 
ATOM     16  C   UNL d   1      30.780 -17.792  -4.974  0.00  0.00     0.001 A 
ATOM     17  C   UNL d   1      30.558 -17.906  -3.605  0.00  0.00     0.000 A 
ATOM     18  C   UNL d   1      29.738 -16.985  -2.954  0.00  0.00     0.001 A 
ATOM     19  C   UNL d   1      29.140 -15.950  -3.679  0.00  0.00     0.009 A 
ENDBRANCH  13  14
ENDBRANCH  12  13
ENDBRANCH   9  12
ENDBRANCH   6   8
ENDBRANCH   3   6
ENDBRANCH   1   2
BRANCH   1  20
ATOM     20  C   UNL d   1      26.442 -13.959   0.603  0.00  0.00     0.109 C 
BRANCH  20  21
ATOM     21  S   UNL d   1      27.476 -13.208   1.899  0.00  0.00    -0.162 SA
BRANCH  21  22
ATOM     22  C   UNL d   1      28.151 -14.537   2.922  0.00  0.00     0.112 C 
BRANCH  22  23
ATOM     23  C   UNL d   1      28.190 -14.028   4.357  0.00  0.00    -0.049 A 
ATOM     24  C   UNL d   1      27.780 -12.729   4.698  0.00  0.00     0.008 A 
ATOM     25  C   UNL d   1      27.982 -12.237   5.995  0.00  0.00     0.001 A 
ATOM     26  C   UNL d   1      28.528 -13.056   6.983  0.00  0.00     0.000 A 
ATOM     27  C   UNL d   1      28.931 -14.348   6.664  0.00  0.00     0.001 A 
ATOM     28  C   UNL d   1      28.771 -14.825   5.362  0.00  0.00     0.008 A 
ENDBRANCH  22  23
ENDBRANCH  21  22
ENDBRANCH  20  21
ENDBRANCH   1  20
BRANCH   1  29
ATOM     29  C   UNL d   1      27.819 -15.825  -0.443  0.00  0.00     0.282 C 
ATOM     30  O   UNL d   1      28.741 -16.144   0.300  0.00  0.00    -0.263 OA
BRANCH  29  31
ATOM     31  O   UNL d   1      27.097 -16.715  -1.189  0.00  0.00    -0.315 OA
BRANCH  31  32
ATOM     32  C   UNL d   1      26.473 -17.804  -0.460  0.00  0.00     0.217 C 
BRANCH  32  33
ATOM     33  C   UNL d   1      24.963 -17.636  -0.472  0.00  0.00    -0.034 A 
ATOM     34  C   UNL d   1      24.145 -18.726  -0.145  0.00  0.00     0.009 A 
ATOM     35  C   UNL d   1      22.754 -18.629  -0.220  0.00  0.00     0.001 A 
ATOM     36  C   UNL d   1      22.155 -17.419  -0.557  0.00  0.00     0.000 A 
ATOM     37  C   UNL d   1      22.950 -16.326  -0.895  0.00  0.00     0.001 A 
ATOM     38  C   UNL d   1      24.348 -16.437  -0.873  0.00  0.00     0.009 A 
ENDBRANCH  32  33
ENDBRANCH  31  32
ENDBRANCH  29  31
ENDBRANCH   1  29
TORSDOF 14
ENDMDL
MODEL 7
REMARK VINA RESULT:    -8.189      2.214      8.213
REMARK INTER + INTRA:         -16.321
REMARK INTER:                 -12.366
REMARK INTRA:                  -3.955
REMARK CONF_INDEPENDENT:        4.176
REMARK UNBOUND:                -3.955
REMARK  14 active torsions:
REMARK  status: ('A' for Active; 'I' for Inactive)
REMARK    1  A    between atoms: C_2  and  C_14 
REMARK    2  A    between atoms: C_2  and  N_3 
REMARK       I    between atoms: N_3  and  C_4 
REMARK    3  A    between atoms: C_4  and  O_6 
REMARK    4  A    between atoms: O_6  and  C_7 
REMARK    5  A    between atoms: C_7  and  C_8 
REMARK       I    between atoms: C_14  and  N_16 
REMARK    6  A    between atoms: N_16  and  C_17 
REMARK    7  A    between atoms: C_17  and  C_18 
REMARK    8  A    between atoms: C_17  and  C_27 
REMARK    9  A    between atoms: C_18  and  S_19 
REMARK   10  A    between atoms: S_19  and  C_20 
REMARK   11  A    between atoms: C_20  and  C_21 
REMARK   12  A    between atoms: C_27  and  O_29 
REMARK   13  A    between atoms: O_29  and  C_30 
REMARK   14  A    between atoms: C_30  and  C_31 
ROOT
ATOM      1  C   UNL d   1      25.420 -16.268  -2.547  0.00  0.00     0.193 C 
ENDROOT
BRANCH   1   2
ATOM      2  N   UNL d   1      26.508 -16.218  -1.506  0.00  0.00    -0.345 N 
ATOM      3  C   UNL d   1      26.669 -17.185  -0.511  0.00  0.00     0.240 C 
ATOM      4  O   UNL d   1      26.011 -18.220  -0.465  0.00  0.00    -0.271 OA
ATOM      5  H   UNL d   1      27.278 -15.588  -1.714  0.00  0.00     0.163 HD
BRANCH   3   6
ATOM      6  C   UNL d   1      27.779 -16.968   0.539  0.00  0.00     0.174 C 
ATOM      7  C   UNL d   1      27.568 -15.581   1.124  0.00  0.00     0.042 C 
BRANCH   6   8
ATOM      8  N   UNL d   1      29.134 -17.127  -0.055  0.00  0.00    -0.324 N 
ATOM      9  C   UNL d   1      29.601 -16.321  -1.068  0.00  0.00     0.361 C 
ATOM     10  O   UNL d   1      29.042 -15.302  -1.472  0.00  0.00    -0.238 OA
ATOM     11  H   UNL d   1      29.588 -18.031   0.005  0.00  0.00     0.165 HD
BRANCH   9  12
ATOM     12  O   UNL d   1      30.804 -16.729  -1.557  0.00  0.00    -0.299 OA
BRANCH  12  13
ATOM     13  C   UNL d   1      30.683 -17.980  -2.270  0.00  0.00     0.219 C 
BRANCH  13  14
ATOM     14  C   UNL d   1      30.477 -17.780  -3.755  0.00  0.00    -0.034 A 
ATOM     15  C   UNL d   1      30.749 -18.822  -4.648  0.00  0.00     0.009 A 
ATOM     16  C   UNL d   1      30.754 -18.594  -6.024  0.00  0.00     0.001 A 
ATOM     17  C   UNL d   1      30.407 -17.343  -6.527  0.00  0.00     0.000 A 
ATOM     18  C   UNL d   1      30.108 -16.300  -5.652  0.00  0.00     0.001 A 
ATOM     19  C   UNL d   1      30.159 -16.512  -4.271  0.00  0.00     0.009 A 
ENDBRANCH  13  14
ENDBRANCH  12  13
ENDBRANCH   9  12
ENDBRANCH   6   8
ENDBRANCH   3   6
ENDBRANCH   1   2
BRANCH   1  20
ATOM     20  C   UNL d   1      24.073 -15.693  -2.010  0.00  0.00     0.109 C 
BRANCH  20  21
ATOM     21  S   UNL d   1      23.397 -16.794  -0.727  0.00  0.00    -0.162 SA
BRANCH  21  22
ATOM     22  C   UNL d   1      23.027 -18.389  -1.493  0.00  0.00     0.112 C 
BRANCH  22  23
ATOM     23  C   UNL d   1      21.777 -18.938  -0.817  0.00  0.00    -0.049 A 
ATOM     24  C   UNL d   1      20.644 -19.326  -1.550  0.00  0.00     0.008 A 
ATOM     25  C   UNL d   1      19.455 -19.669  -0.891  0.00  0.00     0.001 A 
ATOM     26  C   UNL d   1      19.403 -19.698   0.502  0.00  0.00     0.000 A 
ATOM     27  C   UNL d   1      20.520 -19.325   1.243  0.00  0.00     0.001 A 
ATOM     28  C   UNL d   1      21.692 -18.940   0.589  0.00  0.00     0.008 A 
ENDBRANCH  22  23
ENDBRANCH  21  22
ENDBRANCH  20  21
ENDBRANCH   1  20
BRANCH   1  29
ATOM     29  C   UNL d   1      25.845 -15.470  -3.821  0.00  0.00     0.282 C 
ATOM     30  O   UNL d   1      25.154 -15.392  -4.832  0.00  0.00    -0.263 OA
BRANCH  29  31
ATOM     31  O   UNL d   1      27.057 -14.853  -3.677  0.00  0.00    -0.315 OA
BRANCH  31  32
ATOM     32  C   UNL d   1      27.513 -14.064  -4.806  0.00  0.00     0.217 C 
BRANCH  32  33
ATOM     33  C   UNL d   1      26.895 -12.678  -4.752  0.00  0.00    -0.034 A 
ATOM     34  C   UNL d   1      26.253 -12.254  -3.580  0.00  0.00     0.009 A 
ATOM     35  C   UNL d   1      25.607 -11.017  -3.521  0.00  0.00     0.001 A 
ATOM     36  C   UNL d   1      25.653 -10.153  -4.611  0.00  0.00     0.000 A 
ATOM     37  C   UNL d   1      26.277 -10.558  -5.788  0.00  0.00     0.001 A 
ATOM     38  C   UNL d   1      26.879 -11.823  -5.868  0.00  0.00     0.009 A 
ENDBRANCH  32  33
ENDBRANCH  31  32
ENDBRANCH  29  31
ENDBRANCH   1  29
TORSDOF 14
ENDMDL
MODEL 8
REMARK VINA RESULT:    -7.391      2.477      3.668
REMARK INTER + INTRA:         -16.156
REMARK INTER:                 -11.567
REMARK INTRA:                  -4.588
REMARK CONF_INDEPENDENT:        4.176
REMARK UNBOUND:                -4.588
REMARK  14 active torsions:
REMARK  status: ('A' for Active; 'I' for Inactive)
REMARK    1  A    between atoms: C_2  and  C_14 
REMARK    2  A    between atoms: C_2  and  N_3 
REMARK       I    between atoms: N_3  and  C_4 
REMARK    3  A    between atoms: C_4  and  O_6 
REMARK    4  A    between atoms: O_6  and  C_7 
REMARK    5  A    between atoms: C_7  and  C_8 
REMARK       I    between atoms: C_14  and  N_16 
REMARK    6  A    between atoms: N_16  and  C_17 
REMARK    7  A    between atoms: C_17  and  C_18 
REMARK    8  A    between atoms: C_17  and  C_27 
REMARK    9  A    between atoms: C_18  and  S_19 
REMARK   10  A    between atoms: S_19  and  C_20 
REMARK   11  A    between atoms: C_20  and  C_21 
REMARK   12  A    between atoms: C_27  and  O_29 
REMARK   13  A    between atoms: O_29  and  C_30 
REMARK   14  A    between atoms: C_30  and  C_31 
ROOT
ATOM      1  C   UNL d   1      28.136 -15.227  -3.922  0.00  0.00     0.193 C 
ENDROOT
BRANCH   1   2
ATOM      2  N   UNL d   1      28.329 -15.481  -2.448  0.00  0.00    -0.345 N 
ATOM      3  C   UNL d   1      29.500 -15.160  -1.758  0.00  0.00     0.240 C 
ATOM      4  O   UNL d   1      30.433 -14.540  -2.263  0.00  0.00    -0.271 OA
ATOM      5  H   UNL d   1      27.477 -15.657  -1.924  0.00  0.00     0.163 HD
BRANCH   3   6
ATOM      6  C   UNL d   1      29.592 -15.546  -0.266  0.00  0.00     0.174 C 
ATOM      7  C   UNL d   1      31.030 -15.965  -0.006  0.00  0.00     0.042 C 
BRANCH   6   8
ATOM      8  N   UNL d   1      28.622 -16.620   0.082  0.00  0.00    -0.324 N 
ATOM      9  C   UNL d   1      27.281 -16.378   0.271  0.00  0.00     0.361 C 
ATOM     10  O   UNL d   1      26.714 -15.316   0.018  0.00  0.00    -0.238 OA
ATOM     11  H   UNL d   1      28.967 -17.456   0.539  0.00  0.00     0.165 HD
BRANCH   9  12
ATOM     12  O   UNL d   1      26.605 -17.470   0.719  0.00  0.00    -0.299 OA
BRANCH  12  13
ATOM     13  C   UNL d   1      26.004 -18.200  -0.374  0.00  0.00     0.219 C 
BRANCH  13  14
ATOM     14  C   UNL d   1      24.507 -18.004  -0.446  0.00  0.00    -0.034 A 
ATOM     15  C   UNL d   1      23.655 -19.113  -0.500  0.00  0.00     0.009 A 
ATOM     16  C   UNL d   1      22.295 -18.950  -0.763  0.00  0.00     0.001 A 
ATOM     17  C   UNL d   1      21.756 -17.674  -0.895  0.00  0.00     0.000 A 
ATOM     18  C   UNL d   1      22.585 -16.557  -0.818  0.00  0.00     0.001 A 
ATOM     19  C   UNL d   1      23.958 -16.721  -0.611  0.00  0.00     0.009 A 
ENDBRANCH  13  14
ENDBRANCH  12  13
ENDBRANCH   9  12
ENDBRANCH   6   8
ENDBRANCH   3   6
ENDBRANCH   1   2
BRANCH   1  20
ATOM     20  C   UNL d   1      29.061 -16.131  -4.794  0.00  0.00     0.109 C 
BRANCH  20  21
ATOM     21  S   UNL d   1      30.287 -15.104  -5.665  0.00  0.00    -0.162 SA
BRANCH  21  22
ATOM     22  C   UNL d   1      31.636 -16.178  -6.208  0.00  0.00     0.112 C 
BRANCH  22  23
ATOM     23  C   UNL d   1      31.222 -17.613  -5.904  0.00  0.00    -0.049 A 
ATOM     24  C   UNL d   1      31.389 -18.182  -4.632  0.00  0.00     0.008 A 
ATOM     25  C   UNL d   1      31.154 -19.548  -4.428  0.00  0.00     0.001 A 
ATOM     26  C   UNL d   1      30.682 -20.346  -5.470  0.00  0.00     0.000 A 
ATOM     27  C   UNL d   1      30.504 -19.796  -6.735  0.00  0.00     0.001 A 
ATOM     28  C   UNL d   1      30.780 -18.445  -6.951  0.00  0.00     0.008 A 
ENDBRANCH  22  23
ENDBRANCH  21  22
ENDBRANCH  20  21
ENDBRANCH   1  20
BRANCH   1  29
ATOM     29  C   UNL d   1      26.649 -15.475  -4.328  0.00  0.00     0.282 C 
ATOM     30  O   UNL d   1      26.273 -15.575  -5.492  0.00  0.00    -0.263 OA
BRANCH  29  31
ATOM     31  O   UNL d   1      25.819 -15.590  -3.248  0.00  0.00    -0.315 OA
BRANCH  31  32
ATOM     32  C   UNL d   1      24.908 -14.483  -3.017  0.00  0.00     0.217 C 
BRANCH  32  33
ATOM     33  C   UNL d   1      25.685 -13.180  -2.951  0.00  0.00    -0.034 A 
ATOM     34  C   UNL d   1      26.530 -12.936  -1.859  0.00  0.00     0.009 A 
ATOM     35  C   UNL d   1      27.200 -11.717  -1.726  0.00  0.00     0.001 A 
ATOM     36  C   UNL d   1      27.090 -10.749  -2.719  0.00  0.00     0.000 A 
ATOM     37  C   UNL d   1      26.248 -10.967  -3.807  0.00  0.00     0.001 A 
ATOM     38  C   UNL d   1      25.532 -12.168  -3.914  0.00  0.00     0.009 A 
ENDBRANCH  32  33
ENDBRANCH  31  32
ENDBRANCH  29  31
ENDBRANCH   1  29
TORSDOF 14
ENDMDL
