MODEL 1
REMARK VINA RESULT:   -10.492      0.000      0.000
REMARK INTER + INTRA:         -14.406
REMARK INTER:                 -13.176
REMARK INTRA:                  -1.229
REMARK CONF_INDEPENDENT:        2.685
REMARK UNBOUND:                -1.229
REMARK  9 active torsions:
REMARK  status: ('A' for Active; 'I' for Inactive)
REMARK    1  A    between atoms: C_2  and  C_3 
REMARK       I    between atoms: C_2  and  N_30 
REMARK    2  A    between atoms: C_3  and  S_4 
REMARK    3  A    between atoms: C_5  and  S_4 
REMARK    4  A    between atoms: N_15  and  N_16 
REMARK       I    between atoms: N_16  and  C_17 
REMARK    5  A    between atoms: C_17  and  C_19 
REMARK    6  A    between atoms: C_19  and  C_20 
REMARK    7  A    between atoms: C_20  and  C_21 
REMARK    8  A    between atoms: N_30  and  C_31 
REMARK    9  A    between atoms: C_31  and  C_32 
ROOT
ATOM      1  C   UNL d   1      25.442 -14.970  -2.542  0.00  0.00     0.274 C 
ATOM      2  N   UNL d   1      25.712 -14.674  -3.932  0.00  0.00    -0.358 N 
ATOM      3  C   UNL d   1      26.996 -14.814  -4.439  0.00  0.00     0.046 A 
ATOM      4  C   UNL d   1      27.240 -14.823  -5.814  0.00  0.00     0.030 A 
ATOM      5  C   UNL d   1      28.535 -15.042  -6.320  0.00  0.00     0.002 A 
ATOM      6  C   UNL d   1      29.613 -15.236  -5.461  0.00  0.00     0.001 A 
ATOM      7  C   UNL d   1      29.388 -15.253  -4.098  0.00  0.00     0.019 A 
ATOM      8  C   UNL d   1      28.085 -15.078  -3.609  0.00  0.00     0.060 A 
ATOM      9  C   UNL d   1      27.875 -15.121  -2.164  0.00  0.00     0.277 C 
ATOM     10  O   UNL d   1      28.818 -15.530  -1.485  0.00  0.00    -0.266 OA
ATOM     11  N   UNL d   1      26.634 -14.662  -1.719  0.00  0.00    -0.221 N 
ATOM     12  H   UNL d   1      25.034 -14.153  -4.471  0.00  0.00     0.162 HD
ENDROOT
BRANCH  11  13
ATOM     13  N   UNL d   1      26.427 -14.427  -0.291  0.00  0.00    -0.262 N 
ATOM     14  C   UNL d   1      27.040 -13.343   0.336  0.00  0.00     0.236 C 
ATOM     15  O   UNL d   1      27.812 -12.536  -0.174  0.00  0.00    -0.272 OA
ATOM     16  H   UNL d   1      25.591 -14.834   0.113  0.00  0.00     0.190 HD
BRANCH  14  17
ATOM     17  C   UNL d   1      26.637 -13.084   1.767  0.00  0.00     0.109 C 
BRANCH  17  18
ATOM     18  C   UNL d   1      27.428 -11.845   2.225  0.00  0.00     0.046 C 
BRANCH  18  19
ATOM     19  C   UNL d   1      27.664 -11.808   3.685  0.00  0.00    -0.050 A 
ATOM     20  C   UNL d   1      28.128 -12.815   4.425  0.00  0.00    -0.006 A 
ATOM     21  C   UNL d   1      28.539 -14.144   4.126  0.00  0.00     0.014 A 
ATOM     22  C   UNL d   1      28.134 -12.289   5.797  0.00  0.00     0.038 A 
ATOM     23  C   UNL d   1      28.924 -14.930   5.140  0.00  0.00     0.001 A 
ATOM     24  C   UNL d   1      28.924 -14.450   6.515  0.00  0.00     0.002 A 
ATOM     25  C   UNL d   1      28.557 -13.203   6.873  0.00  0.00     0.030 A 
ATOM     26  N   UNL d   1      27.741 -11.073   5.853  0.00  0.00    -0.385 N 
ATOM     27  C   UNL d   1      27.406 -10.583   4.502  0.00  0.00     0.155 A 
ATOM     28  H   UNL d   1      27.663 -10.544   6.718  0.00  0.00     0.160 HD
ENDBRANCH  18  19
ENDBRANCH  17  18
ENDBRANCH  14  17
ENDBRANCH  11  13
BRANCH   1  29
ATOM     29  S   UNL d   1      24.949 -16.727  -2.365  0.00  0.00    -0.112 SA
BRANCH  29  30
ATOM     30  C   UNL d   1      23.828 -16.743  -0.891  0.00  0.00     0.180 C 
BRANCH  30  31
ATOM     31  C   UNL d   1      23.915 -18.105  -0.161  0.00  0.00     0.227 C 
ATOM     32  O   UNL d   1      24.927 -18.519   0.405  0.00  0.00    -0.273 OA
ATOM     33  N   UNL d   1      22.805 -18.908  -0.121  0.00  0.00    -0.356 N 
ATOM     34  H   UNL d   1      22.954 -19.785   0.374  0.00  0.00     0.162 HD
BRANCH  33  35
ATOM     35  C   UNL d   1      21.496 -18.667  -0.692  0.00  0.00     0.161 C 
BRANCH  35  36
ATOM     36  C   UNL d   1      20.406 -19.322   0.119  0.00  0.00    -0.041 A 
ATOM     37  C   UNL d   1      20.456 -19.332   1.522  0.00  0.00     0.009 A 
ATOM     38  C   UNL d   1      19.568 -20.121   2.257  0.00  0.00     0.001 A 
ATOM     39  C   UNL d   1      18.552 -20.818   1.607  0.00  0.00     0.000 A 
ATOM     40  C   UNL d   1      18.406 -20.703   0.227  0.00  0.00     0.001 A 
ATOM     41  C   UNL d   1      19.355 -19.999  -0.518  0.00  0.00     0.009 A 
ENDBRANCH  35  36
ENDBRANCH  33  35
ENDBRANCH  30  31
ENDBRANCH  29  30
ENDBRANCH   1  29
TORSDOF 9
ENDMDL
MODEL 2
REMARK VINA RESULT:   -10.031      2.256      9.302
REMARK INTER + INTRA:         -14.143
REMARK INTER:                 -12.716
REMARK INTRA:                  -1.427
REMARK CONF_INDEPENDENT:        2.685
REMARK UNBOUND:                -1.427
REMARK  9 active torsions:
REMARK  status: ('A' for Active; 'I' for Inactive)
REMARK    1  A    between atoms: C_2  and  C_3 
REMARK       I    between atoms: C_2  and  N_30 
REMARK    2  A    between atoms: C_3  and  S_4 
REMARK    3  A    between atoms: C_5  and  S_4 
REMARK    4  A    between atoms: N_15  and  N_16 
REMARK       I    between atoms: N_16  and  C_17 
REMARK    5  A    between atoms: C_17  and  C_19 
REMARK    6  A    between atoms: C_19  and  C_20 
REMARK    7  A    between atoms: C_20  and  C_21 
REMARK    8  A    between atoms: N_30  and  C_31 
REMARK    9  A    between atoms: C_31  and  C_32 
ROOT
ATOM      1  C   UNL d   1      27.436 -15.883   0.589  0.00  0.00     0.274 C 
ATOM      2  N   UNL d   1      28.749 -16.460   0.393  0.00  0.00    -0.358 N 
ATOM      3  C   UNL d   1      29.319 -16.485  -0.871  0.00  0.00     0.046 A 
ATOM      4  C   UNL d   1      30.676 -16.759  -1.054  0.00  0.00     0.030 A 
ATOM      5  C   UNL d   1      31.261 -16.707  -2.334  0.00  0.00     0.002 A 
ATOM      6  C   UNL d   1      30.496 -16.402  -3.456  0.00  0.00     0.001 A 
ATOM      7  C   UNL d   1      29.157 -16.106  -3.292  0.00  0.00     0.019 A 
ATOM      8  C   UNL d   1      28.597 -16.117  -2.006  0.00  0.00     0.060 A 
ATOM      9  C   UNL d   1      27.183 -15.779  -1.863  0.00  0.00     0.277 C 
ATOM     10  O   UNL d   1      26.632 -15.292  -2.851  0.00  0.00    -0.266 OA
ATOM     11  N   UNL d   1      26.612 -16.081  -0.625  0.00  0.00    -0.221 N 
ATOM     12  H   UNL d   1      29.149 -17.042   1.115  0.00  0.00     0.162 HD
ENDROOT
BRANCH  11  13
ATOM     13  N   UNL d   1      25.159 -16.019  -0.473  0.00  0.00    -0.262 N 
ATOM     14  C   UNL d   1      24.390 -17.172  -0.626  0.00  0.00     0.236 C 
ATOM     15  O   UNL d   1      24.791 -18.291  -0.933  0.00  0.00    -0.272 OA
ATOM     16  H   UNL d   1      24.799 -15.243   0.072  0.00  0.00     0.190 HD
BRANCH  14  17
ATOM     17  C   UNL d   1      22.925 -17.047  -0.287  0.00  0.00     0.109 C 
BRANCH  17  18
ATOM     18  C   UNL d   1      22.546 -18.323   0.488  0.00  0.00     0.046 C 
BRANCH  18  19
ATOM     19  C   UNL d   1      21.286 -18.941   0.019  0.00  0.00    -0.050 A 
ATOM     20  C   UNL d   1      20.379 -19.541   0.790  0.00  0.00    -0.006 A 
ATOM     21  C   UNL d   1      20.280 -19.773   2.190  0.00  0.00     0.014 A 
ATOM     22  C   UNL d   1      19.356 -20.018  -0.152  0.00  0.00     0.038 A 
ATOM     23  C   UNL d   1      19.226 -20.465   2.643  0.00  0.00     0.001 A 
ATOM     24  C   UNL d   1      18.203 -20.971   1.738  0.00  0.00     0.002 A 
ATOM     25  C   UNL d   1      18.225 -20.782   0.403  0.00  0.00     0.030 A 
ATOM     26  N   UNL d   1      19.623 -19.698  -1.361  0.00  0.00    -0.385 N 
ATOM     27  C   UNL d   1      20.888 -18.941  -1.421  0.00  0.00     0.155 A 
ATOM     28  H   UNL d   1      19.041 -19.954  -2.155  0.00  0.00     0.160 HD
ENDBRANCH  18  19
ENDBRANCH  17  18
ENDBRANCH  14  17
ENDBRANCH  11  13
BRANCH   1  29
ATOM     29  S   UNL d   1      27.594 -14.103   1.000  0.00  0.00    -0.112 SA
BRANCH  29  30
ATOM     30  C   UNL d   1      28.205 -14.089   2.749  0.00  0.00     0.180 C 
BRANCH  30  31
ATOM     31  C   UNL d   1      29.751 -14.045   2.781  0.00  0.00     0.227 C 
ATOM     32  O   UNL d   1      30.448 -13.665   1.839  0.00  0.00    -0.273 OA
ATOM     33  N   UNL d   1      30.403 -14.440   3.921  0.00  0.00    -0.356 N 
ATOM     34  H   UNL d   1      31.417 -14.384   3.850  0.00  0.00     0.162 HD
BRANCH  33  35
ATOM     35  C   UNL d   1      29.835 -14.921   5.163  0.00  0.00     0.161 C 
BRANCH  35  36
ATOM     36  C   UNL d   1      29.419 -13.783   6.061  0.00  0.00    -0.041 A 
ATOM     37  C   UNL d   1      28.105 -13.288   6.039  0.00  0.00     0.009 A 
ATOM     38  C   UNL d   1      27.783 -12.104   6.706  0.00  0.00     0.001 A 
ATOM     39  C   UNL d   1      28.738 -11.463   7.492  0.00  0.00     0.000 A 
ATOM     40  C   UNL d   1      30.005 -12.023   7.635  0.00  0.00     0.001 A 
ATOM     41  C   UNL d   1      30.359 -13.148   6.887  0.00  0.00     0.009 A 
ENDBRANCH  35  36
ENDBRANCH  33  35
ENDBRANCH  30  31
ENDBRANCH  29  30
ENDBRANCH   1  29
TORSDOF 9
ENDMDL
MODEL 3
REMARK VINA RESULT:    -9.896      3.353      9.555
REMARK INTER + INTRA:         -14.644
REMARK INTER:                 -12.581
REMARK INTRA:                  -2.064
REMARK CONF_INDEPENDENT:        2.685
REMARK UNBOUND:                -2.064
REMARK  9 active torsions:
REMARK  status: ('A' for Active; 'I' for Inactive)
REMARK    1  A    between atoms: C_2  and  C_3 
REMARK       I    between atoms: C_2  and  N_30 
REMARK    2  A    between atoms: C_3  and  S_4 
REMARK    3  A    between atoms: C_5  and  S_4 
REMARK    4  A    between atoms: N_15  and  N_16 
REMARK       I    between atoms: N_16  and  C_17 
REMARK    5  A    between atoms: C_17  and  C_19 
REMARK    6  A    between atoms: C_19  and  C_20 
REMARK    7  A    between atoms: C_20  and  C_21 
REMARK    8  A    between atoms: N_30  and  C_31 
REMARK    9  A    between atoms: C_31  and  C_32 
ROOT
ATOM      1  C   UNL d   1      26.595 -15.573  -2.750  0.00  0.00     0.274 C 
ATOM      2  N   UNL d   1      26.573 -14.215  -3.250  0.00  0.00    -0.358 N 
ATOM      3  C   UNL d   1      26.814 -13.151  -2.393  0.00  0.00     0.046 A 
ATOM      4  C   UNL d   1      27.086 -11.870  -2.878  0.00  0.00     0.030 A 
ATOM      5  C   UNL d   1      27.405 -10.815  -2.003  0.00  0.00     0.002 A 
ATOM      6  C   UNL d   1      27.434 -11.014  -0.626  0.00  0.00     0.001 A 
ATOM      7  C   UNL d   1      27.189 -12.279  -0.128  0.00  0.00     0.019 A 
ATOM      8  C   UNL d   1      26.918 -13.332  -1.014  0.00  0.00     0.060 A 
ATOM      9  C   UNL d   1      26.682 -14.663  -0.459  0.00  0.00     0.277 C 
ATOM     10  O   UNL d   1      26.957 -14.817   0.732  0.00  0.00    -0.266 OA
ATOM     11  N   UNL d   1      26.140 -15.599  -1.341  0.00  0.00    -0.221 N 
ATOM     12  H   UNL d   1      26.162 -14.024  -4.153  0.00  0.00     0.162 HD
ENDROOT
BRANCH  11  13
ATOM     13  N   UNL d   1      25.635 -16.867  -0.818  0.00  0.00    -0.262 N 
ATOM     14  C   UNL d   1      24.270 -17.148  -0.862  0.00  0.00     0.236 C 
ATOM     15  O   UNL d   1      23.377 -16.409  -1.265  0.00  0.00    -0.272 OA
ATOM     16  H   UNL d   1      26.304 -17.628  -0.767  0.00  0.00     0.190 HD
BRANCH  14  17
ATOM     17  C   UNL d   1      23.863 -18.543  -0.455  0.00  0.00     0.109 C 
BRANCH  17  18
ATOM     18  C   UNL d   1      22.663 -18.386   0.498  0.00  0.00     0.046 C 
BRANCH  18  19
ATOM     19  C   UNL d   1      21.412 -18.969  -0.035  0.00  0.00    -0.050 A 
ATOM     20  C   UNL d   1      20.453 -19.548   0.687  0.00  0.00    -0.006 A 
ATOM     21  C   UNL d   1      20.280 -19.785   2.080  0.00  0.00     0.014 A 
ATOM     22  C   UNL d   1      19.465 -19.994  -0.306  0.00  0.00     0.038 A 
ATOM     23  C   UNL d   1      19.188 -20.450   2.477  0.00  0.00     0.001 A 
ATOM     24  C   UNL d   1      18.197 -20.925   1.521  0.00  0.00     0.002 A 
ATOM     25  C   UNL d   1      18.289 -20.730   0.189  0.00  0.00     0.030 A 
ATOM     26  N   UNL d   1      19.799 -19.675  -1.498  0.00  0.00    -0.385 N 
ATOM     27  C   UNL d   1      21.083 -18.951  -1.493  0.00  0.00     0.155 A 
ATOM     28  H   UNL d   1      19.249 -19.911  -2.321  0.00  0.00     0.160 HD
ENDBRANCH  18  19
ENDBRANCH  17  18
ENDBRANCH  14  17
ENDBRANCH  11  13
BRANCH   1  29
ATOM     29  S   UNL d   1      28.284 -16.268  -2.916  0.00  0.00    -0.112 SA
BRANCH  29  30
ATOM     30  C   UNL d   1      29.117 -15.163  -4.146  0.00  0.00     0.180 C 
BRANCH  30  31
ATOM     31  C   UNL d   1      28.392 -15.232  -5.511  0.00  0.00     0.227 C 
ATOM     32  O   UNL d   1      27.168 -15.199  -5.643  0.00  0.00    -0.273 OA
ATOM     33  N   UNL d   1      29.141 -15.326  -6.656  0.00  0.00    -0.356 N 
ATOM     34  H   UNL d   1      28.581 -15.371  -7.506  0.00  0.00     0.162 HD
BRANCH  33  35
ATOM     35  C   UNL d   1      30.582 -15.377  -6.789  0.00  0.00     0.161 C 
BRANCH  35  36
ATOM     36  C   UNL d   1      31.080 -16.796  -6.898  0.00  0.00    -0.041 A 
ATOM     37  C   UNL d   1      32.177 -17.116  -7.713  0.00  0.00     0.009 A 
ATOM     38  C   UNL d   1      32.497 -18.450  -7.979  0.00  0.00     0.001 A 
ATOM     39  C   UNL d   1      31.796 -19.475  -7.347  0.00  0.00     0.000 A 
ATOM     40  C   UNL d   1      30.798 -19.166  -6.427  0.00  0.00     0.001 A 
ATOM     41  C   UNL d   1      30.409 -17.838  -6.239  0.00  0.00     0.009 A 
ENDBRANCH  35  36
ENDBRANCH  33  35
ENDBRANCH  30  31
ENDBRANCH  29  30
ENDBRANCH   1  29
TORSDOF 9
ENDMDL
MODEL 4
REMARK VINA RESULT:    -9.105      2.919      9.318
REMARK INTER + INTRA:         -14.284
REMARK INTER:                 -11.789
REMARK INTRA:                  -2.495
REMARK CONF_INDEPENDENT:        2.685
REMARK UNBOUND:                -2.495
REMARK  9 active torsions:
REMARK  status: ('A' for Active; 'I' for Inactive)
REMARK    1  A    between atoms: C_2  and  C_3 
REMARK       I    between atoms: C_2  and  N_30 
REMARK    2  A    between atoms: C_3  and  S_4 
REMARK    3  A    between atoms: C_5  and  S_4 
REMARK    4  A    between atoms: N_15  and  N_16 
REMARK       I    between atoms: N_16  and  C_17 
REMARK    5  A    between atoms: C_17  and  C_19 
REMARK    6  A    between atoms: C_19  and  C_20 
REMARK    7  A    between atoms: C_20  and  C_21 
REMARK    8  A    between atoms: N_30  and  C_31 
REMARK    9  A    between atoms: C_31  and  C_32 
ROOT
ATOM      1  C   UNL d   1      25.957 -14.775  -2.213  0.00  0.00     0.274 C 
ATOM      2  N   UNL d   1      24.571 -15.151  -2.039  0.00  0.00    -0.358 N 
ATOM      3  C   UNL d   1      24.243 -16.298  -1.331  0.00  0.00     0.046 A 
ATOM      4  C   UNL d   1      22.938 -16.538  -0.895  0.00  0.00     0.030 A 
ATOM      5  C   UNL d   1      22.630 -17.667  -0.113  0.00  0.00     0.002 A 
ATOM      6  C   UNL d   1      23.616 -18.588   0.230  0.00  0.00     0.001 A 
ATOM      7  C   UNL d   1      24.917 -18.356  -0.173  0.00  0.00     0.019 A 
ATOM      8  C   UNL d   1      25.217 -17.204  -0.914  0.00  0.00     0.060 A 
ATOM      9  C   UNL d   1      26.605 -16.976  -1.309  0.00  0.00     0.277 C 
ATOM     10  O   UNL d   1      27.453 -17.694  -0.775  0.00  0.00    -0.266 OA
ATOM     11  N   UNL d   1      26.806 -15.986  -2.273  0.00  0.00    -0.221 N 
ATOM     12  H   UNL d   1      23.862 -14.719  -2.614  0.00  0.00     0.162 HD
ENDROOT
BRANCH  11  13
ATOM     13  N   UNL d   1      28.114 -15.864  -2.913  0.00  0.00    -0.262 N 
ATOM     14  C   UNL d   1      28.203 -15.580  -4.275  0.00  0.00     0.236 C 
ATOM     15  O   UNL d   1      27.272 -15.454  -5.065  0.00  0.00    -0.272 OA
ATOM     16  H   UNL d   1      28.892 -15.643  -2.301  0.00  0.00     0.190 HD
BRANCH  14  17
ATOM     17  C   UNL d   1      29.588 -15.307  -4.811  0.00  0.00     0.109 C 
BRANCH  17  18
ATOM     18  C   UNL d   1      29.826 -16.325  -5.942  0.00  0.00     0.046 C 
BRANCH  18  19
ATOM     19  C   UNL d   1      30.309 -17.637  -5.457  0.00  0.00    -0.050 A 
ATOM     20  C   UNL d   1      30.689 -18.658  -6.224  0.00  0.00    -0.006 A 
ATOM     21  C   UNL d   1      30.781 -18.848  -7.632  0.00  0.00     0.014 A 
ATOM     22  C   UNL d   1      31.030 -19.725  -5.272  0.00  0.00     0.038 A 
ATOM     23  C   UNL d   1      31.174 -20.046  -8.084  0.00  0.00     0.001 A 
ATOM     24  C   UNL d   1      31.500 -21.133  -7.171  0.00  0.00     0.002 A 
ATOM     25  C   UNL d   1      31.445 -21.025  -5.828  0.00  0.00     0.030 A 
ATOM     26  N   UNL d   1      30.893 -19.352  -4.057  0.00  0.00    -0.385 N 
ATOM     27  C   UNL d   1      30.434 -17.951  -4.001  0.00  0.00     0.155 A 
ATOM     28  H   UNL d   1      31.066 -19.956  -3.257  0.00  0.00     0.160 HD
ENDBRANCH  18  19
ENDBRANCH  17  18
ENDBRANCH  14  17
ENDBRANCH  11  13
BRANCH   1  29
ATOM     29  S   UNL d   1      26.477 -13.667  -0.847  0.00  0.00    -0.112 SA
BRANCH  29  30
ATOM     30  C   UNL d   1      28.328 -13.693  -0.915  0.00  0.00     0.180 C 
BRANCH  30  31
ATOM     31  C   UNL d   1      28.882 -14.871  -0.080  0.00  0.00     0.227 C 
ATOM     32  O   UNL d   1      29.577 -15.777  -0.544  0.00  0.00    -0.273 OA
ATOM     33  N   UNL d   1      28.605 -14.923   1.261  0.00  0.00    -0.356 N 
ATOM     34  H   UNL d   1      29.005 -15.734   1.729  0.00  0.00     0.162 HD
BRANCH  33  35
ATOM     35  C   UNL d   1      27.826 -13.996   2.057  0.00  0.00     0.161 C 
BRANCH  35  36
ATOM     36  C   UNL d   1      28.279 -13.983   3.496  0.00  0.00    -0.041 A 
ATOM     37  C   UNL d   1      29.553 -14.450   3.857  0.00  0.00     0.009 A 
ATOM     38  C   UNL d   1      29.883 -14.638   5.201  0.00  0.00     0.001 A 
ATOM     39  C   UNL d   1      28.990 -14.256   6.200  0.00  0.00     0.000 A 
ATOM     40  C   UNL d   1      27.780 -13.660   5.855  0.00  0.00     0.001 A 
ATOM     41  C   UNL d   1      27.405 -13.568   4.512  0.00  0.00     0.009 A 
ENDBRANCH  35  36
ENDBRANCH  33  35
ENDBRANCH  30  31
ENDBRANCH  29  30
ENDBRANCH   1  29
TORSDOF 9
ENDMDL
MODEL 5
REMARK VINA RESULT:    -8.623      4.985     10.320
REMARK INTER + INTRA:         -14.218
REMARK INTER:                 -11.307
REMARK INTRA:                  -2.910
REMARK CONF_INDEPENDENT:        2.685
REMARK UNBOUND:                -2.910
REMARK  9 active torsions:
REMARK  status: ('A' for Active; 'I' for Inactive)
REMARK    1  A    between atoms: C_2  and  C_3 
REMARK       I    between atoms: C_2  and  N_30 
REMARK    2  A    between atoms: C_3  and  S_4 
REMARK    3  A    between atoms: C_5  and  S_4 
REMARK    4  A    between atoms: N_15  and  N_16 
REMARK       I    between atoms: N_16  and  C_17 
REMARK    5  A    between atoms: C_17  and  C_19 
REMARK    6  A    between atoms: C_19  and  C_20 
REMARK    7  A    between atoms: C_20  and  C_21 
REMARK    8  A    between atoms: N_30  and  C_31 
REMARK    9  A    between atoms: C_31  and  C_32 
ROOT
ATOM      1  C   UNL d   1      26.501 -14.831  -3.123  0.00  0.00     0.274 C 
ATOM      2  N   UNL d   1      25.181 -15.289  -2.743  0.00  0.00    -0.358 N 
ATOM      3  C   UNL d   1      25.035 -16.272  -1.775  0.00  0.00     0.046 A 
ATOM      4  C   UNL d   1      23.800 -16.531  -1.179  0.00  0.00     0.030 A 
ATOM      5  C   UNL d   1      23.677 -17.478  -0.145  0.00  0.00     0.002 A 
ATOM      6  C   UNL d   1      24.782 -18.200   0.297  0.00  0.00     0.001 A 
ATOM      7  C   UNL d   1      26.017 -17.942  -0.266  0.00  0.00     0.019 A 
ATOM      8  C   UNL d   1      26.133 -16.964  -1.264  0.00  0.00     0.060 A 
ATOM      9  C   UNL d   1      27.456 -16.700  -1.826  0.00  0.00     0.277 C 
ATOM     10  O   UNL d   1      28.413 -17.195  -1.230  0.00  0.00    -0.266 OA
ATOM     11  N   UNL d   1      27.475 -15.939  -2.997  0.00  0.00    -0.221 N 
ATOM     12  H   UNL d   1      24.390 -15.067  -3.330  0.00  0.00     0.162 HD
ENDROOT
BRANCH  11  13
ATOM     13  N   UNL d   1      28.714 -15.841  -3.766  0.00  0.00    -0.262 N 
ATOM     14  C   UNL d   1      28.677 -15.456  -5.106  0.00  0.00     0.236 C 
ATOM     15  O   UNL d   1      27.678 -15.216  -5.777  0.00  0.00    -0.272 OA
ATOM     16  H   UNL d   1      29.565 -15.713  -3.229  0.00  0.00     0.190 HD
BRANCH  14  17
ATOM     17  C   UNL d   1      30.012 -15.220  -5.769  0.00  0.00     0.109 C 
BRANCH  17  18
ATOM     18  C   UNL d   1      31.028 -16.114  -5.035  0.00  0.00     0.046 C 
BRANCH  18  19
ATOM     19  C   UNL d   1      30.850 -17.556  -5.317  0.00  0.00    -0.050 A 
ATOM     20  C   UNL d   1      31.060 -18.151  -6.491  0.00  0.00    -0.006 A 
ATOM     21  C   UNL d   1      31.498 -17.687  -7.763  0.00  0.00     0.014 A 
ATOM     22  C   UNL d   1      30.701 -19.557  -6.258  0.00  0.00     0.038 A 
ATOM     23  C   UNL d   1      31.561 -18.568  -8.770  0.00  0.00     0.001 A 
ATOM     24  C   UNL d   1      31.194 -19.965  -8.581  0.00  0.00     0.002 A 
ATOM     25  C   UNL d   1      30.780 -20.478  -7.405  0.00  0.00     0.030 A 
ATOM     26  N   UNL d   1      30.345 -19.773  -5.048  0.00  0.00    -0.385 N 
ATOM     27  C   UNL d   1      30.413 -18.524  -4.266  0.00  0.00     0.155 A 
ATOM     28  H   UNL d   1      30.046 -20.681  -4.701  0.00  0.00     0.160 HD
ENDBRANCH  18  19
ENDBRANCH  17  18
ENDBRANCH  14  17
ENDBRANCH  11  13
BRANCH   1  29
ATOM     29  S   UNL d   1      26.986 -13.400  -2.084  0.00  0.00    -0.112 SA
BRANCH  29  30
ATOM     30  C   UNL d   1      26.671 -11.925  -3.159  0.00  0.00     0.180 C 
BRANCH  30  31
ATOM     31  C   UNL d   1      25.530 -12.222  -4.161  0.00  0.00     0.227 C 
ATOM     32  O   UNL d   1      24.584 -12.974  -3.924  0.00  0.00    -0.273 OA
ATOM     33  N   UNL d   1      25.549 -11.611  -5.389  0.00  0.00    -0.356 N 
ATOM     34  H   UNL d   1      24.764 -11.868  -5.984  0.00  0.00     0.162 HD
BRANCH  33  35
ATOM     35  C   UNL d   1      26.528 -10.686  -5.920  0.00  0.00     0.161 C 
BRANCH  35  36
ATOM     36  C   UNL d   1      27.250 -11.263  -7.112  0.00  0.00    -0.041 A 
ATOM     37  C   UNL d   1      26.924 -10.863  -8.417  0.00  0.00     0.009 A 
ATOM     38  C   UNL d   1      27.436 -11.553  -9.519  0.00  0.00     0.001 A 
ATOM     39  C   UNL d   1      28.365 -12.575  -9.332  0.00  0.00     0.000 A 
ATOM     40  C   UNL d   1      28.802 -12.887  -8.048  0.00  0.00     0.001 A 
ATOM     41  C   UNL d   1      28.214 -12.269  -6.941  0.00  0.00     0.009 A 
ENDBRANCH  35  36
ENDBRANCH  33  35
ENDBRANCH  30  31
ENDBRANCH  29  30
ENDBRANCH   1  29
TORSDOF 9
ENDMDL
MODEL 6
REMARK VINA RESULT:    -8.443      3.145      8.904
REMARK INTER + INTRA:         -14.112
REMARK INTER:                 -11.128
REMARK INTRA:                  -2.985
REMARK CONF_INDEPENDENT:        2.685
REMARK UNBOUND:                -2.985
REMARK  9 active torsions:
REMARK  status: ('A' for Active; 'I' for Inactive)
REMARK    1  A    between atoms: C_2  and  C_3 
REMARK       I    between atoms: C_2  and  N_30 
REMARK    2  A    between atoms: C_3  and  S_4 
REMARK    3  A    between atoms: C_5  and  S_4 
REMARK    4  A    between atoms: N_15  and  N_16 
REMARK       I    between atoms: N_16  and  C_17 
REMARK    5  A    between atoms: C_17  and  C_19 
REMARK    6  A    between atoms: C_19  and  C_20 
REMARK    7  A    between atoms: C_20  and  C_21 
REMARK    8  A    between atoms: N_30  and  C_31 
REMARK    9  A    between atoms: C_31  and  C_32 
ROOT
ATOM      1  C   UNL d   1      27.340 -14.126  -0.210  0.00  0.00     0.274 C 
ATOM      2  N   UNL d   1      28.558 -14.063   0.570  0.00  0.00    -0.358 N 
ATOM      3  C   UNL d   1      29.534 -15.038   0.420  0.00  0.00     0.046 A 
ATOM      4  C   UNL d   1      30.823 -14.862   0.925  0.00  0.00     0.030 A 
ATOM      5  C   UNL d   1      31.827 -15.823   0.702  0.00  0.00     0.002 A 
ATOM      6  C   UNL d   1      31.555 -16.987  -0.011  0.00  0.00     0.001 A 
ATOM      7  C   UNL d   1      30.291 -17.168  -0.537  0.00  0.00     0.019 A 
ATOM      8  C   UNL d   1      29.313 -16.182  -0.346  0.00  0.00     0.060 A 
ATOM      9  C   UNL d   1      27.991 -16.393  -0.932  0.00  0.00     0.277 C 
ATOM     10  O   UNL d   1      27.891 -17.316  -1.742  0.00  0.00    -0.266 OA
ATOM     11  N   UNL d   1      26.985 -15.538  -0.479  0.00  0.00    -0.221 N 
ATOM     12  H   UNL d   1      28.601 -13.456   1.376  0.00  0.00     0.162 HD
ENDROOT
BRANCH  11  13
ATOM     13  N   UNL d   1      25.592 -15.833  -0.809  0.00  0.00    -0.262 N 
ATOM     14  C   UNL d   1      24.941 -16.906  -0.202  0.00  0.00     0.236 C 
ATOM     15  O   UNL d   1      25.425 -17.711   0.588  0.00  0.00    -0.272 OA
ATOM     16  H   UNL d   1      25.049 -15.064  -1.187  0.00  0.00     0.190 HD
BRANCH  14  17
ATOM     17  C   UNL d   1      23.462 -17.032  -0.477  0.00  0.00     0.109 C 
BRANCH  17  18
ATOM     18  C   UNL d   1      22.963 -18.224   0.360  0.00  0.00     0.046 C 
BRANCH  18  19
ATOM     19  C   UNL d   1      21.729 -18.840  -0.175  0.00  0.00    -0.050 A 
ATOM     20  C   UNL d   1      20.731 -19.343   0.552  0.00  0.00    -0.006 A 
ATOM     21  C   UNL d   1      20.493 -19.451   1.951  0.00  0.00     0.014 A 
ATOM     22  C   UNL d   1      19.782 -19.866  -0.441  0.00  0.00     0.038 A 
ATOM     23  C   UNL d   1      19.375 -20.067   2.356  0.00  0.00     0.001 A 
ATOM     24  C   UNL d   1      18.422 -20.616   1.402  0.00  0.00     0.002 A 
ATOM     25  C   UNL d   1      18.575 -20.543   0.063  0.00  0.00     0.030 A 
ATOM     26  N   UNL d   1      20.173 -19.660  -1.641  0.00  0.00    -0.385 N 
ATOM     27  C   UNL d   1      21.466 -18.950  -1.642  0.00  0.00     0.155 A 
ATOM     28  H   UNL d   1      19.657 -19.964  -2.464  0.00  0.00     0.160 HD
ENDBRANCH  18  19
ENDBRANCH  17  18
ENDBRANCH  14  17
ENDBRANCH  11  13
BRANCH   1  29
ATOM     29  S   UNL d   1      27.553 -13.186  -1.771  0.00  0.00    -0.112 SA
BRANCH  29  30
ATOM     30  C   UNL d   1      25.829 -12.960  -2.408  0.00  0.00     0.180 C 
BRANCH  30  31
ATOM     31  C   UNL d   1      25.461 -14.100  -3.387  0.00  0.00     0.227 C 
ATOM     32  O   UNL d   1      24.468 -14.819  -3.266  0.00  0.00    -0.273 OA
ATOM     33  N   UNL d   1      26.271 -14.332  -4.469  0.00  0.00    -0.356 N 
ATOM     34  H   UNL d   1      25.956 -15.103  -5.055  0.00  0.00     0.162 HD
BRANCH  33  35
ATOM     35  C   UNL d   1      27.485 -13.641  -4.852  0.00  0.00     0.161 C 
BRANCH  35  36
ATOM     36  C   UNL d   1      28.655 -14.586  -4.953  0.00  0.00    -0.041 A 
ATOM     37  C   UNL d   1      28.908 -15.300  -6.135  0.00  0.00     0.009 A 
ATOM     38  C   UNL d   1      29.853 -16.328  -6.153  0.00  0.00     0.001 A 
ATOM     39  C   UNL d   1      30.634 -16.579  -5.026  0.00  0.00     0.000 A 
ATOM     40  C   UNL d   1      30.489 -15.783  -3.893  0.00  0.00     0.001 A 
ATOM     41  C   UNL d   1      29.475 -14.825  -3.839  0.00  0.00     0.009 A 
ENDBRANCH  35  36
ENDBRANCH  33  35
ENDBRANCH  30  31
ENDBRANCH  29  30
ENDBRANCH   1  29
TORSDOF 9
ENDMDL
MODEL 7
REMARK VINA RESULT:    -8.385      2.755      6.161
REMARK INTER + INTRA:         -14.406
REMARK INTER:                 -11.069
REMARK INTRA:                  -3.336
REMARK CONF_INDEPENDENT:        2.685
REMARK UNBOUND:                -3.336
REMARK  9 active torsions:
REMARK  status: ('A' for Active; 'I' for Inactive)
REMARK    1  A    between atoms: C_2  and  C_3 
REMARK       I    between atoms: C_2  and  N_30 
REMARK    2  A    between atoms: C_3  and  S_4 
REMARK    3  A    between atoms: C_5  and  S_4 
REMARK    4  A    between atoms: N_15  and  N_16 
REMARK       I    between atoms: N_16  and  C_17 
REMARK    5  A    between atoms: C_17  and  C_19 
REMARK    6  A    between atoms: C_19  and  C_20 
REMARK    7  A    between atoms: C_20  and  C_21 
REMARK    8  A    between atoms: N_30  and  C_31 
REMARK    9  A    between atoms: C_31  and  C_32 
ROOT
ATOM      1  C   UNL d   1      27.664 -17.269   0.605  0.00  0.00     0.274 C 
ATOM      2  N   UNL d   1      26.603 -18.252   0.626  0.00  0.00    -0.358 N 
ATOM      3  C   UNL d   1      25.358 -17.948   0.095  0.00  0.00     0.046 A 
ATOM      4  C   UNL d   1      24.413 -18.942  -0.167  0.00  0.00     0.030 A 
ATOM      5  C   UNL d   1      23.183 -18.633  -0.776  0.00  0.00     0.002 A 
ATOM      6  C   UNL d   1      22.864 -17.321  -1.115  0.00  0.00     0.001 A 
ATOM      7  C   UNL d   1      23.795 -16.327  -0.884  0.00  0.00     0.019 A 
ATOM      8  C   UNL d   1      25.035 -16.656  -0.318  0.00  0.00     0.060 A 
ATOM      9  C   UNL d   1      26.006 -15.585  -0.105  0.00  0.00     0.277 C 
ATOM     10  O   UNL d   1      25.758 -14.504  -0.641  0.00  0.00    -0.266 OA
ATOM     11  N   UNL d   1      27.092 -15.907   0.712  0.00  0.00    -0.221 N 
ATOM     12  H   UNL d   1      26.688 -19.064   1.222  0.00  0.00     0.162 HD
ENDROOT
BRANCH  11  13
ATOM     13  N   UNL d   1      27.971 -14.840   1.187  0.00  0.00    -0.262 N 
ATOM     14  C   UNL d   1      27.429 -13.640   1.647  0.00  0.00     0.236 C 
ATOM     15  O   UNL d   1      26.243 -13.325   1.664  0.00  0.00    -0.272 OA
ATOM     16  H   UNL d   1      28.895 -15.125   1.494  0.00  0.00     0.190 HD
BRANCH  14  17
ATOM     17  C   UNL d   1      28.398 -12.667   2.272  0.00  0.00     0.109 C 
BRANCH  17  18
ATOM     18  C   UNL d   1      27.770 -12.221   3.605  0.00  0.00     0.046 C 
BRANCH  18  19
ATOM     19  C   UNL d   1      28.093 -13.120   4.735  0.00  0.00    -0.050 A 
ATOM     20  C   UNL d   1      28.379 -12.735   5.979  0.00  0.00    -0.006 A 
ATOM     21  C   UNL d   1      28.455 -11.467   6.621  0.00  0.00     0.014 A 
ATOM     22  C   UNL d   1      28.667 -13.987   6.692  0.00  0.00     0.038 A 
ATOM     23  C   UNL d   1      28.820 -11.433   7.910  0.00  0.00     0.001 A 
ATOM     24  C   UNL d   1      29.133 -12.651   8.644  0.00  0.00     0.002 A 
ATOM     25  C   UNL d   1      29.074 -13.886   8.105  0.00  0.00     0.030 A 
ATOM     26  N   UNL d   1      28.532 -15.015   5.943  0.00  0.00    -0.385 N 
ATOM     27  C   UNL d   1      28.120 -14.607   4.587  0.00  0.00     0.155 A 
ATOM     28  H   UNL d   1      28.703 -15.968   6.255  0.00  0.00     0.160 HD
ENDBRANCH  18  19
ENDBRANCH  17  18
ENDBRANCH  14  17
ENDBRANCH  11  13
BRANCH   1  29
ATOM     29  S   UNL d   1      28.654 -17.455  -0.928  0.00  0.00    -0.112 SA
BRANCH  29  30
ATOM     30  C   UNL d   1      30.294 -16.704  -0.509  0.00  0.00     0.180 C 
BRANCH  30  31
ATOM     31  C   UNL d   1      30.196 -15.160  -0.506  0.00  0.00     0.227 C 
ATOM     32  O   UNL d   1      30.544 -14.450   0.439  0.00  0.00    -0.273 OA
ATOM     33  N   UNL d   1      29.706 -14.524  -1.617  0.00  0.00    -0.356 N 
ATOM     34  H   UNL d   1      29.673 -13.511  -1.524  0.00  0.00     0.162 HD
BRANCH  33  35
ATOM     35  C   UNL d   1      29.237 -15.107  -2.856  0.00  0.00     0.161 C 
BRANCH  35  36
ATOM     36  C   UNL d   1      27.842 -14.645  -3.196  0.00  0.00    -0.041 A 
ATOM     37  C   UNL d   1      27.484 -13.291  -3.091  0.00  0.00     0.009 A 
ATOM     38  C   UNL d   1      26.147 -12.902  -3.194  0.00  0.00     0.001 A 
ATOM     39  C   UNL d   1      25.169 -13.841  -3.514  0.00  0.00     0.000 A 
ATOM     40  C   UNL d   1      25.533 -15.162  -3.760  0.00  0.00     0.001 A 
ATOM     41  C   UNL d   1      26.852 -15.572  -3.555  0.00  0.00     0.009 A 
ENDBRANCH  35  36
ENDBRANCH  33  35
ENDBRANCH  30  31
ENDBRANCH  29  30
ENDBRANCH   1  29
TORSDOF 9
ENDMDL
MODEL 8
REMARK VINA RESULT:    -8.306      3.613      7.389
REMARK INTER + INTRA:         -14.556
REMARK INTER:                 -10.990
REMARK INTRA:                  -3.565
REMARK CONF_INDEPENDENT:        2.685
REMARK UNBOUND:                -3.565
REMARK  9 active torsions:
REMARK  status: ('A' for Active; 'I' for Inactive)
REMARK    1  A    between atoms: C_2  and  C_3 
REMARK       I    between atoms: C_2  and  N_30 
REMARK    2  A    between atoms: C_3  and  S_4 
REMARK    3  A    between atoms: C_5  and  S_4 
REMARK    4  A    between atoms: N_15  and  N_16 
REMARK       I    between atoms: N_16  and  C_17 
REMARK    5  A    between atoms: C_17  and  C_19 
REMARK    6  A    between atoms: C_19  and  C_20 
REMARK    7  A    between atoms: C_20  and  C_21 
REMARK    8  A    between atoms: N_30  and  C_31 
REMARK    9  A    between atoms: C_31  and  C_32 
ROOT
ATOM      1  C   UNL d   1      29.418 -16.154  -3.486  0.00  0.00     0.274 C 
ATOM      2  N   UNL d   1      29.939 -17.491  -3.675  0.00  0.00    -0.358 N 
ATOM      3  C   UNL d   1      30.424 -17.882  -4.915  0.00  0.00     0.046 A 
ATOM      4  C   UNL d   1      31.190 -19.040  -5.067  0.00  0.00     0.030 A 
ATOM      5  C   UNL d   1      31.740 -19.387  -6.315  0.00  0.00     0.002 A 
ATOM      6  C   UNL d   1      31.517 -18.597  -7.438  0.00  0.00     0.001 A 
ATOM      7  C   UNL d   1      30.779 -17.436  -7.303  0.00  0.00     0.019 A 
ATOM      8  C   UNL d   1      30.275 -17.078  -6.045  0.00  0.00     0.060 A 
ATOM      9  C   UNL d   1      29.517 -15.835  -5.930  0.00  0.00     0.277 C 
ATOM     10  O   UNL d   1      29.561 -15.074  -6.897  0.00  0.00    -0.266 OA
ATOM     11  N   UNL d   1      28.802 -15.670  -4.742  0.00  0.00    -0.221 N 
ATOM     12  H   UNL d   1      29.744 -18.204  -2.986  0.00  0.00     0.162 HD
ENDROOT
BRANCH  11  13
ATOM     13  N   UNL d   1      27.820 -14.592  -4.641  0.00  0.00    -0.262 N 
ATOM     14  C   UNL d   1      26.479 -14.837  -4.936  0.00  0.00     0.236 C 
ATOM     15  O   UNL d   1      25.992 -15.890  -5.337  0.00  0.00    -0.272 OA
ATOM     16  H   UNL d   1      28.068 -13.816  -4.037  0.00  0.00     0.190 HD
BRANCH  14  17
ATOM     17  C   UNL d   1      25.515 -13.713  -4.644  0.00  0.00     0.109 C 
BRANCH  17  18
ATOM     18  C   UNL d   1      24.783 -14.094  -3.344  0.00  0.00     0.046 C 
BRANCH  18  19
ATOM     19  C   UNL d   1      25.683 -14.640  -2.304  0.00  0.00    -0.050 A 
ATOM     20  C   UNL d   1      25.503 -15.783  -1.642  0.00  0.00    -0.006 A 
ATOM     21  C   UNL d   1      24.508 -16.800  -1.690  0.00  0.00     0.014 A 
ATOM     22  C   UNL d   1      26.633 -15.844  -0.703  0.00  0.00     0.038 A 
ATOM     23  C   UNL d   1      24.611 -17.826  -0.834  0.00  0.00     0.001 A 
ATOM     24  C   UNL d   1      25.704 -17.909   0.124  0.00  0.00     0.002 A 
ATOM     25  C   UNL d   1      26.687 -16.990   0.221  0.00  0.00     0.030 A 
ATOM     26  N   UNL d   1      27.420 -14.844  -0.826  0.00  0.00    -0.385 N 
ATOM     27  C   UNL d   1      26.936 -13.941  -1.887  0.00  0.00     0.155 A 
ATOM     28  H   UNL d   1      28.248 -14.703  -0.253  0.00  0.00     0.160 HD
ENDBRANCH  18  19
ENDBRANCH  17  18
ENDBRANCH  14  17
ENDBRANCH  11  13
BRANCH   1  29
ATOM     29  S   UNL d   1      30.762 -15.036  -2.931  0.00  0.00    -0.112 SA
BRANCH  29  30
ATOM     30  C   UNL d   1      31.404 -15.823  -1.383  0.00  0.00     0.180 C 
BRANCH  30  31
ATOM     31  C   UNL d   1      30.251 -16.495  -0.600  0.00  0.00     0.227 C 
ATOM     32  O   UNL d   1      29.650 -17.498  -0.987  0.00  0.00    -0.273 OA
ATOM     33  N   UNL d   1      29.868 -15.963   0.604  0.00  0.00    -0.356 N 
ATOM     34  H   UNL d   1      29.100 -16.466   1.045  0.00  0.00     0.162 HD
BRANCH  33  35
ATOM     35  C   UNL d   1      30.403 -14.805   1.289  0.00  0.00     0.161 C 
BRANCH  35  36
ATOM     36  C   UNL d   1      29.522 -14.383   2.438  0.00  0.00    -0.041 A 
ATOM     37  C   UNL d   1      29.981 -14.450   3.763  0.00  0.00     0.009 A 
ATOM     38  C   UNL d   1      29.097 -14.267   4.829  0.00  0.00     0.001 A 
ATOM     39  C   UNL d   1      27.773 -13.905   4.585  0.00  0.00     0.000 A 
ATOM     40  C   UNL d   1      27.343 -13.698   3.277  0.00  0.00     0.001 A 
ATOM     41  C   UNL d   1      28.197 -13.981   2.208  0.00  0.00     0.009 A 
ENDBRANCH  35  36
ENDBRANCH  33  35
ENDBRANCH  30  31
ENDBRANCH  29  30
ENDBRANCH   1  29
TORSDOF 9
ENDMDL
MODEL 9
REMARK VINA RESULT:    -8.100      3.549      9.133
REMARK INTER + INTRA:         -14.183
REMARK INTER:                 -10.785
REMARK INTRA:                  -3.398
REMARK CONF_INDEPENDENT:        2.685
REMARK UNBOUND:                -3.398
REMARK  9 active torsions:
REMARK  status: ('A' for Active; 'I' for Inactive)
REMARK    1  A    between atoms: C_2  and  C_3 
REMARK       I    between atoms: C_2  and  N_30 
REMARK    2  A    between atoms: C_3  and  S_4 
REMARK    3  A    between atoms: C_5  and  S_4 
REMARK    4  A    between atoms: N_15  and  N_16 
REMARK       I    between atoms: N_16  and  C_17 
REMARK    5  A    between atoms: C_17  and  C_19 
REMARK    6  A    between atoms: C_19  and  C_20 
REMARK    7  A    between atoms: C_20  and  C_21 
REMARK    8  A    between atoms: N_30  and  C_31 
REMARK    9  A    between atoms: C_31  and  C_32 
ROOT
ATOM      1  C   UNL d   1      26.997 -15.723  -0.695  0.00  0.00     0.274 C 
ATOM      2  N   UNL d   1      25.637 -15.571  -1.165  0.00  0.00    -0.358 N 
ATOM      3  C   UNL d   1      24.671 -16.506  -0.824  0.00  0.00     0.046 A 
ATOM      4  C   UNL d   1      23.311 -16.250  -1.007  0.00  0.00     0.030 A 
ATOM      5  C   UNL d   1      22.336 -17.174  -0.588  0.00  0.00     0.002 A 
ATOM      6  C   UNL d   1      22.702 -18.380   0.003  0.00  0.00     0.001 A 
ATOM      7  C   UNL d   1      24.042 -18.641   0.213  0.00  0.00     0.019 A 
ATOM      8  C   UNL d   1      25.001 -17.692  -0.169  0.00  0.00     0.060 A 
ATOM      9  C   UNL d   1      26.409 -17.988   0.085  0.00  0.00     0.277 C 
ATOM     10  O   UNL d   1      26.644 -18.950   0.817  0.00  0.00    -0.266 OA
ATOM     11  N   UNL d   1      27.328 -17.160  -0.563  0.00  0.00    -0.221 N 
ATOM     12  H   UNL d   1      25.441 -14.926  -1.918  0.00  0.00     0.162 HD
ENDROOT
BRANCH  11  13
ATOM     13  N   UNL d   1      28.742 -17.532  -0.577  0.00  0.00    -0.262 N 
ATOM     14  C   UNL d   1      29.582 -17.051  -1.580  0.00  0.00     0.236 C 
ATOM     15  O   UNL d   1      29.263 -16.349  -2.536  0.00  0.00    -0.272 OA
ATOM     16  H   UNL d   1      29.135 -17.828   0.310  0.00  0.00     0.190 HD
BRANCH  14  17
ATOM     17  C   UNL d   1      31.052 -17.350  -1.420  0.00  0.00     0.109 C 
BRANCH  17  18
ATOM     18  C   UNL d   1      31.678 -17.225  -2.821  0.00  0.00     0.046 C 
BRANCH  18  19
ATOM     19  C   UNL d   1      31.367 -18.371  -3.705  0.00  0.00    -0.050 A 
ATOM     20  C   UNL d   1      31.252 -18.321  -5.032  0.00  0.00    -0.006 A 
ATOM     21  C   UNL d   1      31.386 -17.278  -5.991  0.00  0.00     0.014 A 
ATOM     22  C   UNL d   1      30.894 -19.693  -5.420  0.00  0.00     0.038 A 
ATOM     23  C   UNL d   1      31.158 -17.570  -7.279  0.00  0.00     0.001 A 
ATOM     24  C   UNL d   1      30.781 -18.912  -7.698  0.00  0.00     0.002 A 
ATOM     25  C   UNL d   1      30.644 -19.952  -6.849  0.00  0.00     0.030 A 
ATOM     26  N   UNL d   1      30.836 -20.482  -4.415  0.00  0.00    -0.385 N 
ATOM     27  C   UNL d   1      31.155 -19.751  -3.174  0.00  0.00     0.155 A 
ATOM     28  H   UNL d   1      30.588 -21.466  -4.483  0.00  0.00     0.160 HD
ENDBRANCH  18  19
ENDBRANCH  17  18
ENDBRANCH  14  17
ENDBRANCH  11  13
BRANCH   1  29
ATOM     29  S   UNL d   1      27.204 -14.845   0.903  0.00  0.00    -0.112 SA
BRANCH  29  30
ATOM     30  C   UNL d   1      28.375 -13.463   0.518  0.00  0.00     0.180 C 
BRANCH  30  31
ATOM     31  C   UNL d   1      29.442 -13.927  -0.500  0.00  0.00     0.227 C 
ATOM     32  O   UNL d   1      30.399 -14.648  -0.213  0.00  0.00    -0.273 OA
ATOM     33  N   UNL d   1      29.328 -13.533  -1.808  0.00  0.00    -0.356 N 
ATOM     34  H   UNL d   1      30.076 -13.880  -2.405  0.00  0.00     0.162 HD
BRANCH  33  35
ATOM     35  C   UNL d   1      28.310 -12.700  -2.413  0.00  0.00     0.161 C 
BRANCH  35  36
ATOM     36  C   UNL d   1      27.474 -13.473  -3.403  0.00  0.00    -0.041 A 
ATOM     37  C   UNL d   1      26.078 -13.337  -3.431  0.00  0.00     0.009 A 
ATOM     38  C   UNL d   1      25.296 -14.209  -4.194  0.00  0.00     0.001 A 
ATOM     39  C   UNL d   1      25.905 -15.151  -5.020  0.00  0.00     0.000 A 
ATOM     40  C   UNL d   1      27.294 -15.200  -5.107  0.00  0.00     0.001 A 
ATOM     41  C   UNL d   1      28.075 -14.400  -4.268  0.00  0.00     0.009 A 
ENDBRANCH  35  36
ENDBRANCH  33  35
ENDBRANCH  30  31
ENDBRANCH  29  30
ENDBRANCH   1  29
TORSDOF 9
ENDMDL
