MODEL 1
REMARK VINA RESULT:    -7.291      0.000      0.000
REMARK INTER + INTRA:         -10.578
REMARK INTER:                  -8.782
REMARK INTRA:                  -1.796
REMARK CONF_INDEPENDENT:        1.492
REMARK UNBOUND:                -1.796
REMARK  5 active torsions:
REMARK  status: ('A' for Active; 'I' for Inactive)
REMARK       I    between atoms: C_2  and  N_4 
REMARK    1  A    between atoms: N_4  and  N_5 
REMARK    2  A    between atoms: C_6  and  N_5 
REMARK    3  A    between atoms: C_6  and  C_18 
REMARK    4  A    between atoms: C_6  and  C_7 
REMARK    5  A    between atoms: C_7  and  C_9 
ROOT
ATOM      1  C   UNL d   1      25.560 -15.405  -2.044  0.00  0.00     0.184 C 
ENDROOT
BRANCH   1   2
ATOM      2  C   UNL d   1      24.661 -16.456  -1.377  0.00  0.00    -0.031 A 
ATOM      3  C   UNL d   1      23.270 -16.317  -1.257  0.00  0.00     0.009 A 
ATOM      4  C   UNL d   1      22.517 -17.242  -0.520  0.00  0.00     0.001 A 
ATOM      5  C   UNL d   1      23.118 -18.372   0.028  0.00  0.00     0.000 A 
ATOM      6  C   UNL d   1      24.477 -18.575  -0.146  0.00  0.00     0.001 A 
ATOM      7  C   UNL d   1      25.228 -17.636  -0.849  0.00  0.00     0.009 A 
ENDBRANCH   1   2
BRANCH   1   8
ATOM      8  C   UNL d   1      27.096 -15.632  -1.881  0.00  0.00     0.185 C 
ATOM      9  O   UNL d   1      27.700 -16.155  -2.828  0.00  0.00    -0.290 OA
BRANCH   8  10
ATOM     10  C   UNL d   1      27.858 -15.306  -0.649  0.00  0.00     0.040 A 
ATOM     11  C   UNL d   1      28.991 -16.012  -0.256  0.00  0.00     0.104 A 
ATOM     12  N   UNL d   1      29.391 -15.575   0.979  0.00  0.00    -0.364 N 
ATOM     13  C   UNL d   1      28.527 -14.605   1.433  0.00  0.00     0.043 A 
ATOM     14  H   UNL d   1      30.166 -15.949   1.510  0.00  0.00     0.165 HD
ATOM     15  C   UNL d   1      28.477 -13.936   2.669  0.00  0.00     0.030 A 
ATOM     16  C   UNL d   1      27.610 -14.360   0.404  0.00  0.00     0.006 A 
ATOM     17  C   UNL d   1      27.440 -13.021   2.881  0.00  0.00     0.002 A 
ATOM     18  C   UNL d   1      26.536 -12.734   1.875  0.00  0.00     0.001 A 
ATOM     19  C   UNL d   1      26.654 -13.354   0.636  0.00  0.00     0.014 A 
ENDBRANCH   8  10
ENDBRANCH   1   8
BRANCH   1  20
ATOM     20  N   UNL d   1      25.255 -15.190  -3.474  0.00  0.00    -0.221 NA
ATOM     21  H   UNL d   1      25.454 -16.007  -4.056  0.00  0.00     0.147 HD
BRANCH  20  22
ATOM     22  N   UNL d   1      25.740 -14.030  -4.089  0.00  0.00    -0.291 N 
ATOM     23  C   UNL d   1      26.655 -14.146  -5.128  0.00  0.00     0.227 C 
ATOM     24  C   UNL d   1      27.016 -12.821  -5.738  0.00  0.00     0.118 C 
ATOM     25  O   UNL d   1      27.155 -15.203  -5.515  0.00  0.00    -0.273 OA
ATOM     26  H   UNL d   1      25.331 -13.126  -3.875  0.00  0.00     0.183 HD
ENDBRANCH  20  22
ENDBRANCH   1  20
TORSDOF 5
ENDMDL
MODEL 2
REMARK VINA RESULT:    -7.003      2.821      5.179
REMARK INTER + INTRA:         -10.622
REMARK INTER:                  -8.494
REMARK INTRA:                  -2.128
REMARK CONF_INDEPENDENT:        1.492
REMARK UNBOUND:                -2.128
REMARK  5 active torsions:
REMARK  status: ('A' for Active; 'I' for Inactive)
REMARK       I    between atoms: C_2  and  N_4 
REMARK    1  A    between atoms: N_4  and  N_5 
REMARK    2  A    between atoms: C_6  and  N_5 
REMARK    3  A    between atoms: C_6  and  C_18 
REMARK    4  A    between atoms: C_6  and  C_7 
REMARK    5  A    between atoms: C_7  and  C_9 
ROOT
ATOM      1  C   UNL d   1      25.728 -14.629  -3.914  0.00  0.00     0.184 C 
ENDROOT
BRANCH   1   2
ATOM      2  C   UNL d   1      27.088 -14.858  -4.588  0.00  0.00    -0.031 A 
ATOM      3  C   UNL d   1      27.404 -14.382  -5.869  0.00  0.00     0.009 A 
ATOM      4  C   UNL d   1      28.611 -14.735  -6.489  0.00  0.00     0.001 A 
ATOM      5  C   UNL d   1      29.567 -15.485  -5.808  0.00  0.00     0.000 A 
ATOM      6  C   UNL d   1      29.314 -15.898  -4.510  0.00  0.00     0.001 A 
ATOM      7  C   UNL d   1      28.098 -15.575  -3.911  0.00  0.00     0.009 A 
ENDBRANCH   1   2
BRANCH   1   8
ATOM      8  C   UNL d   1      25.735 -14.664  -2.353  0.00  0.00     0.185 C 
ATOM      9  O   UNL d   1      25.902 -13.591  -1.758  0.00  0.00    -0.290 OA
BRANCH   8  10
ATOM     10  C   UNL d   1      25.604 -15.906  -1.549  0.00  0.00     0.040 A 
ATOM     11  C   UNL d   1      26.692 -16.715  -1.232  0.00  0.00     0.104 A 
ATOM     12  N   UNL d   1      26.244 -17.848  -0.606  0.00  0.00    -0.364 N 
ATOM     13  C   UNL d   1      24.872 -17.825  -0.522  0.00  0.00     0.043 A 
ATOM     14  H   UNL d   1      26.826 -18.619  -0.305  0.00  0.00     0.165 HD
ATOM     15  C   UNL d   1      23.971 -18.797  -0.051  0.00  0.00     0.030 A 
ATOM     16  C   UNL d   1      24.452 -16.589  -1.029  0.00  0.00     0.006 A 
ATOM     17  C   UNL d   1      22.602 -18.522  -0.136  0.00  0.00     0.002 A 
ATOM     18  C   UNL d   1      22.155 -17.299  -0.603  0.00  0.00     0.001 A 
ATOM     19  C   UNL d   1      23.070 -16.327  -0.991  0.00  0.00     0.014 A 
ENDBRANCH   8  10
ENDBRANCH   1   8
BRANCH   1  20
ATOM     20  N   UNL d   1      25.045 -13.399  -4.364  0.00  0.00    -0.221 NA
ATOM     21  H   UNL d   1      24.778 -13.423  -5.351  0.00  0.00     0.147 HD
BRANCH  20  22
ATOM     22  N   UNL d   1      25.627 -12.164  -4.053  0.00  0.00    -0.291 N 
ATOM     23  C   UNL d   1      25.846 -11.243  -5.070  0.00  0.00     0.227 C 
ATOM     24  C   UNL d   1      26.399  -9.939  -4.568  0.00  0.00     0.118 C 
ATOM     25  O   UNL d   1      25.642 -11.450  -6.267  0.00  0.00    -0.273 OA
ATOM     26  H   UNL d   1      25.764 -11.890  -3.086  0.00  0.00     0.183 HD
ENDBRANCH  20  22
ENDBRANCH   1  20
TORSDOF 5
ENDMDL
MODEL 3
REMARK VINA RESULT:    -6.980      2.461      5.210
REMARK INTER + INTRA:         -10.347
REMARK INTER:                  -8.471
REMARK INTRA:                  -1.876
REMARK CONF_INDEPENDENT:        1.492
REMARK UNBOUND:                -1.876
REMARK  5 active torsions:
REMARK  status: ('A' for Active; 'I' for Inactive)
REMARK       I    between atoms: C_2  and  N_4 
REMARK    1  A    between atoms: N_4  and  N_5 
REMARK    2  A    between atoms: C_6  and  N_5 
REMARK    3  A    between atoms: C_6  and  C_18 
REMARK    4  A    between atoms: C_6  and  C_7 
REMARK    5  A    between atoms: C_7  and  C_9 
ROOT
ATOM      1  C   UNL d   1      26.002 -16.815  -0.895  0.00  0.00     0.184 C 
ENDROOT
BRANCH   1   2
ATOM      2  C   UNL d   1      24.579 -17.358  -0.692  0.00  0.00    -0.031 A 
ATOM      3  C   UNL d   1      24.306 -18.677  -0.299  0.00  0.00     0.009 A 
ATOM      4  C   UNL d   1      22.989 -19.156  -0.261  0.00  0.00     0.001 A 
ATOM      5  C   UNL d   1      21.915 -18.306  -0.516  0.00  0.00     0.000 A 
ATOM      6  C   UNL d   1      22.155 -16.977  -0.826  0.00  0.00     0.001 A 
ATOM      7  C   UNL d   1      23.467 -16.513  -0.898  0.00  0.00     0.009 A 
ENDBRANCH   1   2
BRANCH   1   8
ATOM      8  C   UNL d   1      26.096 -15.314  -1.311  0.00  0.00     0.185 C 
ATOM      9  O   UNL d   1      26.065 -14.466  -0.408  0.00  0.00    -0.290 OA
BRANCH   8  10
ATOM     10  C   UNL d   1      26.169 -14.845  -2.718  0.00  0.00     0.040 A 
ATOM     11  C   UNL d   1      25.089 -14.261  -3.374  0.00  0.00     0.104 A 
ATOM     12  N   UNL d   1      25.414 -14.060  -4.690  0.00  0.00    -0.364 N 
ATOM     13  C   UNL d   1      26.685 -14.526  -4.934  0.00  0.00     0.043 A 
ATOM     14  H   UNL d   1      24.793 -13.685  -5.395  0.00  0.00     0.165 HD
ATOM     15  C   UNL d   1      27.405 -14.619  -6.138  0.00  0.00     0.030 A 
ATOM     16  C   UNL d   1      27.209 -14.945  -3.705  0.00  0.00     0.006 A 
ATOM     17  C   UNL d   1      28.680 -15.194  -6.099  0.00  0.00     0.002 A 
ATOM     18  C   UNL d   1      29.240 -15.591  -4.898  0.00  0.00     0.001 A 
ATOM     19  C   UNL d   1      28.535 -15.417  -3.712  0.00  0.00     0.014 A 
ENDBRANCH   8  10
ENDBRANCH   1   8
BRANCH   1  20
ATOM     20  N   UNL d   1      26.893 -17.050   0.259  0.00  0.00    -0.221 NA
ATOM     21  H   UNL d   1      26.964 -16.245   0.886  0.00  0.00     0.147 HD
BRANCH  20  22
ATOM     22  N   UNL d   1      28.163 -17.587   0.019  0.00  0.00    -0.291 N 
ATOM     23  C   UNL d   1      29.191 -16.743  -0.383  0.00  0.00     0.227 C 
ATOM     24  C   UNL d   1      30.509 -17.451  -0.521  0.00  0.00     0.118 C 
ATOM     25  O   UNL d   1      29.063 -15.543  -0.633  0.00  0.00    -0.273 OA
ATOM     26  H   UNL d   1      28.368 -18.550   0.263  0.00  0.00     0.183 HD
ENDBRANCH  20  22
ENDBRANCH   1  20
TORSDOF 5
ENDMDL
MODEL 4
REMARK VINA RESULT:    -6.976      2.528      4.513
REMARK INTER + INTRA:         -10.476
REMARK INTER:                  -8.468
REMARK INTRA:                  -2.009
REMARK CONF_INDEPENDENT:        1.492
REMARK UNBOUND:                -2.009
REMARK  5 active torsions:
REMARK  status: ('A' for Active; 'I' for Inactive)
REMARK       I    between atoms: C_2  and  N_4 
REMARK    1  A    between atoms: N_4  and  N_5 
REMARK    2  A    between atoms: C_6  and  N_5 
REMARK    3  A    between atoms: C_6  and  C_18 
REMARK    4  A    between atoms: C_6  and  C_7 
REMARK    5  A    between atoms: C_7  and  C_9 
ROOT
ATOM      1  C   UNL d   1      24.760 -17.082  -1.648  0.00  0.00     0.184 C 
ENDROOT
BRANCH   1   2
ATOM      2  C   UNL d   1      25.202 -15.878  -2.492  0.00  0.00    -0.031 A 
ATOM      3  C   UNL d   1      24.404 -14.744  -2.697  0.00  0.00     0.009 A 
ATOM      4  C   UNL d   1      24.802 -13.736  -3.585  0.00  0.00     0.001 A 
ATOM      5  C   UNL d   1      26.045 -13.790  -4.211  0.00  0.00     0.000 A 
ATOM      6  C   UNL d   1      26.889 -14.860  -3.962  0.00  0.00     0.001 A 
ATOM      7  C   UNL d   1      26.474 -15.878  -3.106  0.00  0.00     0.009 A 
ENDBRANCH   1   2
BRANCH   1   8
ATOM      8  C   UNL d   1      25.622 -17.369  -0.379  0.00  0.00     0.185 C 
ATOM      9  O   UNL d   1      25.221 -18.246   0.399  0.00  0.00    -0.290 OA
BRANCH   8  10
ATOM     10  C   UNL d   1      26.856 -16.622  -0.027  0.00  0.00     0.040 A 
ATOM     11  C   UNL d   1      28.087 -17.246   0.157  0.00  0.00     0.104 A 
ATOM     12  N   UNL d   1      28.998 -16.325   0.605  0.00  0.00    -0.364 N 
ATOM     13  C   UNL d   1      28.391 -15.100   0.750  0.00  0.00     0.043 A 
ATOM     14  H   UNL d   1      29.958 -16.525   0.854  0.00  0.00     0.165 HD
ATOM     15  C   UNL d   1      28.892 -13.889   1.261  0.00  0.00     0.030 A 
ATOM     16  C   UNL d   1      27.077 -15.237   0.285  0.00  0.00     0.006 A 
ATOM     17  C   UNL d   1      28.021 -12.798   1.342  0.00  0.00     0.002 A 
ATOM     18  C   UNL d   1      26.726 -12.890   0.864  0.00  0.00     0.001 A 
ATOM     19  C   UNL d   1      26.280 -14.077   0.293  0.00  0.00     0.014 A 
ENDBRANCH   8  10
ENDBRANCH   1   8
BRANCH   1  20
ATOM     20  N   UNL d   1      23.335 -17.040  -1.261  0.00  0.00    -0.221 NA
ATOM     21  H   UNL d   1      23.091 -16.213  -0.709  0.00  0.00     0.147 HD
BRANCH  20  22
ATOM     22  N   UNL d   1      22.766 -18.184  -0.690  0.00  0.00    -0.291 N 
ATOM     23  C   UNL d   1      21.394 -18.379  -0.785  0.00  0.00     0.227 C 
ATOM     24  C   UNL d   1      20.948 -19.688  -0.198  0.00  0.00     0.118 C 
ATOM     25  O   UNL d   1      20.598 -17.574  -1.270  0.00  0.00    -0.273 OA
ATOM     26  H   UNL d   1      23.358 -18.926  -0.331  0.00  0.00     0.183 HD
ENDBRANCH  20  22
ENDBRANCH   1  20
TORSDOF 5
ENDMDL
MODEL 5
REMARK VINA RESULT:    -6.910      2.688      5.209
REMARK INTER + INTRA:         -10.121
REMARK INTER:                  -8.402
REMARK INTRA:                  -1.719
REMARK CONF_INDEPENDENT:        1.492
REMARK UNBOUND:                -1.719
REMARK  5 active torsions:
REMARK  status: ('A' for Active; 'I' for Inactive)
REMARK       I    between atoms: C_2  and  N_4 
REMARK    1  A    between atoms: N_4  and  N_5 
REMARK    2  A    between atoms: C_6  and  N_5 
REMARK    3  A    between atoms: C_6  and  C_18 
REMARK    4  A    between atoms: C_6  and  C_7 
REMARK    5  A    between atoms: C_7  and  C_9 
ROOT
ATOM      1  C   UNL d   1      27.262 -14.430  -4.730  0.00  0.00     0.184 C 
ENDROOT
BRANCH   1   2
ATOM      2  C   UNL d   1      26.838 -12.966  -4.541  0.00  0.00    -0.031 A 
ATOM      3  C   UNL d   1      26.449 -12.429  -3.305  0.00  0.00     0.009 A 
ATOM      4  C   UNL d   1      25.943 -11.125  -3.217  0.00  0.00     0.001 A 
ATOM      5  C   UNL d   1      25.907 -10.298  -4.337  0.00  0.00     0.000 A 
ATOM      6  C   UNL d   1      26.362 -10.778  -5.554  0.00  0.00     0.001 A 
ATOM      7  C   UNL d   1      26.831 -12.087  -5.646  0.00  0.00     0.009 A 
ENDBRANCH   1   2
BRANCH   1   8
ATOM      8  C   UNL d   1      26.380 -15.488  -3.996  0.00  0.00     0.185 C 
ATOM      9  O   UNL d   1      25.409 -15.949  -4.611  0.00  0.00    -0.290 OA
BRANCH   8  10
ATOM     10  C   UNL d   1      26.605 -15.930  -2.597  0.00  0.00     0.040 A 
ATOM     11  C   UNL d   1      27.843 -15.834  -1.966  0.00  0.00     0.104 A 
ATOM     12  N   UNL d   1      27.775 -16.442  -0.741  0.00  0.00    -0.364 N 
ATOM     13  C   UNL d   1      26.519 -16.969  -0.550  0.00  0.00     0.043 A 
ATOM     14  H   UNL d   1      28.547 -16.547  -0.096  0.00  0.00     0.165 HD
ATOM     15  C   UNL d   1      26.010 -17.752   0.501  0.00  0.00     0.030 A 
ATOM     16  C   UNL d   1      25.746 -16.594  -1.655  0.00  0.00     0.006 A 
ATOM     17  C   UNL d   1      24.688 -18.202   0.406  0.00  0.00     0.002 A 
ATOM     18  C   UNL d   1      23.888 -17.826  -0.657  0.00  0.00     0.001 A 
ATOM     19  C   UNL d   1      24.395 -16.987  -1.644  0.00  0.00     0.014 A 
ENDBRANCH   8  10
ENDBRANCH   1   8
BRANCH   1  20
ATOM     20  N   UNL d   1      27.405 -14.824  -6.147  0.00  0.00    -0.221 NA
ATOM     21  H   UNL d   1      26.777 -15.585  -6.420  0.00  0.00     0.147 HD
BRANCH  20  22
ATOM     22  N   UNL d   1      28.691 -15.060  -6.645  0.00  0.00    -0.291 N 
ATOM     23  C   UNL d   1      29.523 -15.952  -5.980  0.00  0.00     0.227 C 
ATOM     24  C   UNL d   1      30.836 -16.159  -6.680  0.00  0.00     0.118 C 
ATOM     25  O   UNL d   1      29.253 -16.510  -4.915  0.00  0.00    -0.273 OA
ATOM     26  H   UNL d   1      28.967 -14.691  -7.549  0.00  0.00     0.183 HD
ENDBRANCH  20  22
ENDBRANCH   1  20
TORSDOF 5
ENDMDL
MODEL 6
REMARK VINA RESULT:    -6.831      2.284      4.783
REMARK INTER + INTRA:         -10.097
REMARK INTER:                  -8.322
REMARK INTRA:                  -1.775
REMARK CONF_INDEPENDENT:        1.492
REMARK UNBOUND:                -1.775
REMARK  5 active torsions:
REMARK  status: ('A' for Active; 'I' for Inactive)
REMARK       I    between atoms: C_2  and  N_4 
REMARK    1  A    between atoms: N_4  and  N_5 
REMARK    2  A    between atoms: C_6  and  N_5 
REMARK    3  A    between atoms: C_6  and  C_18 
REMARK    4  A    between atoms: C_6  and  C_7 
REMARK    5  A    between atoms: C_7  and  C_9 
ROOT
ATOM      1  C   UNL d   1      26.297 -16.344  -0.861  0.00  0.00     0.184 C 
ENDROOT
BRANCH   1   2
ATOM      2  C   UNL d   1      24.960 -17.062  -0.626  0.00  0.00    -0.031 A 
ATOM      3  C   UNL d   1      24.855 -18.442  -0.400  0.00  0.00     0.009 A 
ATOM      4  C   UNL d   1      23.600 -19.064  -0.326  0.00  0.00     0.001 A 
ATOM      5  C   UNL d   1      22.429 -18.312  -0.379  0.00  0.00     0.000 A 
ATOM      6  C   UNL d   1      22.508 -16.936  -0.520  0.00  0.00     0.001 A 
ATOM      7  C   UNL d   1      23.755 -16.325  -0.627  0.00  0.00     0.009 A 
ENDBRANCH   1   2
BRANCH   1   8
ATOM      8  C   UNL d   1      26.209 -14.795  -1.031  0.00  0.00     0.185 C 
ATOM      9  O   UNL d   1      26.496 -14.095  -0.050  0.00  0.00    -0.290 OA
BRANCH   8  10
ATOM     10  C   UNL d   1      25.756 -14.120  -2.273  0.00  0.00     0.040 A 
ATOM     11  C   UNL d   1      24.780 -14.656  -3.109  0.00  0.00     0.104 A 
ATOM     12  N   UNL d   1      24.674 -13.883  -4.235  0.00  0.00    -0.364 N 
ATOM     13  C   UNL d   1      25.583 -12.852  -4.181  0.00  0.00     0.043 A 
ATOM     14  H   UNL d   1      24.066 -14.073  -5.020  0.00  0.00     0.165 HD
ATOM     15  C   UNL d   1      25.904 -11.870  -5.135  0.00  0.00     0.030 A 
ATOM     16  C   UNL d   1      26.214 -12.928  -2.933  0.00  0.00     0.006 A 
ATOM     17  C   UNL d   1      26.925 -10.963  -4.828  0.00  0.00     0.002 A 
ATOM     18  C   UNL d   1      27.548 -10.992  -3.593  0.00  0.00     0.001 A 
ATOM     19  C   UNL d   1      27.157 -11.925  -2.640  0.00  0.00     0.014 A 
ENDBRANCH   8  10
ENDBRANCH   1   8
BRANCH   1  20
ATOM     20  N   UNL d   1      27.322 -16.658   0.156  0.00  0.00    -0.221 NA
ATOM     21  H   UNL d   1      27.620 -15.841   0.695  0.00  0.00     0.147 HD
BRANCH  20  22
ATOM     22  N   UNL d   1      28.436 -17.410  -0.234  0.00  0.00    -0.291 N 
ATOM     23  C   UNL d   1      29.231 -16.953  -1.277  0.00  0.00     0.227 C 
ATOM     24  C   UNL d   1      30.431 -17.824  -1.523  0.00  0.00     0.118 C 
ATOM     25  O   UNL d   1      28.993 -15.958  -1.964  0.00  0.00    -0.273 OA
ATOM     26  H   UNL d   1      28.738 -18.205   0.320  0.00  0.00     0.183 HD
ENDBRANCH  20  22
ENDBRANCH   1  20
TORSDOF 5
ENDMDL
MODEL 7
REMARK VINA RESULT:    -6.798      1.893      4.931
REMARK INTER + INTRA:         -10.189
REMARK INTER:                  -8.289
REMARK INTRA:                  -1.900
REMARK CONF_INDEPENDENT:        1.492
REMARK UNBOUND:                -1.900
REMARK  5 active torsions:
REMARK  status: ('A' for Active; 'I' for Inactive)
REMARK       I    between atoms: C_2  and  N_4 
REMARK    1  A    between atoms: N_4  and  N_5 
REMARK    2  A    between atoms: C_6  and  N_5 
REMARK    3  A    between atoms: C_6  and  C_18 
REMARK    4  A    between atoms: C_6  and  C_7 
REMARK    5  A    between atoms: C_7  and  C_9 
ROOT
ATOM      1  C   UNL d   1      26.927 -13.893  -2.826  0.00  0.00     0.184 C 
ENDROOT
BRANCH   1   2
ATOM      2  C   UNL d   1      27.140 -12.995  -1.599  0.00  0.00    -0.031 A 
ATOM      3  C   UNL d   1      27.083 -13.466  -0.279  0.00  0.00     0.009 A 
ATOM      4  C   UNL d   1      27.151 -12.578   0.804  0.00  0.00     0.001 A 
ATOM      5  C   UNL d   1      27.376 -11.220   0.597  0.00  0.00     0.000 A 
ATOM      6  C   UNL d   1      27.519 -10.741  -0.696  0.00  0.00     0.001 A 
ATOM      7  C   UNL d   1      27.416 -11.621  -1.771  0.00  0.00     0.009 A 
ENDBRANCH   1   2
BRANCH   1   8
ATOM      8  C   UNL d   1      25.723 -14.881  -2.737  0.00  0.00     0.185 C 
ATOM      9  O   UNL d   1      24.779 -14.705  -3.521  0.00  0.00    -0.290 OA
BRANCH   8  10
ATOM     10  C   UNL d   1      25.620 -15.979  -1.742  0.00  0.00     0.040 A 
ATOM     11  C   UNL d   1      26.722 -16.717  -1.320  0.00  0.00     0.104 A 
ATOM     12  N   UNL d   1      26.298 -17.739  -0.512  0.00  0.00    -0.364 N 
ATOM     13  C   UNL d   1      24.927 -17.714  -0.407  0.00  0.00     0.043 A 
ATOM     14  H   UNL d   1      26.893 -18.447  -0.102  0.00  0.00     0.165 HD
ATOM     15  C   UNL d   1      24.045 -18.606   0.230  0.00  0.00     0.030 A 
ATOM     16  C   UNL d   1      24.485 -16.579  -1.097  0.00  0.00     0.006 A 
ATOM     17  C   UNL d   1      22.672 -18.359   0.128  0.00  0.00     0.002 A 
ATOM     18  C   UNL d   1      22.203 -17.231  -0.521  0.00  0.00     0.001 A 
ATOM     19  C   UNL d   1      23.101 -16.326  -1.076  0.00  0.00     0.014 A 
ENDBRANCH   8  10
ENDBRANCH   1   8
BRANCH   1  20
ATOM     20  N   UNL d   1      26.841 -13.143  -4.097  0.00  0.00    -0.221 NA
ATOM     21  H   UNL d   1      25.924 -13.213  -4.546  0.00  0.00     0.147 HD
BRANCH  20  22
ATOM     22  N   UNL d   1      27.855 -13.322  -5.044  0.00  0.00    -0.291 N 
ATOM     23  C   UNL d   1      27.827 -14.443  -5.864  0.00  0.00     0.227 C 
ATOM     24  C   UNL d   1      28.933 -14.452  -6.881  0.00  0.00     0.118 C 
ATOM     25  O   UNL d   1      27.011 -15.363  -5.777  0.00  0.00    -0.273 OA
ATOM     26  H   UNL d   1      28.526 -12.583  -5.225  0.00  0.00     0.183 HD
ENDBRANCH  20  22
ENDBRANCH   1  20
TORSDOF 5
ENDMDL
MODEL 8
REMARK VINA RESULT:    -6.674      1.416      2.982
REMARK INTER + INTRA:         -10.501
REMARK INTER:                  -8.165
REMARK INTRA:                  -2.336
REMARK CONF_INDEPENDENT:        1.492
REMARK UNBOUND:                -2.336
REMARK  5 active torsions:
REMARK  status: ('A' for Active; 'I' for Inactive)
REMARK       I    between atoms: C_2  and  N_4 
REMARK    1  A    between atoms: N_4  and  N_5 
REMARK    2  A    between atoms: C_6  and  N_5 
REMARK    3  A    between atoms: C_6  and  C_18 
REMARK    4  A    between atoms: C_6  and  C_7 
REMARK    5  A    between atoms: C_7  and  C_9 
ROOT
ATOM      1  C   UNL d   1      24.963 -14.879  -1.988  0.00  0.00     0.184 C 
ENDROOT
BRANCH   1   2
ATOM      2  C   UNL d   1      24.511 -16.174  -1.297  0.00  0.00    -0.031 A 
ATOM      3  C   UNL d   1      25.374 -17.246  -1.027  0.00  0.00     0.009 A 
ATOM      4  C   UNL d   1      24.880 -18.455  -0.518  0.00  0.00     0.001 A 
ATOM      5  C   UNL d   1      23.536 -18.586  -0.175  0.00  0.00     0.000 A 
ATOM      6  C   UNL d   1      22.678 -17.513  -0.355  0.00  0.00     0.001 A 
ATOM      7  C   UNL d   1      23.166 -16.325  -0.895  0.00  0.00     0.009 A 
ENDBRANCH   1   2
BRANCH   1   8
ATOM      8  C   UNL d   1      26.259 -14.226  -1.416  0.00  0.00     0.185 C 
ATOM      9  O   UNL d   1      26.417 -13.011  -1.600  0.00  0.00    -0.290 OA
BRANCH   8  10
ATOM     10  C   UNL d   1      27.329 -14.979  -0.714  0.00  0.00     0.040 A 
ATOM     11  C   UNL d   1      27.572 -14.849   0.650  0.00  0.00     0.104 A 
ATOM     12  N   UNL d   1      28.698 -15.557   0.979  0.00  0.00    -0.364 N 
ATOM     13  C   UNL d   1      29.230 -16.138  -0.148  0.00  0.00     0.043 A 
ATOM     14  H   UNL d   1      29.115 -15.598   1.899  0.00  0.00     0.165 HD
ATOM     15  C   UNL d   1      30.417 -16.873  -0.320  0.00  0.00     0.030 A 
ATOM     16  C   UNL d   1      28.352 -15.862  -1.204  0.00  0.00     0.006 A 
ATOM     17  C   UNL d   1      30.742 -17.304  -1.611  0.00  0.00     0.002 A 
ATOM     18  C   UNL d   1      29.883 -17.075  -2.670  0.00  0.00     0.001 A 
ATOM     19  C   UNL d   1      28.679 -16.412  -2.457  0.00  0.00     0.014 A 
ENDBRANCH   8  10
ENDBRANCH   1   8
BRANCH   1  20
ATOM     20  N   UNL d   1      25.097 -15.008  -3.454  0.00  0.00    -0.221 NA
ATOM     21  H   UNL d   1      25.008 -15.973  -3.784  0.00  0.00     0.147 HD
BRANCH  20  22
ATOM     22  N   UNL d   1      26.182 -14.384  -4.080  0.00  0.00    -0.291 N 
ATOM     23  C   UNL d   1      26.672 -14.908  -5.269  0.00  0.00     0.227 C 
ATOM     24  C   UNL d   1      27.781 -14.083  -5.859  0.00  0.00     0.118 C 
ATOM     25  O   UNL d   1      26.280 -15.950  -5.797  0.00  0.00    -0.273 OA
ATOM     26  H   UNL d   1      26.521 -13.488  -3.746  0.00  0.00     0.183 HD
ENDBRANCH  20  22
ENDBRANCH   1  20
TORSDOF 5
ENDMDL
MODEL 9
REMARK VINA RESULT:    -6.666      2.258      6.010
REMARK INTER + INTRA:         -10.297
REMARK INTER:                  -8.157
REMARK INTRA:                  -2.140
REMARK CONF_INDEPENDENT:        1.492
REMARK UNBOUND:                -2.140
REMARK  5 active torsions:
REMARK  status: ('A' for Active; 'I' for Inactive)
REMARK       I    between atoms: C_2  and  N_4 
REMARK    1  A    between atoms: N_4  and  N_5 
REMARK    2  A    between atoms: C_6  and  N_5 
REMARK    3  A    between atoms: C_6  and  C_18 
REMARK    4  A    between atoms: C_6  and  C_7 
REMARK    5  A    between atoms: C_7  and  C_9 
ROOT
ATOM      1  C   UNL d   1      25.368 -16.563  -0.811  0.00  0.00     0.184 C 
ENDROOT
BRANCH   1   2
ATOM      2  C   UNL d   1      26.757 -16.190  -0.272  0.00  0.00    -0.031 A 
ATOM      3  C   UNL d   1      27.009 -15.033   0.479  0.00  0.00     0.009 A 
ATOM      4  C   UNL d   1      28.318 -14.674   0.829  0.00  0.00     0.001 A 
ATOM      5  C   UNL d   1      29.390 -15.510   0.525  0.00  0.00     0.000 A 
ATOM      6  C   UNL d   1      29.158 -16.700  -0.145  0.00  0.00     0.001 A 
ATOM      7  C   UNL d   1      27.860 -17.036  -0.522  0.00  0.00     0.009 A 
ENDBRANCH   1   2
BRANCH   1   8
ATOM      8  C   UNL d   1      25.181 -16.413  -2.353  0.00  0.00     0.185 C 
ATOM      9  O   UNL d   1      24.780 -17.404  -2.979  0.00  0.00    -0.290 OA
BRANCH   8  10
ATOM     10  C   UNL d   1      25.503 -15.178  -3.113  0.00  0.00     0.040 A 
ATOM     11  C   UNL d   1      24.659 -14.072  -3.144  0.00  0.00     0.104 A 
ATOM     12  N   UNL d   1      25.154 -13.151  -4.030  0.00  0.00    -0.364 N 
ATOM     13  C   UNL d   1      26.302 -13.634  -4.613  0.00  0.00     0.043 A 
ATOM     14  H   UNL d   1      24.712 -12.274  -4.269  0.00  0.00     0.165 HD
ATOM     15  C   UNL d   1      27.100 -13.092  -5.636  0.00  0.00     0.030 A 
ATOM     16  C   UNL d   1      26.587 -14.860  -4.001  0.00  0.00     0.006 A 
ATOM     17  C   UNL d   1      28.199 -13.838  -6.078  0.00  0.00     0.002 A 
ATOM     18  C   UNL d   1      28.526 -15.039  -5.475  0.00  0.00     0.001 A 
ATOM     19  C   UNL d   1      27.763 -15.514  -4.414  0.00  0.00     0.014 A 
ENDBRANCH   8  10
ENDBRANCH   1   8
BRANCH   1  20
ATOM     20  N   UNL d   1      24.918 -17.909  -0.401  0.00  0.00    -0.221 NA
ATOM     21  H   UNL d   1      25.125 -18.633  -1.094  0.00  0.00     0.147 HD
BRANCH  20  22
ATOM     22  N   UNL d   1      23.610 -18.057   0.073  0.00  0.00    -0.291 N 
ATOM     23  C   UNL d   1      22.706 -18.819  -0.657  0.00  0.00     0.227 C 
ATOM     24  C   UNL d   1      21.371 -18.950   0.021  0.00  0.00     0.118 C 
ATOM     25  O   UNL d   1      22.935 -19.325  -1.757  0.00  0.00    -0.273 OA
ATOM     26  H   UNL d   1      23.359 -17.728   1.000  0.00  0.00     0.183 HD
ENDBRANCH  20  22
ENDBRANCH   1  20
TORSDOF 5
ENDMDL
