MODEL 1
REMARK VINA RESULT:    -9.088      0.000      0.000
REMARK INTER + INTRA:         -11.504
REMARK INTER:                 -10.580
REMARK INTRA:                  -0.924
REMARK CONF_INDEPENDENT:        1.492
REMARK UNBOUND:                -0.924
REMARK  5 active torsions:
REMARK  status: ('A' for Active; 'I' for Inactive)
REMARK    1  A    between atoms: C_13  and  C_14 
REMARK    2  A    between atoms: C_18  and  O_19 
REMARK    3  A    between atoms: O_19  and  C_20 
REMARK    4  A    between atoms: C_23  and  N_24 
REMARK    5  A    between atoms: C_28  and  N_29 
ROOT
ATOM      1  C   UNL d   1      27.449 -13.412   1.200  0.00  0.00    -0.014 A 
ATOM      2  C   UNL d   1      27.960 -12.587   0.189  0.00  0.00     0.011 A 
ATOM      3  C   UNL d   1      28.223 -13.106  -1.076  0.00  0.00     0.003 A 
ATOM      4  C   UNL d   1      28.055 -14.470  -1.316  0.00  0.00     0.037 A 
ATOM      5  C   UNL d   1      27.604 -15.307  -0.292  0.00  0.00     0.076 A 
ATOM      6  C   UNL d   1      27.357 -14.781   0.974  0.00  0.00     0.048 A 
ENDROOT
BRANCH   1   7
ATOM      7  C   UNL d   1      26.908 -12.872   2.494  0.00  0.00     0.219 C 
ATOM      8  N   UNL d   1      27.512 -11.608   2.807  0.00  0.00    -0.332 N 
ATOM      9  C   UNL d   1      28.499 -11.434   3.717  0.00  0.00     0.256 C 
ATOM     10  H   UNL d   1      27.439 -10.868   2.120  0.00  0.00     0.165 HD
ATOM     11  C   UNL d   1      28.741 -12.558   4.594  0.00  0.00     0.073 A 
ATOM     12  O   UNL d   1      29.135 -10.382   3.790  0.00  0.00    -0.267 OA
ATOM     13  C   UNL d   1      28.030 -13.723   4.448  0.00  0.00     0.088 A 
ATOM     14  C   UNL d   1      29.650 -12.631   5.680  0.00  0.00    -0.023 A 
ATOM     15  S   UNL d   1      28.507 -14.922   5.564  0.00  0.00    -0.074 SA
ATOM     16  N   UNL d   1      27.059 -13.865   3.529  0.00  0.00    -0.358 N 
ATOM     17  C   UNL d   1      29.630 -13.867   6.299  0.00  0.00     0.018 A 
ATOM     18  C   UNL d   1      30.446 -14.219   7.503  0.00  0.00     0.281 C 
ATOM     19  N   UNL d   1      31.536 -13.161   7.730  0.00  0.00    -0.070 N 
ATOM     20  C   UNL d   1      32.244 -13.319   9.038  0.00  0.00     0.270 C 
ATOM     21  C   UNL d   1      30.976 -11.750   7.582  0.00  0.00     0.239 C 
ATOM     22  H   UNL d   1      32.226 -13.297   6.979  0.00  0.00     0.279 HD
ATOM     23  C   UNL d   1      30.524 -11.517   6.144  0.00  0.00     0.068 C 
ATOM     24  H   UNL d   1      26.686 -14.780   3.290  0.00  0.00     0.162 HD
ENDBRANCH   1   7
BRANCH   5  25
ATOM     25  O   UNL d   1      27.296 -16.606  -0.633  0.00  0.00    -0.308 OA
BRANCH  25  26
ATOM     26  C   UNL d   1      25.968 -16.963  -0.764  0.00  0.00     0.109 A 
ATOM     27  C   UNL d   1      25.569 -17.991   0.110  0.00  0.00     0.042 A 
ATOM     28  C   UNL d   1      24.264 -18.494   0.081  0.00  0.00     0.039 A 
ATOM     29  C   UNL d   1      23.316 -17.900  -0.756  0.00  0.00     0.105 A 
ATOM     30  C   UNL d   1      23.690 -16.875  -1.636  0.00  0.00     0.075 A 
ATOM     31  C   UNL d   1      25.028 -16.429  -1.673  0.00  0.00     0.139 A 
BRANCH  29  32
ATOM     32  N   UNL d   1      21.906 -18.312  -0.671  0.00  0.00    -0.116 N 
ATOM     33  O   UNL d   1      21.043 -17.454  -0.893  0.00  0.00    -0.532 OA
ATOM     34  O   UNL d   1      21.674 -19.502  -0.416  0.00  0.00    -0.532 OA
ENDBRANCH  29  32
BRANCH  31  35
ATOM     35  N   UNL d   1      25.333 -15.340  -2.627  0.00  0.00    -0.113 N 
ATOM     36  O   UNL d   1      25.531 -15.666  -3.807  0.00  0.00    -0.532 OA
ATOM     37  O   UNL d   1      25.342 -14.169  -2.238  0.00  0.00    -0.532 OA
ENDBRANCH  31  35
ENDBRANCH  25  26
ENDBRANCH   5  25
TORSDOF 5
ENDMDL
MODEL 2
REMARK VINA RESULT:    -8.558      3.367      8.196
REMARK INTER + INTRA:         -11.539
REMARK INTER:                 -10.049
REMARK INTRA:                  -1.490
REMARK CONF_INDEPENDENT:        1.492
REMARK UNBOUND:                -1.490
REMARK  5 active torsions:
REMARK  status: ('A' for Active; 'I' for Inactive)
REMARK    1  A    between atoms: C_13  and  C_14 
REMARK    2  A    between atoms: C_18  and  O_19 
REMARK    3  A    between atoms: O_19  and  C_20 
REMARK    4  A    between atoms: C_23  and  N_24 
REMARK    5  A    between atoms: C_28  and  N_29 
ROOT
ATOM      1  C   UNL d   1      29.905 -15.046   0.690  0.00  0.00    -0.014 A 
ATOM      2  C   UNL d   1      31.216 -15.170   1.168  0.00  0.00     0.011 A 
ATOM      3  C   UNL d   1      31.547 -14.710   2.440  0.00  0.00     0.003 A 
ATOM      4  C   UNL d   1      30.589 -14.051   3.211  0.00  0.00     0.037 A 
ATOM      5  C   UNL d   1      29.297 -13.870   2.711  0.00  0.00     0.076 A 
ATOM      6  C   UNL d   1      28.980 -14.321   1.432  0.00  0.00     0.048 A 
ENDROOT
BRANCH   1   7
ATOM      7  C   UNL d   1      29.425 -15.741  -0.554  0.00  0.00     0.219 C 
ATOM      8  N   UNL d   1      28.463 -14.931  -1.247  0.00  0.00    -0.332 N 
ATOM      9  C   UNL d   1      27.125 -15.131  -1.210  0.00  0.00     0.256 C 
ATOM     10  H   UNL d   1      28.741 -13.995  -1.515  0.00  0.00     0.165 HD
ATOM     11  C   UNL d   1      26.699 -16.397  -0.657  0.00  0.00     0.073 A 
ATOM     12  O   UNL d   1      26.332 -14.287  -1.632  0.00  0.00    -0.267 OA
ATOM     13  C   UNL d   1      27.620 -17.289  -0.167  0.00  0.00     0.088 A 
ATOM     14  C   UNL d   1      25.378 -16.904  -0.566  0.00  0.00    -0.023 A 
ATOM     15  S   UNL d   1      26.892 -18.695   0.468  0.00  0.00    -0.074 SA
ATOM     16  N   UNL d   1      28.944 -17.057  -0.212  0.00  0.00    -0.358 N 
ATOM     17  C   UNL d   1      25.334 -18.150   0.031  0.00  0.00     0.018 A 
ATOM     18  C   UNL d   1      24.084 -18.951   0.218  0.00  0.00     0.281 C 
ATOM     19  N   UNL d   1      22.850 -18.068  -0.021  0.00  0.00    -0.070 N 
ATOM     20  C   UNL d   1      21.574 -18.845  -0.077  0.00  0.00     0.270 C 
ATOM     21  C   UNL d   1      23.020 -17.208  -1.269  0.00  0.00     0.239 C 
ATOM     22  H   UNL d   1      22.797 -17.431   0.785  0.00  0.00     0.279 HD
ATOM     23  C   UNL d   1      24.157 -16.213  -1.066  0.00  0.00     0.068 C 
ATOM     24  H   UNL d   1      29.598 -17.615   0.330  0.00  0.00     0.162 HD
ENDBRANCH   1   7
BRANCH   5  25
ATOM     25  O   UNL d   1      28.352 -13.366   3.579  0.00  0.00    -0.308 OA
BRANCH  25  26
ATOM     26  C   UNL d   1      27.777 -12.142   3.301  0.00  0.00     0.109 A 
ATOM     27  C   UNL d   1      27.945 -11.191   4.324  0.00  0.00     0.042 A 
ATOM     28  C   UNL d   1      27.393  -9.911   4.215  0.00  0.00     0.039 A 
ATOM     29  C   UNL d   1      26.752  -9.537   3.031  0.00  0.00     0.105 A 
ATOM     30  C   UNL d   1      26.571 -10.467   1.998  0.00  0.00     0.075 A 
ATOM     31  C   UNL d   1      27.046 -11.787   2.145  0.00  0.00     0.139 A 
BRANCH  29  32
ATOM     32  N   UNL d   1      26.316  -8.144   2.845  0.00  0.00    -0.116 N 
ATOM     33  O   UNL d   1      26.787  -7.290   3.605  0.00  0.00    -0.532 OA
ATOM     34  O   UNL d   1      25.533  -7.911   1.914  0.00  0.00    -0.532 OA
ENDBRANCH  29  32
BRANCH  31  35
ATOM     35  N   UNL d   1      26.818 -12.701   1.003  0.00  0.00    -0.113 N 
ATOM     36  O   UNL d   1      27.452 -12.468  -0.036  0.00  0.00    -0.532 OA
ATOM     37  O   UNL d   1      26.053 -13.660   1.130  0.00  0.00    -0.532 OA
ENDBRANCH  31  35
ENDBRANCH  25  26
ENDBRANCH   5  25
TORSDOF 5
ENDMDL
MODEL 3
REMARK VINA RESULT:    -7.692      4.028      7.963
REMARK INTER + INTRA:         -11.684
REMARK INTER:                  -9.183
REMARK INTRA:                  -2.501
REMARK CONF_INDEPENDENT:        1.492
REMARK UNBOUND:                -2.501
REMARK  5 active torsions:
REMARK  status: ('A' for Active; 'I' for Inactive)
REMARK    1  A    between atoms: C_13  and  C_14 
REMARK    2  A    between atoms: C_18  and  O_19 
REMARK    3  A    between atoms: O_19  and  C_20 
REMARK    4  A    between atoms: C_23  and  N_24 
REMARK    5  A    between atoms: C_28  and  N_29 
ROOT
ATOM      1  C   UNL d   1      26.476 -10.706  -4.007  0.00  0.00    -0.014 A 
ATOM      2  C   UNL d   1      26.298  -9.546  -4.773  0.00  0.00     0.011 A 
ATOM      3  C   UNL d   1      26.521  -8.292  -4.211  0.00  0.00     0.003 A 
ATOM      4  C   UNL d   1      26.847  -8.184  -2.859  0.00  0.00     0.037 A 
ATOM      5  C   UNL d   1      26.965  -9.336  -2.077  0.00  0.00     0.076 A 
ATOM      6  C   UNL d   1      26.725 -10.586  -2.644  0.00  0.00     0.048 A 
ENDROOT
BRANCH   1   7
ATOM      7  C   UNL d   1      26.500 -12.083  -4.610  0.00  0.00     0.219 C 
ATOM      8  N   UNL d   1      25.246 -12.749  -4.403  0.00  0.00    -0.332 N 
ATOM      9  C   UNL d   1      25.028 -13.699  -3.464  0.00  0.00     0.256 C 
ATOM     10  H   UNL d   1      24.408 -12.290  -4.738  0.00  0.00     0.165 HD
ATOM     11  C   UNL d   1      26.215 -14.240  -2.840  0.00  0.00     0.073 A 
ATOM     12  O   UNL d   1      23.892 -14.077  -3.177  0.00  0.00    -0.267 OA
ATOM     13  C   UNL d   1      27.457 -13.759  -3.169  0.00  0.00     0.088 A 
ATOM     14  C   UNL d   1      26.294 -15.290  -1.890  0.00  0.00    -0.023 A 
ATOM     15  S   UNL d   1      28.705 -14.515  -2.284  0.00  0.00    -0.074 SA
ATOM     16  N   UNL d   1      27.639 -12.808  -4.103  0.00  0.00    -0.358 N 
ATOM     17  C   UNL d   1      27.594 -15.544  -1.495  0.00  0.00     0.018 A 
ATOM     18  C   UNL d   1      27.988 -16.627  -0.542  0.00  0.00     0.281 C 
ATOM     19  N   UNL d   1      26.748 -17.169   0.185  0.00  0.00    -0.070 N 
ATOM     20  C   UNL d   1      27.026 -18.402   0.983  0.00  0.00     0.270 C 
ATOM     21  C   UNL d   1      25.595 -17.397  -0.786  0.00  0.00     0.239 C 
ATOM     22  H   UNL d   1      26.456 -16.429   0.838  0.00  0.00     0.279 HD
ATOM     23  C   UNL d   1      25.133 -16.067  -1.371  0.00  0.00     0.068 C 
ATOM     24  H   UNL d   1      28.524 -12.317  -4.193  0.00  0.00     0.162 HD
ENDBRANCH   1   7
BRANCH   5  25
ATOM     25  O   UNL d   1      27.452  -9.180  -0.798  0.00  0.00    -0.308 OA
BRANCH  25  26
ATOM     26  C   UNL d   1      27.326 -10.225   0.096  0.00  0.00     0.109 A 
ATOM     27  C   UNL d   1      27.942 -11.415  -0.335  0.00  0.00     0.042 A 
ATOM     28  C   UNL d   1      27.878 -12.579   0.438  0.00  0.00     0.039 A 
ATOM     29  C   UNL d   1      27.282 -12.534   1.701  0.00  0.00     0.105 A 
ATOM     30  C   UNL d   1      26.662 -11.361   2.151  0.00  0.00     0.075 A 
ATOM     31  C   UNL d   1      26.645 -10.212   1.333  0.00  0.00     0.139 A 
BRANCH  29  32
ATOM     32  N   UNL d   1      27.358 -13.707   2.586  0.00  0.00    -0.116 N 
ATOM     33  O   UNL d   1      27.330 -13.507   3.807  0.00  0.00    -0.532 OA
ATOM     34  O   UNL d   1      27.410 -14.823   2.051  0.00  0.00    -0.532 OA
ENDBRANCH  29  32
BRANCH  31  35
ATOM     35  N   UNL d   1      25.973  -9.016   1.890  0.00  0.00    -0.113 N 
ATOM     36  O   UNL d   1      25.144  -8.450   1.163  0.00  0.00    -0.532 OA
ATOM     37  O   UNL d   1      26.224  -8.654   3.042  0.00  0.00    -0.532 OA
ENDBRANCH  31  35
ENDBRANCH  25  26
ENDBRANCH   5  25
TORSDOF 5
ENDMDL
MODEL 4
REMARK VINA RESULT:    -7.608      4.848      8.707
REMARK INTER + INTRA:         -10.911
REMARK INTER:                  -9.100
REMARK INTRA:                  -1.812
REMARK CONF_INDEPENDENT:        1.492
REMARK UNBOUND:                -1.812
REMARK  5 active torsions:
REMARK  status: ('A' for Active; 'I' for Inactive)
REMARK    1  A    between atoms: C_13  and  C_14 
REMARK    2  A    between atoms: C_18  and  O_19 
REMARK    3  A    between atoms: O_19  and  C_20 
REMARK    4  A    between atoms: C_23  and  N_24 
REMARK    5  A    between atoms: C_28  and  N_29 
ROOT
ATOM      1  C   UNL d   1      26.438 -11.186  -4.970  0.00  0.00    -0.014 A 
ATOM      2  C   UNL d   1      26.021 -10.117  -5.775  0.00  0.00     0.011 A 
ATOM      3  C   UNL d   1      26.401  -8.814  -5.464  0.00  0.00     0.003 A 
ATOM      4  C   UNL d   1      27.132  -8.561  -4.304  0.00  0.00     0.037 A 
ATOM      5  C   UNL d   1      27.497  -9.618  -3.467  0.00  0.00     0.076 A 
ATOM      6  C   UNL d   1      27.101 -10.917  -3.778  0.00  0.00     0.048 A 
ENDROOT
BRANCH   1   7
ATOM      7  C   UNL d   1      26.282 -12.623  -5.383  0.00  0.00     0.219 C 
ATOM      8  N   UNL d   1      24.991 -13.121  -5.004  0.00  0.00    -0.332 N 
ATOM      9  C   UNL d   1      24.761 -13.916  -3.933  0.00  0.00     0.256 C 
ATOM     10  H   UNL d   1      24.176 -12.623  -5.340  0.00  0.00     0.165 HD
ATOM     11  C   UNL d   1      25.937 -14.495  -3.323  0.00  0.00     0.073 A 
ATOM     12  O   UNL d   1      23.620 -14.133  -3.520  0.00  0.00    -0.267 OA
ATOM     13  C   UNL d   1      27.188 -14.193  -3.798  0.00  0.00     0.088 A 
ATOM     14  C   UNL d   1      25.992 -15.418  -2.248  0.00  0.00    -0.023 A 
ATOM     15  S   UNL d   1      28.426 -14.959  -2.906  0.00  0.00    -0.074 SA
ATOM     16  N   UNL d   1      27.384 -13.394  -4.861  0.00  0.00    -0.358 N 
ATOM     17  C   UNL d   1      27.290 -15.756  -1.912  0.00  0.00     0.018 A 
ATOM     18  C   UNL d   1      27.654 -16.745  -0.850  0.00  0.00     0.281 C 
ATOM     19  N   UNL d   1      26.432 -17.056   0.025  0.00  0.00    -0.070 N 
ATOM     20  C   UNL d   1      26.655 -18.200   0.962  0.00  0.00     0.270 C 
ATOM     21  C   UNL d   1      25.187 -17.283  -0.825  0.00  0.00     0.239 C 
ATOM     22  H   UNL d   1      26.265 -16.212   0.592  0.00  0.00     0.279 HD
ATOM     23  C   UNL d   1      24.808 -15.997  -1.551  0.00  0.00     0.068 C 
ATOM     24  H   UNL d   1      28.301 -13.014  -5.076  0.00  0.00     0.162 HD
ENDBRANCH   1   7
BRANCH   5  25
ATOM     25  O   UNL d   1      28.360  -9.331  -2.431  0.00  0.00    -0.308 OA
BRANCH  25  26
ATOM     26  C   UNL d   1      27.863  -9.283  -1.143  0.00  0.00     0.109 A 
ATOM     27  C   UNL d   1      27.663  -7.976  -0.661  0.00  0.00     0.042 A 
ATOM     28  C   UNL d   1      27.197  -7.751   0.638  0.00  0.00     0.039 A 
ATOM     29  C   UNL d   1      26.828  -8.839   1.434  0.00  0.00     0.105 A 
ATOM     30  C   UNL d   1      27.018 -10.150   0.976  0.00  0.00     0.075 A 
ATOM     31  C   UNL d   1      27.575 -10.379  -0.300  0.00  0.00     0.139 A 
BRANCH  29  32
ATOM     32  N   UNL d   1      26.182  -8.606   2.735  0.00  0.00    -0.116 N 
ATOM     33  O   UNL d   1      26.656  -7.723   3.461  0.00  0.00    -0.532 OA
ATOM     34  O   UNL d   1      25.183  -9.285   3.006  0.00  0.00    -0.532 OA
ENDBRANCH  29  32
BRANCH  31  35
ATOM     35  N   UNL d   1      27.735 -11.793  -0.704  0.00  0.00    -0.113 N 
ATOM     36  O   UNL d   1      28.846 -12.309  -0.513  0.00  0.00    -0.532 OA
ATOM     37  O   UNL d   1      26.773 -12.409  -1.172  0.00  0.00    -0.532 OA
ENDBRANCH  31  35
ENDBRANCH  25  26
ENDBRANCH   5  25
TORSDOF 5
ENDMDL
MODEL 5
REMARK VINA RESULT:    -6.117      5.058      7.503
REMARK INTER + INTRA:         -11.321
REMARK INTER:                  -7.609
REMARK INTRA:                  -3.712
REMARK CONF_INDEPENDENT:        1.492
REMARK UNBOUND:                -3.712
REMARK  5 active torsions:
REMARK  status: ('A' for Active; 'I' for Inactive)
REMARK    1  A    between atoms: C_13  and  C_14 
REMARK    2  A    between atoms: C_18  and  O_19 
REMARK    3  A    between atoms: O_19  and  C_20 
REMARK    4  A    between atoms: C_23  and  N_24 
REMARK    5  A    between atoms: C_28  and  N_29 
ROOT
ATOM      1  C   UNL d   1      26.795 -16.882  -0.848  0.00  0.00    -0.014 A 
ATOM      2  C   UNL d   1      25.856 -17.826  -0.412  0.00  0.00     0.011 A 
ATOM      3  C   UNL d   1      24.533 -17.749  -0.838  0.00  0.00     0.003 A 
ATOM      4  C   UNL d   1      24.121 -16.684  -1.638  0.00  0.00     0.037 A 
ATOM      5  C   UNL d   1      25.042 -15.706  -2.023  0.00  0.00     0.076 A 
ATOM      6  C   UNL d   1      26.360 -15.783  -1.580  0.00  0.00     0.048 A 
ENDROOT
BRANCH   1   7
ATOM      7  C   UNL d   1      28.274 -17.049  -0.636  0.00  0.00     0.219 C 
ATOM      8  N   UNL d   1      28.773 -16.050   0.267  0.00  0.00    -0.332 N 
ATOM      9  C   UNL d   1      29.450 -14.942  -0.113  0.00  0.00     0.256 C 
ATOM     10  H   UNL d   1      28.344 -15.987   1.182  0.00  0.00     0.165 HD
ATOM     11  C   UNL d   1      29.915 -14.936  -1.483  0.00  0.00     0.073 A 
ATOM     12  O   UNL d   1      29.659 -14.011   0.666  0.00  0.00    -0.267 OA
ATOM     13  C   UNL d   1      29.624 -15.982  -2.322  0.00  0.00     0.088 A 
ATOM     14  C   UNL d   1      30.708 -13.952  -2.125  0.00  0.00    -0.023 A 
ATOM     15  S   UNL d   1      30.240 -15.745  -3.896  0.00  0.00    -0.074 SA
ATOM     16  N   UNL d   1      28.942 -17.067  -1.914  0.00  0.00    -0.358 N 
ATOM     17  C   UNL d   1      30.960 -14.263  -3.448  0.00  0.00     0.018 A 
ATOM     18  C   UNL d   1      31.810 -13.436  -4.361  0.00  0.00     0.281 C 
ATOM     19  N   UNL d   1      32.064 -12.055  -3.739  0.00  0.00    -0.070 N 
ATOM     20  C   UNL d   1      33.087 -11.256  -4.481  0.00  0.00     0.270 C 
ATOM     21  C   UNL d   1      32.429 -12.173  -2.264  0.00  0.00     0.239 C 
ATOM     22  H   UNL d   1      31.169 -11.550  -3.794  0.00  0.00     0.279 HD
ATOM     23  C   UNL d   1      31.247 -12.724  -1.475  0.00  0.00     0.068 C 
ATOM     24  H   UNL d   1      28.556 -17.731  -2.580  0.00  0.00     0.162 HD
ENDBRANCH   1   7
BRANCH   5  25
ATOM     25  O   UNL d   1      24.620 -14.775  -2.948  0.00  0.00    -0.308 OA
BRANCH  25  26
ATOM     26  C   UNL d   1      25.534 -13.867  -3.445  0.00  0.00     0.109 A 
ATOM     27  C   UNL d   1      25.530 -12.632  -2.770  0.00  0.00     0.042 A 
ATOM     28  C   UNL d   1      26.372 -11.590  -3.171  0.00  0.00     0.039 A 
ATOM     29  C   UNL d   1      27.302 -11.811  -4.190  0.00  0.00     0.105 A 
ATOM     30  C   UNL d   1      27.324 -13.032  -4.878  0.00  0.00     0.075 A 
ATOM     31  C   UNL d   1      26.412 -14.052  -4.535  0.00  0.00     0.139 A 
BRANCH  29  32
ATOM     32  N   UNL d   1      28.301 -10.777  -4.504  0.00  0.00    -0.116 N 
ATOM     33  O   UNL d   1      27.890  -9.697  -4.944  0.00  0.00    -0.532 OA
ATOM     34  O   UNL d   1      29.489 -11.043  -4.273  0.00  0.00    -0.532 OA
ENDBRANCH  29  32
BRANCH  31  35
ATOM     35  N   UNL d   1      26.510 -15.310  -5.309  0.00  0.00    -0.113 N 
ATOM     36  O   UNL d   1      27.612 -15.574  -5.811  0.00  0.00    -0.532 OA
ATOM     37  O   UNL d   1      25.530 -16.055  -5.395  0.00  0.00    -0.532 OA
ENDBRANCH  31  35
ENDBRANCH  25  26
ENDBRANCH   5  25
TORSDOF 5
ENDMDL
