MODEL 1
REMARK VINA RESULT:    -9.120      0.000      0.000
REMARK INTER + INTRA:         -13.341
REMARK INTER:                 -11.506
REMARK INTRA:                  -1.835
REMARK CONF_INDEPENDENT:        2.386
REMARK UNBOUND:                -1.835
REMARK  8 active torsions:
REMARK  status: ('A' for Active; 'I' for Inactive)
REMARK    1  A    between atoms: C_4  and  C_5 
REMARK    2  A    between atoms: C_6  and  C_7 
REMARK    3  A    between atoms: N_9  and  C_10 
REMARK    4  A    between atoms: C_10  and  C_11 
REMARK    5  A    between atoms: C_11  and  C_12 
REMARK    6  A    between atoms: C_12  and  S_13 
REMARK    7  A    between atoms: S_13  and  C_14 
REMARK    8  A    between atoms: C_14  and  N_15 
ROOT
ATOM      1  C   UNL d   1      25.479 -15.438  -1.928  0.00  0.00     0.009 A 
ATOM      2  C   UNL d   1      24.118 -15.576  -1.790  0.00  0.00     0.104 A 
ATOM      3  N   UNL d   1      23.872 -16.628  -0.939  0.00  0.00    -0.355 N 
ATOM      4  C   UNL d   1      25.068 -17.171  -0.508  0.00  0.00     0.045 A 
ATOM      5  C   UNL d   1      25.343 -18.234   0.371  0.00  0.00     0.030 A 
ATOM      6  C   UNL d   1      26.680 -18.576   0.595  0.00  0.00     0.002 A 
ATOM      7  C   UNL d   1      27.711 -17.887  -0.034  0.00  0.00     0.001 A 
ATOM      8  C   UNL d   1      27.430 -16.824  -0.893  0.00  0.00     0.014 A 
ATOM      9  C   UNL d   1      26.093 -16.451  -1.137  0.00  0.00     0.003 A 
ENDROOT
BRANCH   1  10
ATOM     10  C   UNL d   1      26.124 -14.479  -2.758  0.00  0.00     0.061 A 
ATOM     11  C   UNL d   1      27.252 -13.791  -2.512  0.00  0.00     0.061 A 
ATOM     12  C   UNL d   1      27.457 -12.869  -3.656  0.00  0.00     0.260 A 
ATOM     13  N   UNL d   1      26.453 -13.085  -4.534  0.00  0.00    -0.289 N 
ATOM     14  O   UNL d   1      28.356 -12.063  -3.798  0.00  0.00    -0.267 OA
ATOM     15  C   UNL d   1      25.608 -14.033  -4.075  0.00  0.00     0.260 A 
ATOM     16  H   UNL d   1      26.346 -12.593  -5.406  0.00  0.00     0.172 HD
ATOM     17  O   UNL d   1      24.615 -14.440  -4.647  0.00  0.00    -0.267 OA
BRANCH  11  18
ATOM     18  C   UNL d   1      28.118 -13.894  -1.388  0.00  0.00     0.009 A 
ATOM     19  C   UNL d   1      29.448 -14.259  -1.460  0.00  0.00     0.104 A 
ATOM     20  N   UNL d   1      29.949 -14.294  -0.184  0.00  0.00    -0.360 N 
ATOM     21  C   UNL d   1      31.322 -14.585   0.165  0.00  0.00     0.156 C 
ATOM     22  C   UNL d   1      28.959 -13.987   0.725  0.00  0.00     0.045 A 
ATOM     23  C   UNL d   1      28.994 -13.922   2.128  0.00  0.00     0.030 A 
ATOM     24  C   UNL d   1      27.799 -13.712  -0.009  0.00  0.00     0.003 A 
ATOM     25  C   UNL d   1      27.824 -13.559   2.798  0.00  0.00     0.002 A 
ATOM     26  C   UNL d   1      26.656 -13.282   2.094  0.00  0.00     0.001 A 
ATOM     27  C   UNL d   1      26.626 -13.362   0.697  0.00  0.00     0.014 A 
ENDBRANCH  11  18
ENDBRANCH   1  10
BRANCH   3  28
ATOM     28  C   UNL d   1      22.556 -17.132  -0.555  0.00  0.00     0.129 C 
BRANCH  28  29
ATOM     29  C   UNL d   1      22.250 -18.542  -1.073  0.00  0.00     0.031 C 
BRANCH  29  30
ATOM     30  C   UNL d   1      21.382 -19.355  -0.115  0.00  0.00     0.084 C 
BRANCH  30  31
ATOM     31  S   UNL d   1      19.745 -19.612  -0.864  0.00  0.00    -0.095 SA
BRANCH  31  32
ATOM     32  C   UNL d   1      18.848 -20.593   0.227  0.00  0.00     0.131 C 
ATOM     33  N   UNL d   1      19.414 -20.839   1.384  0.00  0.00    -0.380 N 
ATOM     34  H   UNL d   1      20.332 -20.444   1.560  0.00  0.00     0.158 HD
ATOM     35  H   UNL d   1      18.990 -21.400   2.108  0.00  0.00     0.158 HD
BRANCH  32  36
ATOM     36  N   UNL d   1      17.666 -21.082  -0.045  0.00  0.00    -0.380 N 
ATOM     37  H   UNL d   1      17.049 -20.627  -0.704  0.00  0.00     0.158 HD
ATOM     38  H   UNL d   1      17.329 -21.930   0.391  0.00  0.00     0.158 HD
ENDBRANCH  32  36
ENDBRANCH  31  32
ENDBRANCH  30  31
ENDBRANCH  29  30
ENDBRANCH  28  29
ENDBRANCH   3  28
TORSDOF 8
ENDMDL
MODEL 2
REMARK VINA RESULT:    -9.103      1.494      1.835
REMARK INTER + INTRA:         -13.448
REMARK INTER:                 -11.489
REMARK INTRA:                  -1.959
REMARK CONF_INDEPENDENT:        2.386
REMARK UNBOUND:                -1.959
REMARK  8 active torsions:
REMARK  status: ('A' for Active; 'I' for Inactive)
REMARK    1  A    between atoms: C_4  and  C_5 
REMARK    2  A    between atoms: C_6  and  C_7 
REMARK    3  A    between atoms: N_9  and  C_10 
REMARK    4  A    between atoms: C_10  and  C_11 
REMARK    5  A    between atoms: C_11  and  C_12 
REMARK    6  A    between atoms: C_12  and  S_13 
REMARK    7  A    between atoms: S_13  and  C_14 
REMARK    8  A    between atoms: C_14  and  N_15 
ROOT
ATOM      1  C   UNL d   1      26.080 -15.002  -1.813  0.00  0.00     0.009 A 
ATOM      2  C   UNL d   1      25.006 -15.697  -1.312  0.00  0.00     0.104 A 
ATOM      3  N   UNL d   1      25.473 -16.827  -0.682  0.00  0.00    -0.355 N 
ATOM      4  C   UNL d   1      26.854 -16.866  -0.757  0.00  0.00     0.045 A 
ATOM      5  C   UNL d   1      27.785 -17.794  -0.258  0.00  0.00     0.030 A 
ATOM      6  C   UNL d   1      29.141 -17.575  -0.522  0.00  0.00     0.002 A 
ATOM      7  C   UNL d   1      29.558 -16.473  -1.258  0.00  0.00     0.001 A 
ATOM      8  C   UNL d   1      28.629 -15.548  -1.738  0.00  0.00     0.014 A 
ATOM      9  C   UNL d   1      27.255 -15.738  -1.485  0.00  0.00     0.003 A 
ENDROOT
BRANCH   1  10
ATOM     10  C   UNL d   1      25.996 -13.796  -2.562  0.00  0.00     0.061 A 
ATOM     11  C   UNL d   1      26.624 -12.629  -2.333  0.00  0.00     0.061 A 
ATOM     12  C   UNL d   1      26.141 -11.668  -3.355  0.00  0.00     0.260 A 
ATOM     13  N   UNL d   1      25.276 -12.328  -4.154  0.00  0.00    -0.289 N 
ATOM     14  O   UNL d   1      26.457 -10.499  -3.471  0.00  0.00    -0.267 OA
ATOM     15  C   UNL d   1      25.129 -13.609  -3.750  0.00  0.00     0.260 A 
ATOM     16  H   UNL d   1      24.797 -11.914  -4.937  0.00  0.00     0.172 HD
ATOM     17  O   UNL d   1      24.418 -14.444  -4.276  0.00  0.00    -0.267 OA
BRANCH  11  18
ATOM     18  C   UNL d   1      27.578 -12.327  -1.321  0.00  0.00     0.009 A 
ATOM     19  C   UNL d   1      28.810 -11.750  -1.559  0.00  0.00     0.104 A 
ATOM     20  N   UNL d   1      29.471 -11.651  -0.363  0.00  0.00    -0.360 N 
ATOM     21  C   UNL d   1      30.776 -11.053  -0.177  0.00  0.00     0.156 C 
ATOM     22  C   UNL d   1      28.703 -12.182   0.652  0.00  0.00     0.045 A 
ATOM     23  C   UNL d   1      28.969 -12.320   2.024  0.00  0.00     0.030 A 
ATOM     24  C   UNL d   1      27.496 -12.598   0.078  0.00  0.00     0.003 A 
ATOM     25  C   UNL d   1      27.981 -12.887   2.831  0.00  0.00     0.002 A 
ATOM     26  C   UNL d   1      26.773 -13.312   2.286  0.00  0.00     0.001 A 
ATOM     27  C   UNL d   1      26.521 -13.181   0.916  0.00  0.00     0.014 A 
ENDBRANCH  11  18
ENDBRANCH   1  10
BRANCH   3  28
ATOM     28  C   UNL d   1      24.656 -17.858  -0.048  0.00  0.00     0.129 C 
BRANCH  28  29
ATOM     29  C   UNL d   1      23.152 -17.711  -0.306  0.00  0.00     0.031 C 
BRANCH  29  30
ATOM     30  C   UNL d   1      22.426 -19.053  -0.380  0.00  0.00     0.084 C 
BRANCH  30  31
ATOM     31  S   UNL d   1      20.710 -18.775  -0.912  0.00  0.00    -0.095 SA
BRANCH  31  32
ATOM     32  C   UNL d   1      19.737 -19.912  -0.065  0.00  0.00     0.131 C 
ATOM     33  N   UNL d   1      18.514 -20.075  -0.512  0.00  0.00    -0.380 N 
ATOM     34  H   UNL d   1      18.222 -19.527  -1.314  0.00  0.00     0.158 HD
ATOM     35  H   UNL d   1      17.847 -20.711  -0.102  0.00  0.00     0.158 HD
BRANCH  32  36
ATOM     36  N   UNL d   1      20.156 -20.596   0.968  0.00  0.00    -0.380 N 
ATOM     37  H   UNL d   1      19.543 -21.231   1.459  0.00  0.00     0.158 HD
ATOM     38  H   UNL d   1      21.104 -20.515   1.309  0.00  0.00     0.158 HD
ENDBRANCH  32  36
ENDBRANCH  31  32
ENDBRANCH  30  31
ENDBRANCH  29  30
ENDBRANCH  28  29
ENDBRANCH   3  28
TORSDOF 8
ENDMDL
MODEL 3
REMARK VINA RESULT:    -8.708      3.718      7.097
REMARK INTER + INTRA:         -12.628
REMARK INTER:                 -11.095
REMARK INTRA:                  -1.533
REMARK CONF_INDEPENDENT:        2.386
REMARK UNBOUND:                -1.533
REMARK  8 active torsions:
REMARK  status: ('A' for Active; 'I' for Inactive)
REMARK    1  A    between atoms: C_4  and  C_5 
REMARK    2  A    between atoms: C_6  and  C_7 
REMARK    3  A    between atoms: N_9  and  C_10 
REMARK    4  A    between atoms: C_10  and  C_11 
REMARK    5  A    between atoms: C_11  and  C_12 
REMARK    6  A    between atoms: C_12  and  S_13 
REMARK    7  A    between atoms: S_13  and  C_14 
REMARK    8  A    between atoms: C_14  and  N_15 
ROOT
ATOM      1  C   UNL d   1      27.116 -12.236  -1.215  0.00  0.00     0.009 A 
ATOM      2  C   UNL d   1      27.008 -12.709   0.071  0.00  0.00     0.104 A 
ATOM      3  N   UNL d   1      27.942 -12.067   0.850  0.00  0.00    -0.355 N 
ATOM      4  C   UNL d   1      28.652 -11.164   0.080  0.00  0.00     0.045 A 
ATOM      5  C   UNL d   1      29.684 -10.268   0.413  0.00  0.00     0.030 A 
ATOM      6  C   UNL d   1      30.235  -9.487  -0.607  0.00  0.00     0.002 A 
ATOM      7  C   UNL d   1      29.778  -9.592  -1.916  0.00  0.00     0.001 A 
ATOM      8  C   UNL d   1      28.743 -10.472  -2.236  0.00  0.00     0.014 A 
ATOM      9  C   UNL d   1      28.163 -11.270  -1.229  0.00  0.00     0.003 A 
ENDROOT
BRANCH   1  10
ATOM     10  C   UNL d   1      26.341 -12.687  -2.320  0.00  0.00     0.061 A 
ATOM     11  C   UNL d   1      25.986 -13.947  -2.627  0.00  0.00     0.061 A 
ATOM     12  C   UNL d   1      25.248 -13.889  -3.913  0.00  0.00     0.260 A 
ATOM     13  N   UNL d   1      25.178 -12.591  -4.280  0.00  0.00    -0.289 N 
ATOM     14  O   UNL d   1      24.780 -14.824  -4.534  0.00  0.00    -0.267 OA
ATOM     15  C   UNL d   1      25.809 -11.802  -3.384  0.00  0.00     0.260 A 
ATOM     16  H   UNL d   1      24.727 -12.262  -5.118  0.00  0.00     0.172 HD
ATOM     17  O   UNL d   1      25.909 -10.592  -3.446  0.00  0.00    -0.267 OA
BRANCH  11  18
ATOM     18  C   UNL d   1      26.244 -15.138  -1.892  0.00  0.00     0.009 A 
ATOM     19  C   UNL d   1      27.505 -15.645  -1.646  0.00  0.00     0.104 A 
ATOM     20  N   UNL d   1      27.363 -16.819  -0.953  0.00  0.00    -0.360 N 
ATOM     21  C   UNL d   1      28.452 -17.634  -0.461  0.00  0.00     0.156 C 
ATOM     22  C   UNL d   1      26.027 -17.105  -0.768  0.00  0.00     0.045 A 
ATOM     23  C   UNL d   1      25.403 -18.198  -0.143  0.00  0.00     0.030 A 
ATOM     24  C   UNL d   1      25.299 -16.051  -1.334  0.00  0.00     0.003 A 
ATOM     25  C   UNL d   1      24.009 -18.213  -0.085  0.00  0.00     0.002 A 
ATOM     26  C   UNL d   1      23.260 -17.180  -0.641  0.00  0.00     0.001 A 
ATOM     27  C   UNL d   1      23.889 -16.101  -1.274  0.00  0.00     0.014 A 
ENDBRANCH  11  18
ENDBRANCH   1  10
BRANCH   3  28
ATOM     28  C   UNL d   1      28.185 -12.304   2.271  0.00  0.00     0.129 C 
BRANCH  28  29
ATOM     29  C   UNL d   1      27.805 -13.712   2.745  0.00  0.00     0.031 C 
BRANCH  29  30
ATOM     30  C   UNL d   1      27.209 -13.727   4.151  0.00  0.00     0.084 C 
BRANCH  30  31
ATOM     31  S   UNL d   1      28.156 -14.882   5.188  0.00  0.00    -0.095 SA
BRANCH  31  32
ATOM     32  C   UNL d   1      29.811 -14.442   5.037  0.00  0.00     0.131 C 
ATOM     33  N   UNL d   1      30.273 -13.605   5.936  0.00  0.00    -0.380 N 
ATOM     34  H   UNL d   1      29.635 -13.273   6.651  0.00  0.00     0.158 HD
ATOM     35  H   UNL d   1      31.225 -13.271   5.955  0.00  0.00     0.158 HD
BRANCH  32  36
ATOM     36  N   UNL d   1      30.598 -14.895   4.095  0.00  0.00    -0.380 N 
ATOM     37  H   UNL d   1      30.262 -15.549   3.403  0.00  0.00     0.158 HD
ATOM     38  H   UNL d   1      31.565 -14.608   4.026  0.00  0.00     0.158 HD
ENDBRANCH  32  36
ENDBRANCH  31  32
ENDBRANCH  30  31
ENDBRANCH  29  30
ENDBRANCH  28  29
ENDBRANCH   3  28
TORSDOF 8
ENDMDL
MODEL 4
REMARK VINA RESULT:    -8.595      1.236      2.152
REMARK INTER + INTRA:         -12.635
REMARK INTER:                 -10.982
REMARK INTRA:                  -1.654
REMARK CONF_INDEPENDENT:        2.386
REMARK UNBOUND:                -1.654
REMARK  8 active torsions:
REMARK  status: ('A' for Active; 'I' for Inactive)
REMARK    1  A    between atoms: C_4  and  C_5 
REMARK    2  A    between atoms: C_6  and  C_7 
REMARK    3  A    between atoms: N_9  and  C_10 
REMARK    4  A    between atoms: C_10  and  C_11 
REMARK    5  A    between atoms: C_11  and  C_12 
REMARK    6  A    between atoms: C_12  and  S_13 
REMARK    7  A    between atoms: S_13  and  C_14 
REMARK    8  A    between atoms: C_14  and  N_15 
ROOT
ATOM      1  C   UNL d   1      25.234 -15.534  -1.749  0.00  0.00     0.009 A 
ATOM      2  C   UNL d   1      24.035 -16.188  -1.908  0.00  0.00     0.104 A 
ATOM      3  N   UNL d   1      24.113 -17.401  -1.266  0.00  0.00    -0.355 N 
ATOM      4  C   UNL d   1      25.355 -17.538  -0.674  0.00  0.00     0.045 A 
ATOM      5  C   UNL d   1      25.906 -18.575   0.100  0.00  0.00     0.030 A 
ATOM      6  C   UNL d   1      27.225 -18.438   0.544  0.00  0.00     0.002 A 
ATOM      7  C   UNL d   1      27.973 -17.308   0.230  0.00  0.00     0.001 A 
ATOM      8  C   UNL d   1      27.413 -16.277  -0.526  0.00  0.00     0.014 A 
ATOM      9  C   UNL d   1      26.085 -16.383  -0.985  0.00  0.00     0.003 A 
ENDROOT
BRANCH   1  10
ATOM     10  C   UNL d   1      25.551 -14.263  -2.303  0.00  0.00     0.061 A 
ATOM     11  C   UNL d   1      26.276 -13.274  -1.753  0.00  0.00     0.061 A 
ATOM     12  C   UNL d   1      26.248 -12.134  -2.702  0.00  0.00     0.260 A 
ATOM     13  N   UNL d   1      25.531 -12.523  -3.779  0.00  0.00    -0.289 N 
ATOM     14  O   UNL d   1      26.769 -11.045  -2.558  0.00  0.00    -0.267 OA
ATOM     15  C   UNL d   1      25.075 -13.784  -3.623  0.00  0.00     0.260 A 
ATOM     16  H   UNL d   1      25.353 -11.942  -4.582  0.00  0.00     0.172 HD
ATOM     17  O   UNL d   1      24.404 -14.403  -4.427  0.00  0.00    -0.267 OA
BRANCH  11  18
ATOM     18  C   UNL d   1      26.961 -13.274  -0.505  0.00  0.00     0.009 A 
ATOM     19  C   UNL d   1      26.343 -13.145   0.723  0.00  0.00     0.104 A 
ATOM     20  N   UNL d   1      27.315 -13.143   1.690  0.00  0.00    -0.360 N 
ATOM     21  C   UNL d   1      27.074 -13.077   3.115  0.00  0.00     0.156 C 
ATOM     22  C   UNL d   1      28.563 -13.238   1.111  0.00  0.00     0.045 A 
ATOM     23  C   UNL d   1      29.842 -13.251   1.692  0.00  0.00     0.030 A 
ATOM     24  C   UNL d   1      28.368 -13.342  -0.271  0.00  0.00     0.003 A 
ATOM     25  C   UNL d   1      30.946 -13.380   0.847  0.00  0.00     0.002 A 
ATOM     26  C   UNL d   1      30.781 -13.482  -0.531  0.00  0.00     0.001 A 
ATOM     27  C   UNL d   1      29.504 -13.456  -1.102  0.00  0.00     0.014 A 
ENDBRANCH  11  18
ENDBRANCH   1  10
BRANCH   3  28
ATOM     28  C   UNL d   1      23.067 -18.420  -1.223  0.00  0.00     0.129 C 
BRANCH  28  29
ATOM     29  C   UNL d   1      21.865 -18.047  -0.347  0.00  0.00     0.031 C 
BRANCH  29  30
ATOM     30  C   UNL d   1      20.541 -18.575  -0.895  0.00  0.00     0.084 C 
BRANCH  30  31
ATOM     31  S   UNL d   1      20.246 -20.245  -0.237  0.00  0.00    -0.095 SA
BRANCH  31  32
ATOM     32  C   UNL d   1      19.825 -20.059   1.419  0.00  0.00     0.131 C 
ATOM     33  N   UNL d   1      18.757 -20.706   1.822  0.00  0.00    -0.380 N 
ATOM     34  H   UNL d   1      18.253 -21.265   1.142  0.00  0.00     0.158 HD
ATOM     35  H   UNL d   1      18.407 -20.677   2.768  0.00  0.00     0.158 HD
BRANCH  32  36
ATOM     36  N   UNL d   1      20.505 -19.324   2.261  0.00  0.00    -0.380 N 
ATOM     37  H   UNL d   1      20.335 -18.333   2.348  0.00  0.00     0.158 HD
ATOM     38  H   UNL d   1      21.222 -19.721   2.853  0.00  0.00     0.158 HD
ENDBRANCH  32  36
ENDBRANCH  31  32
ENDBRANCH  30  31
ENDBRANCH  29  30
ENDBRANCH  28  29
ENDBRANCH   3  28
TORSDOF 8
ENDMDL
MODEL 5
REMARK VINA RESULT:    -8.583      3.125      6.841
REMARK INTER + INTRA:         -12.992
REMARK INTER:                 -10.969
REMARK INTRA:                  -2.023
REMARK CONF_INDEPENDENT:        2.386
REMARK UNBOUND:                -2.023
REMARK  8 active torsions:
REMARK  status: ('A' for Active; 'I' for Inactive)
REMARK    1  A    between atoms: C_4  and  C_5 
REMARK    2  A    between atoms: C_6  and  C_7 
REMARK    3  A    between atoms: N_9  and  C_10 
REMARK    4  A    between atoms: C_10  and  C_11 
REMARK    5  A    between atoms: C_11  and  C_12 
REMARK    6  A    between atoms: C_12  and  S_13 
REMARK    7  A    between atoms: S_13  and  C_14 
REMARK    8  A    between atoms: C_14  and  N_15 
ROOT
ATOM      1  C   UNL d   1      27.006 -13.408  -0.434  0.00  0.00     0.009 A 
ATOM      2  C   UNL d   1      26.402 -13.174   0.779  0.00  0.00     0.104 A 
ATOM      3  N   UNL d   1      27.343 -13.326   1.770  0.00  0.00    -0.355 N 
ATOM      4  C   UNL d   1      28.566 -13.645   1.208  0.00  0.00     0.045 A 
ATOM      5  C   UNL d   1      29.824 -13.878   1.793  0.00  0.00     0.030 A 
ATOM      6  C   UNL d   1      30.889 -14.214   0.952  0.00  0.00     0.002 A 
ATOM      7  C   UNL d   1      30.712 -14.316  -0.423  0.00  0.00     0.001 A 
ATOM      8  C   UNL d   1      29.464 -14.068  -0.997  0.00  0.00     0.014 A 
ATOM      9  C   UNL d   1      28.371 -13.723  -0.177  0.00  0.00     0.003 A 
ENDROOT
BRANCH   1  10
ATOM     10  C   UNL d   1      26.346 -13.380  -1.694  0.00  0.00     0.061 A 
ATOM     11  C   UNL d   1      25.536 -14.310  -2.229  0.00  0.00     0.061 A 
ATOM     12  C   UNL d   1      25.171 -13.839  -3.588  0.00  0.00     0.260 A 
ATOM     13  N   UNL d   1      25.761 -12.637  -3.771  0.00  0.00    -0.289 N 
ATOM     14  O   UNL d   1      24.470 -14.410  -4.400  0.00  0.00    -0.267 OA
ATOM     15  C   UNL d   1      26.486 -12.287  -2.686  0.00  0.00     0.260 A 
ATOM     16  H   UNL d   1      25.680 -12.087  -4.610  0.00  0.00     0.172 HD
ATOM     17  O   UNL d   1      27.125 -11.260  -2.558  0.00  0.00    -0.267 OA
BRANCH  11  18
ATOM     18  C   UNL d   1      25.085 -15.526  -1.644  0.00  0.00     0.009 A 
ATOM     19  C   UNL d   1      23.770 -15.950  -1.644  0.00  0.00     0.104 A 
ATOM     20  N   UNL d   1      23.706 -17.134  -0.956  0.00  0.00    -0.360 N 
ATOM     21  C   UNL d   1      22.511 -17.929  -0.774  0.00  0.00     0.156 C 
ATOM     22  C   UNL d   1      24.953 -17.476  -0.477  0.00  0.00     0.045 A 
ATOM     23  C   UNL d   1      25.367 -18.575   0.293  0.00  0.00     0.030 A 
ATOM     24  C   UNL d   1      25.845 -16.489  -0.914  0.00  0.00     0.003 A 
ATOM     25  C   UNL d   1      26.721 -18.676   0.619  0.00  0.00     0.002 A 
ATOM     26  C   UNL d   1      27.629 -17.708   0.201  0.00  0.00     0.001 A 
ATOM     27  C   UNL d   1      27.206 -16.609  -0.556  0.00  0.00     0.014 A 
ENDBRANCH  11  18
ENDBRANCH   1  10
BRANCH   3  28
ATOM     28  C   UNL d   1      27.106 -13.203   3.206  0.00  0.00     0.129 C 
BRANCH  28  29
ATOM     29  C   UNL d   1      28.118 -12.308   3.933  0.00  0.00     0.031 C 
BRANCH  29  30
ATOM     30  C   UNL d   1      27.922 -12.295   5.447  0.00  0.00     0.084 C 
BRANCH  30  31
ATOM     31  S   UNL d   1      29.100 -13.449   6.212  0.00  0.00    -0.095 SA
BRANCH  31  32
ATOM     32  C   UNL d   1      29.192 -14.822   5.181  0.00  0.00     0.131 C 
ATOM     33  N   UNL d   1      30.383 -15.126   4.725  0.00  0.00    -0.380 N 
ATOM     34  H   UNL d   1      31.164 -14.541   5.003  0.00  0.00     0.158 HD
ATOM     35  H   UNL d   1      30.567 -15.906   4.113  0.00  0.00     0.158 HD
BRANCH  32  36
ATOM     36  N   UNL d   1      28.155 -15.547   4.848  0.00  0.00    -0.380 N 
ATOM     37  H   UNL d   1      28.114 -16.025   3.959  0.00  0.00     0.158 HD
ATOM     38  H   UNL d   1      27.362 -15.655   5.465  0.00  0.00     0.158 HD
ENDBRANCH  32  36
ENDBRANCH  31  32
ENDBRANCH  30  31
ENDBRANCH  29  30
ENDBRANCH  28  29
ENDBRANCH   3  28
TORSDOF 8
ENDMDL
MODEL 6
REMARK VINA RESULT:    -8.202      3.431      6.823
REMARK INTER + INTRA:         -12.520
REMARK INTER:                 -10.588
REMARK INTRA:                  -1.932
REMARK CONF_INDEPENDENT:        2.386
REMARK UNBOUND:                -1.932
REMARK  8 active torsions:
REMARK  status: ('A' for Active; 'I' for Inactive)
REMARK    1  A    between atoms: C_4  and  C_5 
REMARK    2  A    between atoms: C_6  and  C_7 
REMARK    3  A    between atoms: N_9  and  C_10 
REMARK    4  A    between atoms: C_10  and  C_11 
REMARK    5  A    between atoms: C_11  and  C_12 
REMARK    6  A    between atoms: C_12  and  S_13 
REMARK    7  A    between atoms: S_13  and  C_14 
REMARK    8  A    between atoms: C_14  and  N_15 
ROOT
ATOM      1  C   UNL d   1      27.417 -12.573  -0.784  0.00  0.00     0.009 A 
ATOM      2  C   UNL d   1      27.028 -11.827   0.303  0.00  0.00     0.104 A 
ATOM      3  N   UNL d   1      28.056 -11.819   1.217  0.00  0.00    -0.355 N 
ATOM      4  C   UNL d   1      29.124 -12.547   0.724  0.00  0.00     0.045 A 
ATOM      5  C   UNL d   1      30.394 -12.815   1.266  0.00  0.00     0.030 A 
ATOM      6  C   UNL d   1      31.268 -13.622   0.531  0.00  0.00     0.002 A 
ATOM      7  C   UNL d   1      30.893 -14.146  -0.701  0.00  0.00     0.001 A 
ATOM      8  C   UNL d   1      29.637 -13.863  -1.239  0.00  0.00     0.014 A 
ATOM      9  C   UNL d   1      28.735 -13.049  -0.525  0.00  0.00     0.003 A 
ENDROOT
BRANCH   1  10
ATOM     10  C   UNL d   1      26.608 -12.843  -1.922  0.00  0.00     0.061 A 
ATOM     11  C   UNL d   1      26.063 -14.013  -2.296  0.00  0.00     0.061 A 
ATOM     12  C   UNL d   1      25.376 -13.779  -3.591  0.00  0.00     0.260 A 
ATOM     13  N   UNL d   1      25.527 -12.472  -3.897  0.00  0.00    -0.289 N 
ATOM     14  O   UNL d   1      24.780 -14.597  -4.265  0.00  0.00    -0.267 OA
ATOM     15  C   UNL d   1      26.254 -11.837  -2.952  0.00  0.00     0.260 A 
ATOM     16  H   UNL d   1      25.157 -12.037  -4.726  0.00  0.00     0.172 HD
ATOM     17  O   UNL d   1      26.550 -10.657  -2.955  0.00  0.00    -0.267 OA
BRANCH  11  18
ATOM     18  C   UNL d   1      26.105 -15.262  -1.615  0.00  0.00     0.009 A 
ATOM     19  C   UNL d   1      27.267 -15.932  -1.287  0.00  0.00     0.104 A 
ATOM     20  N   UNL d   1      26.921 -17.112  -0.682  0.00  0.00    -0.360 N 
ATOM     21  C   UNL d   1      27.853 -18.078  -0.143  0.00  0.00     0.156 C 
ATOM     22  C   UNL d   1      25.549 -17.240  -0.636  0.00  0.00     0.045 A 
ATOM     23  C   UNL d   1      24.743 -18.276  -0.137  0.00  0.00     0.030 A 
ATOM     24  C   UNL d   1      25.009 -16.077  -1.200  0.00  0.00     0.003 A 
ATOM     25  C   UNL d   1      23.357 -18.122  -0.205  0.00  0.00     0.002 A 
ATOM     26  C   UNL d   1      22.794 -16.979  -0.764  0.00  0.00     0.001 A 
ATOM     27  C   UNL d   1      23.604 -15.956  -1.270  0.00  0.00     0.014 A 
ENDBRANCH  11  18
ENDBRANCH   1  10
BRANCH   3  28
ATOM     28  C   UNL d   1      28.037 -11.172   2.526  0.00  0.00     0.129 C 
BRANCH  28  29
ATOM     29  C   UNL d   1      27.872 -12.143   3.701  0.00  0.00     0.031 C 
BRANCH  29  30
ATOM     30  C   UNL d   1      27.523 -13.562   3.258  0.00  0.00     0.084 C 
BRANCH  30  31
ATOM     31  S   UNL d   1      27.994 -14.730   4.571  0.00  0.00    -0.095 SA
BRANCH  31  32
ATOM     32  C   UNL d   1      29.682 -14.534   4.827  0.00  0.00     0.131 C 
ATOM     33  N   UNL d   1      30.040 -14.072   6.002  0.00  0.00    -0.380 N 
ATOM     34  H   UNL d   1      29.310 -13.860   6.674  0.00  0.00     0.158 HD
ATOM     35  H   UNL d   1      30.999 -13.913   6.274  0.00  0.00     0.158 HD
BRANCH  32  36
ATOM     36  N   UNL d   1      30.589 -14.820   3.929  0.00  0.00    -0.380 N 
ATOM     37  H   UNL d   1      30.338 -15.256   3.052  0.00  0.00     0.158 HD
ATOM     38  H   UNL d   1      31.567 -14.616   4.078  0.00  0.00     0.158 HD
ENDBRANCH  32  36
ENDBRANCH  31  32
ENDBRANCH  30  31
ENDBRANCH  29  30
ENDBRANCH  28  29
ENDBRANCH   3  28
TORSDOF 8
ENDMDL
MODEL 7
REMARK VINA RESULT:    -8.158      3.896      5.947
REMARK INTER + INTRA:         -13.154
REMARK INTER:                 -10.545
REMARK INTRA:                  -2.610
REMARK CONF_INDEPENDENT:        2.386
REMARK UNBOUND:                -2.610
REMARK  8 active torsions:
REMARK  status: ('A' for Active; 'I' for Inactive)
REMARK    1  A    between atoms: C_4  and  C_5 
REMARK    2  A    between atoms: C_6  and  C_7 
REMARK    3  A    between atoms: N_9  and  C_10 
REMARK    4  A    between atoms: C_10  and  C_11 
REMARK    5  A    between atoms: C_11  and  C_12 
REMARK    6  A    between atoms: C_12  and  S_13 
REMARK    7  A    between atoms: S_13  and  C_14 
REMARK    8  A    between atoms: C_14  and  N_15 
ROOT
ATOM      1  C   UNL d   1      26.575 -15.091  -2.016  0.00  0.00     0.009 A 
ATOM      2  C   UNL d   1      27.866 -15.502  -1.783  0.00  0.00     0.104 A 
ATOM      3  N   UNL d   1      27.827 -16.667  -1.052  0.00  0.00    -0.355 N 
ATOM      4  C   UNL d   1      26.512 -17.028  -0.819  0.00  0.00     0.045 A 
ATOM      5  C   UNL d   1      25.958 -18.131  -0.145  0.00  0.00     0.030 A 
ATOM      6  C   UNL d   1      24.565 -18.212  -0.046  0.00  0.00     0.002 A 
ATOM      7  C   UNL d   1      23.750 -17.229  -0.596  0.00  0.00     0.001 A 
ATOM      8  C   UNL d   1      24.307 -16.145  -1.277  0.00  0.00     0.014 A 
ATOM      9  C   UNL d   1      25.708 -16.037  -1.397  0.00  0.00     0.003 A 
ENDROOT
BRANCH   1  10
ATOM     10  C   UNL d   1      26.207 -13.905  -2.709  0.00  0.00     0.061 A 
ATOM     11  C   UNL d   1      26.545 -12.636  -2.423  0.00  0.00     0.061 A 
ATOM     12  C   UNL d   1      25.846 -11.768  -3.402  0.00  0.00     0.260 A 
ATOM     13  N   UNL d   1      25.155 -12.575  -4.236  0.00  0.00    -0.289 N 
ATOM     14  O   UNL d   1      25.878 -10.554  -3.462  0.00  0.00    -0.267 OA
ATOM     15  C   UNL d   1      25.314 -13.872  -3.892  0.00  0.00     0.260 A 
ATOM     16  H   UNL d   1      24.588 -12.249  -5.002  0.00  0.00     0.172 HD
ATOM     17  O   UNL d   1      24.816 -14.825  -4.460  0.00  0.00    -0.267 OA
BRANCH  11  18
ATOM     18  C   UNL d   1      27.407 -12.165  -1.392  0.00  0.00     0.009 A 
ATOM     19  C   UNL d   1      28.424 -11.251  -1.584  0.00  0.00     0.104 A 
ATOM     20  N   UNL d   1      29.066 -11.072  -0.386  0.00  0.00    -0.360 N 
ATOM     21  C   UNL d   1      30.158 -10.152  -0.154  0.00  0.00     0.156 C 
ATOM     22  C   UNL d   1      28.504 -11.879   0.581  0.00  0.00     0.045 A 
ATOM     23  C   UNL d   1      28.837 -12.052   1.934  0.00  0.00     0.030 A 
ATOM     24  C   UNL d   1      27.443 -12.565  -0.022  0.00  0.00     0.003 A 
ATOM     25  C   UNL d   1      28.068 -12.936   2.693  0.00  0.00     0.002 A 
ATOM     26  C   UNL d   1      27.010 -13.634   2.118  0.00  0.00     0.001 A 
ATOM     27  C   UNL d   1      26.692 -13.465   0.765  0.00  0.00     0.014 A 
ENDBRANCH  11  18
ENDBRANCH   1  10
BRANCH   3  28
ATOM     28  C   UNL d   1      28.983 -17.413  -0.562  0.00  0.00     0.129 C 
BRANCH  28  29
ATOM     29  C   UNL d   1      30.185 -16.535  -0.195  0.00  0.00     0.031 C 
BRANCH  29  30
ATOM     30  C   UNL d   1      29.821 -15.391   0.749  0.00  0.00     0.084 C 
BRANCH  30  31
ATOM     31  S   UNL d   1      31.262 -14.301   0.949  0.00  0.00    -0.095 SA
BRANCH  31  32
ATOM     32  C   UNL d   1      31.589 -14.212   2.635  0.00  0.00     0.131 C 
ATOM     33  N   UNL d   1      32.393 -13.250   3.020  0.00  0.00    -0.380 N 
ATOM     34  H   UNL d   1      32.769 -12.630   2.311  0.00  0.00     0.158 HD
ATOM     35  H   UNL d   1      32.661 -13.094   3.980  0.00  0.00     0.158 HD
BRANCH  32  36
ATOM     36  N   UNL d   1      31.082 -15.038   3.514  0.00  0.00    -0.380 N 
ATOM     37  H   UNL d   1      30.224 -15.538   3.330  0.00  0.00     0.158 HD
ATOM     38  H   UNL d   1      31.529 -15.206   4.405  0.00  0.00     0.158 HD
ENDBRANCH  32  36
ENDBRANCH  31  32
ENDBRANCH  30  31
ENDBRANCH  29  30
ENDBRANCH  28  29
ENDBRANCH   3  28
TORSDOF 8
ENDMDL
MODEL 8
REMARK VINA RESULT:    -7.088      4.032      7.739
REMARK INTER + INTRA:         -12.951
REMARK INTER:                  -9.475
REMARK INTRA:                  -3.476
REMARK CONF_INDEPENDENT:        2.386
REMARK UNBOUND:                -3.476
REMARK  8 active torsions:
REMARK  status: ('A' for Active; 'I' for Inactive)
REMARK    1  A    between atoms: C_4  and  C_5 
REMARK    2  A    between atoms: C_6  and  C_7 
REMARK    3  A    between atoms: N_9  and  C_10 
REMARK    4  A    between atoms: C_10  and  C_11 
REMARK    5  A    between atoms: C_11  and  C_12 
REMARK    6  A    between atoms: C_12  and  S_13 
REMARK    7  A    between atoms: S_13  and  C_14 
REMARK    8  A    between atoms: C_14  and  N_15 
ROOT
ATOM      1  C   UNL d   1      28.409 -14.464   1.222  0.00  0.00     0.009 A 
ATOM      2  C   UNL d   1      28.171 -14.825   2.527  0.00  0.00     0.104 A 
ATOM      3  N   UNL d   1      27.622 -13.749   3.183  0.00  0.00    -0.355 N 
ATOM      4  C   UNL d   1      27.486 -12.687   2.307  0.00  0.00     0.045 A 
ATOM      5  C   UNL d   1      26.968 -11.393   2.490  0.00  0.00     0.030 A 
ATOM      6  C   UNL d   1      26.989 -10.513   1.403  0.00  0.00     0.002 A 
ATOM      7  C   UNL d   1      27.509 -10.906   0.175  0.00  0.00     0.001 A 
ATOM      8  C   UNL d   1      28.008 -12.198  -0.003  0.00  0.00     0.014 A 
ATOM      9  C   UNL d   1      27.996 -13.109   1.072  0.00  0.00     0.003 A 
ENDROOT
BRANCH   1  10
ATOM     10  C   UNL d   1      29.006 -15.300   0.238  0.00  0.00     0.061 A 
ATOM     11  C   UNL d   1      28.419 -15.897  -0.813  0.00  0.00     0.061 A 
ATOM     12  C   UNL d   1      29.458 -16.716  -1.484  0.00  0.00     0.260 A 
ATOM     13  N   UNL d   1      30.614 -16.534  -0.810  0.00  0.00    -0.289 N 
ATOM     14  O   UNL d   1      29.316 -17.424  -2.463  0.00  0.00    -0.267 OA
ATOM     15  C   UNL d   1      30.434 -15.701   0.238  0.00  0.00     0.260 A 
ATOM     16  H   UNL d   1      31.487 -16.972  -1.052  0.00  0.00     0.172 HD
ATOM     17  O   UNL d   1      31.292 -15.349   1.023  0.00  0.00    -0.267 OA
BRANCH  11  18
ATOM     18  C   UNL d   1      27.066 -15.792  -1.242  0.00  0.00     0.009 A 
ATOM     19  C   UNL d   1      26.599 -14.837  -2.123  0.00  0.00     0.104 A 
ATOM     20  N   UNL d   1      25.248 -15.014  -2.267  0.00  0.00    -0.360 N 
ATOM     21  C   UNL d   1      24.394 -14.245  -3.146  0.00  0.00     0.156 C 
ATOM     22  C   UNL d   1      24.816 -16.053  -1.469  0.00  0.00     0.045 A 
ATOM     23  C   UNL d   1      23.529 -16.579  -1.270  0.00  0.00     0.030 A 
ATOM     24  C   UNL d   1      25.946 -16.574  -0.826  0.00  0.00     0.003 A 
ATOM     25  C   UNL d   1      23.390 -17.665  -0.404  0.00  0.00     0.002 A 
ATOM     26  C   UNL d   1      24.495 -18.201   0.251  0.00  0.00     0.001 A 
ATOM     27  C   UNL d   1      25.773 -17.662   0.056  0.00  0.00     0.014 A 
ENDBRANCH  11  18
ENDBRANCH   1  10
BRANCH   3  28
ATOM     28  C   UNL d   1      27.255 -13.699   4.596  0.00  0.00     0.129 C 
BRANCH  28  29
ATOM     29  C   UNL d   1      28.137 -14.567   5.503  0.00  0.00     0.031 C 
BRANCH  29  30
ATOM     30  C   UNL d   1      29.318 -13.801   6.095  0.00  0.00     0.084 C 
BRANCH  30  31
ATOM     31  S   UNL d   1      29.944 -12.620   4.862  0.00  0.00    -0.095 SA
BRANCH  31  32
ATOM     32  C   UNL d   1      30.720 -13.545   3.638  0.00  0.00     0.131 C 
ATOM     33  N   UNL d   1      31.067 -12.896   2.553  0.00  0.00    -0.380 N 
ATOM     34  H   UNL d   1      30.857 -11.905   2.502  0.00  0.00     0.158 HD
ATOM     35  H   UNL d   1      31.528 -13.326   1.765  0.00  0.00     0.158 HD
BRANCH  32  36
ATOM     36  N   UNL d   1      30.970 -14.825   3.747  0.00  0.00    -0.380 N 
ATOM     37  H   UNL d   1      30.610 -15.488   3.075  0.00  0.00     0.158 HD
ATOM     38  H   UNL d   1      31.530 -15.195   4.503  0.00  0.00     0.158 HD
ENDBRANCH  32  36
ENDBRANCH  31  32
ENDBRANCH  30  31
ENDBRANCH  29  30
ENDBRANCH  28  29
ENDBRANCH   3  28
TORSDOF 8
ENDMDL
MODEL 9
REMARK VINA RESULT:    -6.997      4.122      7.563
REMARK INTER + INTRA:         -12.779
REMARK INTER:                  -9.383
REMARK INTRA:                  -3.396
REMARK CONF_INDEPENDENT:        2.386
REMARK UNBOUND:                -3.396
REMARK  8 active torsions:
REMARK  status: ('A' for Active; 'I' for Inactive)
REMARK    1  A    between atoms: C_4  and  C_5 
REMARK    2  A    between atoms: C_6  and  C_7 
REMARK    3  A    between atoms: N_9  and  C_10 
REMARK    4  A    between atoms: C_10  and  C_11 
REMARK    5  A    between atoms: C_11  and  C_12 
REMARK    6  A    between atoms: C_12  and  S_13 
REMARK    7  A    between atoms: S_13  and  C_14 
REMARK    8  A    between atoms: C_14  and  N_15 
ROOT
ATOM      1  C   UNL d   1      27.227 -11.975  -1.301  0.00  0.00     0.009 A 
ATOM      2  C   UNL d   1      28.162 -10.980  -1.459  0.00  0.00     0.104 A 
ATOM      3  N   UNL d   1      28.708 -10.696  -0.230  0.00  0.00    -0.355 N 
ATOM      4  C   UNL d   1      28.144 -11.514   0.733  0.00  0.00     0.045 A 
ATOM      5  C   UNL d   1      28.378 -11.620   2.115  0.00  0.00     0.030 A 
ATOM      6  C   UNL d   1      27.617 -12.538   2.845  0.00  0.00     0.002 A 
ATOM      7  C   UNL d   1      26.654 -13.325   2.223  0.00  0.00     0.001 A 
ATOM      8  C   UNL d   1      26.439 -13.225   0.848  0.00  0.00     0.014 A 
ATOM      9  C   UNL d   1      27.192 -12.312   0.083  0.00  0.00     0.003 A 
ENDROOT
BRANCH   1  10
ATOM     10  C   UNL d   1      26.422 -12.514  -2.342  0.00  0.00     0.061 A 
ATOM     11  C   UNL d   1      26.121 -13.803  -2.579  0.00  0.00     0.061 A 
ATOM     12  C   UNL d   1      25.315 -13.840  -3.824  0.00  0.00     0.260 A 
ATOM     13  N   UNL d   1      25.155 -12.565  -4.240  0.00  0.00    -0.289 N 
ATOM     14  O   UNL d   1      24.868 -14.824  -4.380  0.00  0.00    -0.267 OA
ATOM     15  C   UNL d   1      25.788 -11.705  -3.411  0.00  0.00     0.260 A 
ATOM     16  H   UNL d   1      24.644 -12.296  -5.065  0.00  0.00     0.172 HD
ATOM     17  O   UNL d   1      25.818 -10.495  -3.528  0.00  0.00    -0.267 OA
BRANCH  11  18
ATOM     18  C   UNL d   1      26.481 -14.946  -1.811  0.00  0.00     0.009 A 
ATOM     19  C   UNL d   1      27.780 -15.299  -1.501  0.00  0.00     0.104 A 
ATOM     20  N   UNL d   1      27.743 -16.472  -0.792  0.00  0.00    -0.360 N 
ATOM     21  C   UNL d   1      28.896 -17.148  -0.237  0.00  0.00     0.156 C 
ATOM     22  C   UNL d   1      26.442 -16.909  -0.660  0.00  0.00     0.045 A 
ATOM     23  C   UNL d   1      25.921 -18.057  -0.041  0.00  0.00     0.030 A 
ATOM     24  C   UNL d   1      25.624 -15.954  -1.276  0.00  0.00     0.003 A 
ATOM     25  C   UNL d   1      24.537 -18.234  -0.043  0.00  0.00     0.002 A 
ATOM     26  C   UNL d   1      23.700 -17.303  -0.651  0.00  0.00     0.001 A 
ATOM     27  C   UNL d   1      24.228 -16.167  -1.276  0.00  0.00     0.014 A 
ENDBRANCH  11  18
ENDBRANCH   1  10
BRANCH   3  28
ATOM     28  C   UNL d   1      29.713  -9.673   0.049  0.00  0.00     0.129 C 
BRANCH  28  29
ATOM     29  C   UNL d   1      29.129  -8.331   0.507  0.00  0.00     0.031 C 
BRANCH  29  30
ATOM     30  C   UNL d   1      27.602  -8.313   0.504  0.00  0.00     0.084 C 
BRANCH  30  31
ATOM     31  S   UNL d   1      27.023  -7.010  -0.626  0.00  0.00    -0.095 SA
BRANCH  31  32
ATOM     32  C   UNL d   1      26.427  -7.801  -2.032  0.00  0.00     0.131 C 
ATOM     33  N   UNL d   1      27.329  -8.310  -2.837  0.00  0.00    -0.380 N 
ATOM     34  H   UNL d   1      28.307  -8.205  -2.586  0.00  0.00     0.158 HD
ATOM     35  H   UNL d   1      27.107  -8.796  -3.692  0.00  0.00     0.158 HD
BRANCH  32  36
ATOM     36  N   UNL d   1      25.155  -7.910  -2.316  0.00  0.00    -0.380 N 
ATOM     37  H   UNL d   1      24.780  -8.755  -2.724  0.00  0.00     0.158 HD
ATOM     38  H   UNL d   1      24.504  -7.158  -2.137  0.00  0.00     0.158 HD
ENDBRANCH  32  36
ENDBRANCH  31  32
ENDBRANCH  30  31
ENDBRANCH  29  30
ENDBRANCH  28  29
ENDBRANCH   3  28
TORSDOF 8
ENDMDL
