MODEL 1
REMARK VINA RESULT:    -8.213      0.000      0.000
REMARK INTER + INTRA:         -11.654
REMARK INTER:                  -9.705
REMARK INTRA:                  -1.949
REMARK CONF_INDEPENDENT:        1.492
REMARK UNBOUND:                -1.949
REMARK  5 active torsions:
REMARK  status: ('A' for Active; 'I' for Inactive)
REMARK    1  A    between atoms: C_10  and  C_11 
REMARK       I    between atoms: C_11  and  N_13 
REMARK    2  A    between atoms: N_13  and  C_14 
REMARK    3  A    between atoms: C_14  and  C_15 
REMARK    4  A    between atoms: C_15  and  N_16 
REMARK    5  A    between atoms: C_20  and  N_21 
ROOT
ATOM      1  N   UNL d   1      28.796 -14.682  -4.720  0.00  0.00    -0.250 N 
ATOM      2  N   UNL d   1      29.459 -15.598  -3.992  0.00  0.00    -0.182 NA
ATOM      3  C   UNL d   1      28.520 -16.132  -3.232  0.00  0.00     0.158 A 
ATOM      4  C   UNL d   1      27.241 -15.575  -3.427  0.00  0.00     0.076 A 
ATOM      5  C   UNL d   1      25.946 -15.757  -2.874  0.00  0.00     0.142 A 
ATOM      6  N   UNL d   1      24.964 -14.972  -3.396  0.00  0.00    -0.224 NA
ATOM      7  C   UNL d   1      25.291 -14.061  -4.350  0.00  0.00     0.237 A 
ATOM      8  N   UNL d   1      26.497 -13.811  -4.923  0.00  0.00    -0.222 NA
ATOM      9  C   UNL d   1      27.447 -14.618  -4.413  0.00  0.00     0.163 A 
ENDROOT
BRANCH   1  10
ATOM     10  C   UNL d   1      29.572 -13.951  -5.708  0.00  0.00     0.172 C 
BRANCH  10  11
ATOM     11  C   UNL d   1      30.033 -14.832  -6.902  0.00  0.00     0.145 C 
BRANCH  11  12
ATOM     12  N   UNL d   1      30.101 -16.256  -6.602  0.00  0.00    -0.355 N 
ATOM     13  C   UNL d   1      30.984 -17.110  -7.244  0.00  0.00     0.254 C 
ATOM     14  O   UNL d   1      31.755 -16.683  -8.108  0.00  0.00    -0.268 OA
ATOM     15  H   UNL d   1      29.485 -16.609  -5.899  0.00  0.00     0.162 HD
BRANCH  13  16
ATOM     16  C   UNL d   1      30.964 -18.542  -6.862  0.00  0.00     0.066 A 
ATOM     17  C   UNL d   1      31.032 -19.052  -5.506  0.00  0.00     0.008 A 
ATOM     18  C   UNL d   1      31.106 -18.441  -4.234  0.00  0.00     0.015 A 
ATOM     19  C   UNL d   1      31.016 -20.446  -5.553  0.00  0.00     0.043 A 
ATOM     20  C   UNL d   1      31.156 -19.225  -3.074  0.00  0.00     0.001 A 
ATOM     21  C   UNL d   1      31.154 -20.613  -3.160  0.00  0.00     0.002 A 
ATOM     22  C   UNL d   1      31.088 -21.252  -4.404  0.00  0.00     0.030 A 
ATOM     23  N   UNL d   1      30.916 -20.790  -6.879  0.00  0.00    -0.358 N 
ATOM     24  C   UNL d   1      30.881 -19.669  -7.681  0.00  0.00     0.022 A 
ATOM     25  H   UNL d   1      30.869 -21.745  -7.209  0.00  0.00     0.166 HD
ATOM     26  C   UNL d   1      30.780 -19.803  -9.155  0.00  0.00     0.069 C 
ENDBRANCH  13  16
ENDBRANCH  11  12
ENDBRANCH  10  11
ENDBRANCH   1  10
BRANCH   5  27
ATOM     27  N   UNL d   1      25.686 -16.553  -1.753  0.00  0.00    -0.360 N 
ATOM     28  C   UNL d   1      24.306 -17.026  -1.632  0.00  0.00     0.156 C 
ATOM     29  C   UNL d   1      24.183 -18.212  -0.694  0.00  0.00     0.136 C 
ATOM     30  C   UNL d   1      22.718 -18.623  -0.644  0.00  0.00     0.041 C 
ATOM     31  O   UNL d   1      24.674 -17.853   0.605  0.00  0.00    -0.378 OA
ATOM     32  C   UNL d   1      26.055 -17.398   0.539  0.00  0.00     0.136 C 
ATOM     33  C   UNL d   1      26.238 -16.184  -0.433  0.00  0.00     0.156 C 
ATOM     34  C   UNL d   1      26.975 -18.552   0.141  0.00  0.00     0.041 C 
ENDBRANCH   5  27
TORSDOF 5
ENDMDL
MODEL 2
REMARK VINA RESULT:    -8.208      6.654      9.684
REMARK INTER + INTRA:         -11.252
REMARK INTER:                  -9.700
REMARK INTRA:                  -1.552
REMARK CONF_INDEPENDENT:        1.492
REMARK UNBOUND:                -1.552
REMARK  5 active torsions:
REMARK  status: ('A' for Active; 'I' for Inactive)
REMARK    1  A    between atoms: C_10  and  C_11 
REMARK       I    between atoms: C_11  and  N_13 
REMARK    2  A    between atoms: N_13  and  C_14 
REMARK    3  A    between atoms: C_14  and  C_15 
REMARK    4  A    between atoms: C_15  and  N_16 
REMARK    5  A    between atoms: C_20  and  N_21 
ROOT
ATOM      1  N   UNL d   1      27.161 -12.102   3.031  0.00  0.00    -0.250 N 
ATOM      2  N   UNL d   1      27.252 -10.920   3.666  0.00  0.00    -0.182 NA
ATOM      3  C   UNL d   1      27.780 -11.234   4.835  0.00  0.00     0.158 A 
ATOM      4  C   UNL d   1      28.027 -12.611   5.000  0.00  0.00     0.076 A 
ATOM      5  C   UNL d   1      28.536 -13.448   6.027  0.00  0.00     0.142 A 
ATOM      6  N   UNL d   1      28.607 -14.774   5.730  0.00  0.00    -0.224 NA
ATOM      7  C   UNL d   1      28.155 -15.200   4.521  0.00  0.00     0.237 A 
ATOM      8  N   UNL d   1      27.644 -14.477   3.491  0.00  0.00    -0.222 NA
ATOM      9  C   UNL d   1      27.609 -13.166   3.796  0.00  0.00     0.163 A 
ENDROOT
BRANCH   1  10
ATOM     10  C   UNL d   1      26.653 -12.071   1.670  0.00  0.00     0.172 C 
BRANCH  10  11
ATOM     11  C   UNL d   1      27.499 -12.918   0.679  0.00  0.00     0.145 C 
BRANCH  11  12
ATOM     12  N   UNL d   1      27.124 -14.325   0.625  0.00  0.00    -0.355 N 
ATOM     13  C   UNL d   1      26.331 -14.845  -0.385  0.00  0.00     0.254 C 
ATOM     14  O   UNL d   1      25.907 -14.119  -1.288  0.00  0.00    -0.268 OA
ATOM     15  H   UNL d   1      27.468 -14.921   1.349  0.00  0.00     0.162 HD
BRANCH  13  16
ATOM     16  C   UNL d   1      26.009 -16.291  -0.338  0.00  0.00     0.066 A 
ATOM     17  C   UNL d   1      24.675 -16.858  -0.393  0.00  0.00     0.008 A 
ATOM     18  C   UNL d   1      23.381 -16.305  -0.520  0.00  0.00     0.015 A 
ATOM     19  C   UNL d   1      24.777 -18.246  -0.294  0.00  0.00     0.043 A 
ATOM     20  C   UNL d   1      22.255 -17.137  -0.548  0.00  0.00     0.001 A 
ATOM     21  C   UNL d   1      22.394 -18.515  -0.431  0.00  0.00     0.002 A 
ATOM     22  C   UNL d   1      23.659 -19.098  -0.297  0.00  0.00     0.030 A 
ATOM     23  N   UNL d   1      26.117 -18.534  -0.207  0.00  0.00    -0.358 N 
ATOM     24  C   UNL d   1      26.874 -17.382  -0.233  0.00  0.00     0.022 A 
ATOM     25  H   UNL d   1      26.487 -19.473  -0.139  0.00  0.00     0.166 HD
ATOM     26  C   UNL d   1      28.353 -17.452  -0.146  0.00  0.00     0.069 C 
ENDBRANCH  13  16
ENDBRANCH  11  12
ENDBRANCH  10  11
ENDBRANCH   1  10
BRANCH   5  27
ATOM     27  N   UNL d   1      28.797 -13.007   7.329  0.00  0.00    -0.360 N 
ATOM     28  C   UNL d   1      29.377 -11.667   7.429  0.00  0.00     0.156 C 
ATOM     29  C   UNL d   1      29.222 -11.073   8.817  0.00  0.00     0.136 C 
ATOM     30  C   UNL d   1      29.851  -9.686   8.808  0.00  0.00     0.041 C 
ATOM     31  O   UNL d   1      29.846 -11.929   9.782  0.00  0.00    -0.378 OA
ATOM     32  C   UNL d   1      29.284 -13.270   9.737  0.00  0.00     0.136 C 
ATOM     33  C   UNL d   1      29.404 -13.922   8.318  0.00  0.00     0.156 C 
ATOM     34  C   UNL d   1      27.827 -13.251  10.201  0.00  0.00     0.041 C 
ENDBRANCH   5  27
TORSDOF 5
ENDMDL
MODEL 3
REMARK VINA RESULT:    -8.145      1.509      2.893
REMARK INTER + INTRA:         -11.413
REMARK INTER:                  -9.636
REMARK INTRA:                  -1.777
REMARK CONF_INDEPENDENT:        1.492
REMARK UNBOUND:                -1.777
REMARK  5 active torsions:
REMARK  status: ('A' for Active; 'I' for Inactive)
REMARK    1  A    between atoms: C_10  and  C_11 
REMARK       I    between atoms: C_11  and  N_13 
REMARK    2  A    between atoms: N_13  and  C_14 
REMARK    3  A    between atoms: C_14  and  C_15 
REMARK    4  A    between atoms: C_15  and  N_16 
REMARK    5  A    between atoms: C_20  and  N_21 
ROOT
ATOM      1  N   UNL d   1      27.094 -14.010  -5.142  0.00  0.00    -0.250 N 
ATOM      2  N   UNL d   1      26.547 -15.170  -5.548  0.00  0.00    -0.182 NA
ATOM      3  C   UNL d   1      26.018 -15.669  -4.445  0.00  0.00     0.158 A 
ATOM      4  C   UNL d   1      26.218 -14.869  -3.302  0.00  0.00     0.076 A 
ATOM      5  C   UNL d   1      25.894 -14.949  -1.923  0.00  0.00     0.142 A 
ATOM      6  N   UNL d   1      26.296 -13.898  -1.158  0.00  0.00    -0.224 NA
ATOM      7  C   UNL d   1      27.001 -12.893  -1.743  0.00  0.00     0.237 A 
ATOM      8  N   UNL d   1      27.364 -12.742  -3.043  0.00  0.00    -0.222 NA
ATOM      9  C   UNL d   1      26.932 -13.779  -3.786  0.00  0.00     0.163 A 
ENDROOT
BRANCH   1  10
ATOM     10  C   UNL d   1      27.719 -13.192  -6.168  0.00  0.00     0.172 C 
BRANCH  10  11
ATOM     11  C   UNL d   1      28.897 -13.904  -6.888  0.00  0.00     0.145 C 
BRANCH  11  12
ATOM     12  N   UNL d   1      29.181 -15.243  -6.388  0.00  0.00    -0.355 N 
ATOM     13  C   UNL d   1      30.305 -15.957  -6.772  0.00  0.00     0.254 C 
ATOM     14  O   UNL d   1      31.116 -15.473  -7.567  0.00  0.00    -0.268 OA
ATOM     15  H   UNL d   1      28.533 -15.641  -5.740  0.00  0.00     0.162 HD
BRANCH  13  16
ATOM     16  C   UNL d   1      30.492 -17.313  -6.204  0.00  0.00     0.066 A 
ATOM     17  C   UNL d   1      30.865 -18.496  -6.955  0.00  0.00     0.008 A 
ATOM     18  C   UNL d   1      31.167 -18.737  -8.314  0.00  0.00     0.015 A 
ATOM     19  C   UNL d   1      30.915 -19.582  -6.080  0.00  0.00     0.043 A 
ATOM     20  C   UNL d   1      31.506 -20.025  -8.746  0.00  0.00     0.001 A 
ATOM     21  C   UNL d   1      31.530 -21.087  -7.849  0.00  0.00     0.002 A 
ATOM     22  C   UNL d   1      31.230 -20.887  -6.496  0.00  0.00     0.030 A 
ATOM     23  N   UNL d   1      30.612 -19.092  -4.833  0.00  0.00    -0.358 N 
ATOM     24  C   UNL d   1      30.357 -17.738  -4.881  0.00  0.00     0.022 A 
ATOM     25  H   UNL d   1      30.587 -19.661  -3.997  0.00  0.00     0.166 HD
ATOM     26  C   UNL d   1      30.002 -16.996  -3.646  0.00  0.00     0.069 C 
ENDBRANCH  13  16
ENDBRANCH  11  12
ENDBRANCH  10  11
ENDBRANCH   1  10
BRANCH   5  27
ATOM     27  N   UNL d   1      25.353 -16.089  -1.318  0.00  0.00    -0.360 N 
ATOM     28  C   UNL d   1      26.294 -16.879  -0.523  0.00  0.00     0.156 C 
ATOM     29  C   UNL d   1      25.590 -17.809   0.448  0.00  0.00     0.136 C 
ATOM     30  C   UNL d   1      26.655 -18.575   1.222  0.00  0.00     0.041 C 
ATOM     31  O   UNL d   1      24.723 -18.694  -0.273  0.00  0.00    -0.378 OA
ATOM     32  C   UNL d   1      23.751 -17.953  -1.062  0.00  0.00     0.136 C 
ATOM     33  C   UNL d   1      24.428 -16.964  -2.069  0.00  0.00     0.156 C 
ATOM     34  C   UNL d   1      22.781 -17.209  -0.145  0.00  0.00     0.041 C 
ENDBRANCH   5  27
TORSDOF 5
ENDMDL
MODEL 4
REMARK VINA RESULT:    -8.076      1.044      2.276
REMARK INTER + INTRA:         -11.247
REMARK INTER:                  -9.567
REMARK INTRA:                  -1.679
REMARK CONF_INDEPENDENT:        1.492
REMARK UNBOUND:                -1.679
REMARK  5 active torsions:
REMARK  status: ('A' for Active; 'I' for Inactive)
REMARK    1  A    between atoms: C_10  and  C_11 
REMARK       I    between atoms: C_11  and  N_13 
REMARK    2  A    between atoms: N_13  and  C_14 
REMARK    3  A    between atoms: C_14  and  C_15 
REMARK    4  A    between atoms: C_15  and  N_16 
REMARK    5  A    between atoms: C_20  and  N_21 
ROOT
ATOM      1  N   UNL d   1      28.280 -14.327  -4.641  0.00  0.00    -0.250 N 
ATOM      2  N   UNL d   1      29.007 -15.261  -4.004  0.00  0.00    -0.182 NA
ATOM      3  C   UNL d   1      28.126 -15.871  -3.232  0.00  0.00     0.158 A 
ATOM      4  C   UNL d   1      26.822 -15.347  -3.329  0.00  0.00     0.076 A 
ATOM      5  C   UNL d   1      25.564 -15.605  -2.725  0.00  0.00     0.142 A 
ATOM      6  N   UNL d   1      24.532 -14.825  -3.148  0.00  0.00    -0.224 NA
ATOM      7  C   UNL d   1      24.781 -13.848  -4.060  0.00  0.00     0.237 A 
ATOM      8  N   UNL d   1      25.947 -13.524  -4.677  0.00  0.00    -0.222 NA
ATOM      9  C   UNL d   1      26.947 -14.327  -4.264  0.00  0.00     0.163 A 
ENDROOT
BRANCH   1  10
ATOM     10  C   UNL d   1      28.980 -13.513  -5.620  0.00  0.00     0.172 C 
BRANCH  10  11
ATOM     11  C   UNL d   1      29.483 -14.323  -6.847  0.00  0.00     0.145 C 
BRANCH  11  12
ATOM     12  N   UNL d   1      29.724 -15.734  -6.573  0.00  0.00    -0.355 N 
ATOM     13  C   UNL d   1      30.779 -16.432  -7.138  0.00  0.00     0.254 C 
ATOM     14  O   UNL d   1      31.563 -15.870  -7.908  0.00  0.00    -0.268 OA
ATOM     15  H   UNL d   1      29.097 -16.196  -5.946  0.00  0.00     0.162 HD
BRANCH  13  16
ATOM     16  C   UNL d   1      30.927 -17.865  -6.791  0.00  0.00     0.066 A 
ATOM     17  C   UNL d   1      31.283 -18.922  -7.718  0.00  0.00     0.008 A 
ATOM     18  C   UNL d   1      31.599 -18.951  -9.095  0.00  0.00     0.015 A 
ATOM     19  C   UNL d   1      31.295 -20.134  -7.028  0.00  0.00     0.043 A 
ATOM     20  C   UNL d   1      31.914 -20.162  -9.724  0.00  0.00     0.001 A 
ATOM     21  C   UNL d   1      31.901 -21.353  -9.007  0.00  0.00     0.002 A 
ATOM     22  C   UNL d   1      31.586 -21.364  -7.643  0.00  0.00     0.030 A 
ATOM     23  N   UNL d   1      30.986 -19.843  -5.722  0.00  0.00    -0.358 N 
ATOM     24  C   UNL d   1      30.763 -18.492  -5.555  0.00  0.00     0.022 A 
ATOM     25  H   UNL d   1      30.936 -20.537  -4.988  0.00  0.00     0.166 HD
ATOM     26  C   UNL d   1      30.408 -17.948  -4.221  0.00  0.00     0.069 C 
ENDBRANCH  13  16
ENDBRANCH  11  12
ENDBRANCH  10  11
ENDBRANCH   1  10
BRANCH   5  27
ATOM     27  N   UNL d   1      25.386 -16.474  -1.642  0.00  0.00    -0.360 N 
ATOM     28  C   UNL d   1      24.024 -16.980  -1.466  0.00  0.00     0.156 C 
ATOM     29  C   UNL d   1      23.978 -18.224  -0.599  0.00  0.00     0.136 C 
ATOM     30  C   UNL d   1      22.525 -18.665  -0.484  0.00  0.00     0.041 C 
ATOM     31  O   UNL d   1      24.545 -17.938   0.687  0.00  0.00    -0.378 OA
ATOM     32  C   UNL d   1      25.911 -17.454   0.564  0.00  0.00     0.136 C 
ATOM     33  C   UNL d   1      26.015 -16.178  -0.338  0.00  0.00     0.156 C 
ATOM     34  C   UNL d   1      26.822 -18.563   0.037  0.00  0.00     0.041 C 
ENDBRANCH   5  27
TORSDOF 5
ENDMDL
MODEL 5
REMARK VINA RESULT:    -7.894      5.304      9.056
REMARK INTER + INTRA:         -11.088
REMARK INTER:                  -9.385
REMARK INTRA:                  -1.703
REMARK CONF_INDEPENDENT:        1.492
REMARK UNBOUND:                -1.703
REMARK  5 active torsions:
REMARK  status: ('A' for Active; 'I' for Inactive)
REMARK    1  A    between atoms: C_10  and  C_11 
REMARK       I    between atoms: C_11  and  N_13 
REMARK    2  A    between atoms: N_13  and  C_14 
REMARK    3  A    between atoms: C_14  and  C_15 
REMARK    4  A    between atoms: C_15  and  N_16 
REMARK    5  A    between atoms: C_20  and  N_21 
ROOT
ATOM      1  N   UNL d   1      26.858 -11.431  -1.803  0.00  0.00    -0.250 N 
ATOM      2  N   UNL d   1      27.371 -11.839  -0.629  0.00  0.00    -0.182 NA
ATOM      3  C   UNL d   1      27.071 -13.124  -0.586  0.00  0.00     0.158 A 
ATOM      4  C   UNL d   1      26.347 -13.579  -1.706  0.00  0.00     0.076 A 
ATOM      5  C   UNL d   1      25.777 -14.808  -2.130  0.00  0.00     0.142 A 
ATOM      6  N   UNL d   1      25.151 -14.784  -3.339  0.00  0.00    -0.224 NA
ATOM      7  C   UNL d   1      25.076 -13.608  -4.015  0.00  0.00     0.237 A 
ATOM      8  N   UNL d   1      25.578 -12.391  -3.681  0.00  0.00    -0.222 NA
ATOM      9  C   UNL d   1      26.217 -12.444  -2.496  0.00  0.00     0.163 A 
ENDROOT
BRANCH   1  10
ATOM     10  C   UNL d   1      27.081 -10.040  -2.162  0.00  0.00     0.172 C 
BRANCH  10  11
ATOM     11  C   UNL d   1      26.655  -9.042  -1.050  0.00  0.00     0.145 C 
BRANCH  11  12
ATOM     12  N   UNL d   1      27.083  -9.423   0.290  0.00  0.00    -0.355 N 
ATOM     13  C   UNL d   1      26.473  -8.932   1.433  0.00  0.00     0.254 C 
ATOM     14  O   UNL d   1      25.530  -8.139   1.351  0.00  0.00    -0.268 OA
ATOM     15  H   UNL d   1      27.842 -10.068   0.366  0.00  0.00     0.162 HD
BRANCH  13  16
ATOM     16  C   UNL d   1      26.993  -9.384   2.745  0.00  0.00     0.066 A 
ATOM     17  C   UNL d   1      27.203 -10.764   3.136  0.00  0.00     0.008 A 
ATOM     18  C   UNL d   1      27.030 -12.004   2.480  0.00  0.00     0.015 A 
ATOM     19  C   UNL d   1      27.674 -10.789   4.449  0.00  0.00     0.043 A 
ATOM     20  C   UNL d   1      27.331 -13.202   3.140  0.00  0.00     0.001 A 
ATOM     21  C   UNL d   1      27.785 -13.189   4.455  0.00  0.00     0.002 A 
ATOM     22  C   UNL d   1      27.961 -11.980   5.138  0.00  0.00     0.030 A 
ATOM     23  N   UNL d   1      27.779  -9.479   4.850  0.00  0.00    -0.358 N 
ATOM     24  C   UNL d   1      27.380  -8.621   3.848  0.00  0.00     0.022 A 
ATOM     25  H   UNL d   1      28.112  -9.196   5.762  0.00  0.00     0.166 HD
ATOM     26  C   UNL d   1      27.405  -7.153   4.062  0.00  0.00     0.069 C 
ENDBRANCH  13  16
ENDBRANCH  11  12
ENDBRANCH  10  11
ENDBRANCH   1  10
BRANCH   5  27
ATOM     27  N   UNL d   1      25.692 -15.945  -1.319  0.00  0.00    -0.360 N 
ATOM     28  C   UNL d   1      24.408 -16.646  -1.362  0.00  0.00     0.156 C 
ATOM     29  C   UNL d   1      24.510 -18.069  -0.846  0.00  0.00     0.136 C 
ATOM     30  C   UNL d   1      23.128 -18.703  -0.937  0.00  0.00     0.041 C 
ATOM     31  O   UNL d   1      24.997 -18.060   0.502  0.00  0.00    -0.378 OA
ATOM     32  C   UNL d   1      26.288 -17.394   0.591  0.00  0.00     0.136 C 
ATOM     33  C   UNL d   1      26.240 -15.924   0.053  0.00  0.00     0.156 C 
ATOM     34  C   UNL d   1      27.355 -18.204  -0.145  0.00  0.00     0.041 C 
ENDBRANCH   5  27
TORSDOF 5
ENDMDL
MODEL 6
REMARK VINA RESULT:    -7.695      3.944      7.921
REMARK INTER + INTRA:         -11.105
REMARK INTER:                  -9.187
REMARK INTRA:                  -1.919
REMARK CONF_INDEPENDENT:        1.492
REMARK UNBOUND:                -1.919
REMARK  5 active torsions:
REMARK  status: ('A' for Active; 'I' for Inactive)
REMARK    1  A    between atoms: C_10  and  C_11 
REMARK       I    between atoms: C_11  and  N_13 
REMARK    2  A    between atoms: N_13  and  C_14 
REMARK    3  A    between atoms: C_14  and  C_15 
REMARK    4  A    between atoms: C_15  and  N_16 
REMARK    5  A    between atoms: C_20  and  N_21 
ROOT
ATOM      1  N   UNL d   1      27.993 -14.283  -5.616  0.00  0.00    -0.250 N 
ATOM      2  N   UNL d   1      28.771 -15.262  -5.123  0.00  0.00    -0.182 NA
ATOM      3  C   UNL d   1      28.050 -15.769  -4.139  0.00  0.00     0.158 A 
ATOM      4  C   UNL d   1      26.808 -15.131  -3.953  0.00  0.00     0.076 A 
ATOM      5  C   UNL d   1      25.711 -15.258  -3.061  0.00  0.00     0.142 A 
ATOM      6  N   UNL d   1      24.676 -14.399  -3.269  0.00  0.00    -0.224 NA
ATOM      7  C   UNL d   1      24.781 -13.473  -4.258  0.00  0.00     0.237 A 
ATOM      8  N   UNL d   1      25.791 -13.273  -5.144  0.00  0.00    -0.222 NA
ATOM      9  C   UNL d   1      26.791 -14.152  -4.939  0.00  0.00     0.163 A 
ENDROOT
BRANCH   1  10
ATOM     10  C   UNL d   1      28.506 -13.561  -6.768  0.00  0.00     0.172 C 
BRANCH  10  11
ATOM     11  C   UNL d   1      28.836 -12.073  -6.464  0.00  0.00     0.145 C 
BRANCH  11  12
ATOM     12  N   UNL d   1      27.772 -11.354  -5.777  0.00  0.00    -0.355 N 
ATOM     13  C   UNL d   1      27.304 -10.124  -6.212  0.00  0.00     0.254 C 
ATOM     14  O   UNL d   1      27.785  -9.587  -7.214  0.00  0.00    -0.268 OA
ATOM     15  H   UNL d   1      27.372 -11.783  -4.968  0.00  0.00     0.162 HD
BRANCH  13  16
ATOM     16  C   UNL d   1      26.220  -9.480  -5.434  0.00  0.00     0.066 A 
ATOM     17  C   UNL d   1      25.342  -8.433  -5.920  0.00  0.00     0.008 A 
ATOM     18  C   UNL d   1      25.212  -7.762  -7.156  0.00  0.00     0.015 A 
ATOM     19  C   UNL d   1      24.473  -8.067  -4.892  0.00  0.00     0.043 A 
ATOM     20  C   UNL d   1      24.238  -6.771  -7.325  0.00  0.00     0.001 A 
ATOM     21  C   UNL d   1      23.398  -6.420  -6.273  0.00  0.00     0.002 A 
ATOM     22  C   UNL d   1      23.503  -7.059  -5.032  0.00  0.00     0.030 A 
ATOM     23  N   UNL d   1      24.778  -8.868  -3.819  0.00  0.00    -0.358 N 
ATOM     24  C   UNL d   1      25.817  -9.723  -4.119  0.00  0.00     0.022 A 
ATOM     25  H   UNL d   1      24.292  -8.829  -2.933  0.00  0.00     0.166 HD
ATOM     26  C   UNL d   1      26.320 -10.681  -3.103  0.00  0.00     0.069 C 
ENDBRANCH  13  16
ENDBRANCH  11  12
ENDBRANCH  10  11
ENDBRANCH   1  10
BRANCH   5  27
ATOM     27  N   UNL d   1      25.724 -16.079  -1.928  0.00  0.00    -0.360 N 
ATOM     28  C   UNL d   1      24.467 -16.775  -1.648  0.00  0.00     0.156 C 
ATOM     29  C   UNL d   1      24.657 -17.958  -0.718  0.00  0.00     0.136 C 
ATOM     30  C   UNL d   1      23.297 -18.607  -0.497  0.00  0.00     0.041 C 
ATOM     31  O   UNL d   1      25.235 -17.514   0.517  0.00  0.00    -0.378 OA
ATOM     32  C   UNL d   1      26.502 -16.836   0.291  0.00  0.00     0.136 C 
ATOM     33  C   UNL d   1      26.363 -15.615  -0.679  0.00  0.00     0.156 C 
ATOM     34  C   UNL d   1      27.546 -17.823  -0.230  0.00  0.00     0.041 C 
ENDBRANCH   5  27
TORSDOF 5
ENDMDL
MODEL 7
REMARK VINA RESULT:    -7.551      3.655      7.260
REMARK INTER + INTRA:         -10.686
REMARK INTER:                  -9.043
REMARK INTRA:                  -1.643
REMARK CONF_INDEPENDENT:        1.492
REMARK UNBOUND:                -1.643
REMARK  5 active torsions:
REMARK  status: ('A' for Active; 'I' for Inactive)
REMARK    1  A    between atoms: C_10  and  C_11 
REMARK       I    between atoms: C_11  and  N_13 
REMARK    2  A    between atoms: N_13  and  C_14 
REMARK    3  A    between atoms: C_14  and  C_15 
REMARK    4  A    between atoms: C_15  and  N_16 
REMARK    5  A    between atoms: C_20  and  N_21 
ROOT
ATOM      1  N   UNL d   1      28.152 -14.254  -5.195  0.00  0.00    -0.250 N 
ATOM      2  N   UNL d   1      28.936 -15.188  -4.630  0.00  0.00    -0.182 NA
ATOM      3  C   UNL d   1      28.142 -15.772  -3.750  0.00  0.00     0.158 A 
ATOM      4  C   UNL d   1      26.843 -15.229  -3.703  0.00  0.00     0.076 A 
ATOM      5  C   UNL d   1      25.660 -15.457  -2.952  0.00  0.00     0.142 A 
ATOM      6  N   UNL d   1      24.597 -14.668  -3.267  0.00  0.00    -0.224 NA
ATOM      7  C   UNL d   1      24.751 -13.711  -4.220  0.00  0.00     0.237 A 
ATOM      8  N   UNL d   1      25.842 -13.415  -4.974  0.00  0.00    -0.222 NA
ATOM      9  C   UNL d   1      26.872 -14.226  -4.665  0.00  0.00     0.163 A 
ENDROOT
BRANCH   1  10
ATOM     10  C   UNL d   1      28.744 -13.467  -6.263  0.00  0.00     0.172 C 
BRANCH  10  11
ATOM     11  C   UNL d   1      27.777 -12.403  -6.852  0.00  0.00     0.145 C 
BRANCH  11  12
ATOM     12  N   UNL d   1      27.186 -11.517  -5.857  0.00  0.00    -0.355 N 
ATOM     13  C   UNL d   1      26.546 -10.337  -6.198  0.00  0.00     0.254 C 
ATOM     14  O   UNL d   1      26.455  -9.990  -7.379  0.00  0.00    -0.268 OA
ATOM     15  H   UNL d   1      27.250 -11.793  -4.898  0.00  0.00     0.162 HD
BRANCH  13  16
ATOM     16  C   UNL d   1      25.985  -9.511  -5.103  0.00  0.00     0.066 A 
ATOM     17  C   UNL d   1      26.415  -9.545  -3.718  0.00  0.00     0.008 A 
ATOM     18  C   UNL d   1      27.409 -10.267  -3.020  0.00  0.00     0.015 A 
ATOM     19  C   UNL d   1      25.634  -8.650  -2.987  0.00  0.00     0.043 A 
ATOM     20  C   UNL d   1      27.591 -10.072  -1.646  0.00  0.00     0.001 A 
ATOM     21  C   UNL d   1      26.784  -9.182  -0.946  0.00  0.00     0.002 A 
ATOM     22  C   UNL d   1      25.784  -8.455  -1.603  0.00  0.00     0.030 A 
ATOM     23  N   UNL d   1      24.772  -8.063  -3.881  0.00  0.00    -0.358 N 
ATOM     24  C   UNL d   1      24.964  -8.560  -5.153  0.00  0.00     0.022 A 
ATOM     25  H   UNL d   1      24.094  -7.357  -3.627  0.00  0.00     0.166 HD
ATOM     26  C   UNL d   1      24.136  -8.072  -6.283  0.00  0.00     0.069 C 
ENDBRANCH  13  16
ENDBRANCH  11  12
ENDBRANCH  10  11
ENDBRANCH   1  10
BRANCH   5  27
ATOM     27  N   UNL d   1      25.598 -16.306  -1.841  0.00  0.00    -0.360 N 
ATOM     28  C   UNL d   1      24.298 -16.935  -1.609  0.00  0.00     0.156 C 
ATOM     29  C   UNL d   1      24.397 -18.150  -0.706  0.00  0.00     0.136 C 
ATOM     30  C   UNL d   1      22.997 -18.725  -0.535  0.00  0.00     0.041 C 
ATOM     31  O   UNL d   1      24.968 -17.771   0.553  0.00  0.00    -0.378 OA
ATOM     32  C   UNL d   1      26.277 -17.161   0.375  0.00  0.00     0.136 C 
ATOM     33  C   UNL d   1      26.231 -15.910  -0.566  0.00  0.00     0.156 C 
ATOM     34  C   UNL d   1      27.276 -18.193  -0.148  0.00  0.00     0.041 C 
ENDBRANCH   5  27
TORSDOF 5
ENDMDL
MODEL 8
REMARK VINA RESULT:    -7.260      2.154      3.355
REMARK INTER + INTRA:         -10.943
REMARK INTER:                  -8.751
REMARK INTRA:                  -2.191
REMARK CONF_INDEPENDENT:        1.492
REMARK UNBOUND:                -2.191
REMARK  5 active torsions:
REMARK  status: ('A' for Active; 'I' for Inactive)
REMARK    1  A    between atoms: C_10  and  C_11 
REMARK       I    between atoms: C_11  and  N_13 
REMARK    2  A    between atoms: N_13  and  C_14 
REMARK    3  A    between atoms: C_14  and  C_15 
REMARK    4  A    between atoms: C_15  and  N_16 
REMARK    5  A    between atoms: C_20  and  N_21 
ROOT
ATOM      1  N   UNL d   1      26.487 -13.225  -4.477  0.00  0.00    -0.250 N 
ATOM      2  N   UNL d   1      25.863 -14.283  -5.025  0.00  0.00    -0.182 NA
ATOM      3  C   UNL d   1      25.529 -15.022  -3.983  0.00  0.00     0.158 A 
ATOM      4  C   UNL d   1      25.937 -14.484  -2.746  0.00  0.00     0.076 A 
ATOM      5  C   UNL d   1      25.859 -14.871  -1.382  0.00  0.00     0.142 A 
ATOM      6  N   UNL d   1      26.402 -14.000  -0.488  0.00  0.00    -0.224 NA
ATOM      7  C   UNL d   1      27.006 -12.875  -0.953  0.00  0.00     0.237 A 
ATOM      8  N   UNL d   1      27.138 -12.435  -2.232  0.00  0.00    -0.222 NA
ATOM      9  C   UNL d   1      26.569 -13.297  -3.096  0.00  0.00     0.163 A 
ENDROOT
BRANCH   1  10
ATOM     10  C   UNL d   1      26.933 -12.187  -5.392  0.00  0.00     0.172 C 
BRANCH  10  11
ATOM     11  C   UNL d   1      28.326 -12.477  -6.018  0.00  0.00     0.145 C 
BRANCH  11  12
ATOM     12  N   UNL d   1      29.041 -13.583  -5.396  0.00  0.00    -0.355 N 
ATOM     13  C   UNL d   1      28.771 -14.908  -5.698  0.00  0.00     0.254 C 
ATOM     14  O   UNL d   1      27.896 -15.199  -6.520  0.00  0.00    -0.268 OA
ATOM     15  H   UNL d   1      29.755 -13.357  -4.734  0.00  0.00     0.162 HD
BRANCH  13  16
ATOM     16  C   UNL d   1      29.558 -15.953  -5.002  0.00  0.00     0.066 A 
ATOM     17  C   UNL d   1      29.619 -16.143  -3.566  0.00  0.00     0.008 A 
ATOM     18  C   UNL d   1      29.009 -15.497  -2.467  0.00  0.00     0.015 A 
ATOM     19  C   UNL d   1      30.483 -17.204  -3.293  0.00  0.00     0.043 A 
ATOM     20  C   UNL d   1      29.271 -15.925  -1.159  0.00  0.00     0.001 A 
ATOM     21  C   UNL d   1      30.150 -16.977  -0.924  0.00  0.00     0.002 A 
ATOM     22  C   UNL d   1      30.778 -17.636  -1.988  0.00  0.00     0.030 A 
ATOM     23  N   UNL d   1      30.920 -17.673  -4.507  0.00  0.00    -0.358 N 
ATOM     24  C   UNL d   1      30.380 -16.943  -5.545  0.00  0.00     0.022 A 
ATOM     25  H   UNL d   1      31.552 -18.456  -4.613  0.00  0.00     0.166 HD
ATOM     26  C   UNL d   1      30.718 -17.270  -6.951  0.00  0.00     0.069 C 
ENDBRANCH  13  16
ENDBRANCH  11  12
ENDBRANCH  10  11
ENDBRANCH   1  10
BRANCH   5  27
ATOM     27  N   UNL d   1      25.418 -16.128  -0.956  0.00  0.00    -0.360 N 
ATOM     28  C   UNL d   1      26.454 -16.994  -0.390  0.00  0.00     0.156 C 
ATOM     29  C   UNL d   1      25.873 -18.119   0.445  0.00  0.00     0.136 C 
ATOM     30  C   UNL d   1      27.030 -18.950   0.985  0.00  0.00     0.041 C 
ATOM     31  O   UNL d   1      24.986 -18.909  -0.358  0.00  0.00    -0.378 OA
ATOM     32  C   UNL d   1      23.922 -18.094  -0.923  0.00  0.00     0.136 C 
ATOM     33  C   UNL d   1      24.471 -16.905  -1.782  0.00  0.00     0.156 C 
ATOM     34  C   UNL d   1      23.002 -17.580   0.184  0.00  0.00     0.041 C 
ENDBRANCH   5  27
TORSDOF 5
ENDMDL
MODEL 9
REMARK VINA RESULT:    -7.007      2.883      4.370
REMARK INTER + INTRA:         -11.248
REMARK INTER:                  -8.499
REMARK INTRA:                  -2.749
REMARK CONF_INDEPENDENT:        1.492
REMARK UNBOUND:                -2.749
REMARK  5 active torsions:
REMARK  status: ('A' for Active; 'I' for Inactive)
REMARK    1  A    between atoms: C_10  and  C_11 
REMARK       I    between atoms: C_11  and  N_13 
REMARK    2  A    between atoms: N_13  and  C_14 
REMARK    3  A    between atoms: C_14  and  C_15 
REMARK    4  A    between atoms: C_15  and  N_16 
REMARK    5  A    between atoms: C_20  and  N_21 
ROOT
ATOM      1  N   UNL d   1      26.333 -11.285  -2.773  0.00  0.00    -0.250 N 
ATOM      2  N   UNL d   1      26.958 -11.428  -1.591  0.00  0.00    -0.182 NA
ATOM      3  C   UNL d   1      26.882 -12.724  -1.352  0.00  0.00     0.158 A 
ATOM      4  C   UNL d   1      26.199 -13.450  -2.347  0.00  0.00     0.076 A 
ATOM      5  C   UNL d   1      25.829 -14.804  -2.559  0.00  0.00     0.142 A 
ATOM      6  N   UNL d   1      25.157 -15.060  -3.715  0.00  0.00    -0.224 NA
ATOM      7  C   UNL d   1      24.854 -14.024  -4.541  0.00  0.00     0.237 A 
ATOM      8  N   UNL d   1      25.155 -12.705  -4.411  0.00  0.00    -0.222 NA
ATOM      9  C   UNL d   1      25.844 -12.480  -3.276  0.00  0.00     0.163 A 
ENDROOT
BRANCH   1  10
ATOM     10  C   UNL d   1      26.301  -9.945  -3.335  0.00  0.00     0.172 C 
BRANCH  10  11
ATOM     11  C   UNL d   1      26.731  -9.894  -4.827  0.00  0.00     0.145 C 
BRANCH  11  12
ATOM     12  N   UNL d   1      27.142 -11.180  -5.374  0.00  0.00    -0.355 N 
ATOM     13  C   UNL d   1      28.434 -11.665  -5.245  0.00  0.00     0.254 C 
ATOM     14  O   UNL d   1      29.295 -11.008  -4.652  0.00  0.00    -0.268 OA
ATOM     15  H   UNL d   1      26.451 -11.721  -5.852  0.00  0.00     0.162 HD
BRANCH  13  16
ATOM     16  C   UNL d   1      28.742 -12.984  -5.845  0.00  0.00     0.066 A 
ATOM     17  C   UNL d   1      29.046 -14.194  -5.106  0.00  0.00     0.008 A 
ATOM     18  C   UNL d   1      29.122 -14.507  -3.730  0.00  0.00     0.015 A 
ATOM     19  C   UNL d   1      29.308 -15.218  -6.016  0.00  0.00     0.043 A 
ATOM     20  C   UNL d   1      29.444 -15.805  -3.315  0.00  0.00     0.001 A 
ATOM     21  C   UNL d   1      29.714 -16.797  -4.251  0.00  0.00     0.002 A 
ATOM     22  C   UNL d   1      29.656 -16.522  -5.622  0.00  0.00     0.030 A 
ATOM     23  N   UNL d   1      29.148 -14.678  -7.268  0.00  0.00    -0.358 N 
ATOM     24  C   UNL d   1      28.808 -13.344  -7.192  0.00  0.00     0.022 A 
ATOM     25  H   UNL d   1      29.263 -15.203  -8.125  0.00  0.00     0.166 HD
ATOM     26  C   UNL d   1      28.589 -12.553  -8.428  0.00  0.00     0.069 C 
ENDBRANCH  13  16
ENDBRANCH  11  12
ENDBRANCH  10  11
ENDBRANCH   1  10
BRANCH   5  27
ATOM     27  N   UNL d   1      25.973 -15.808  -1.596  0.00  0.00    -0.360 N 
ATOM     28  C   UNL d   1      24.752 -16.553  -1.285  0.00  0.00     0.156 C 
ATOM     29  C   UNL d   1      25.042 -17.878  -0.604  0.00  0.00     0.136 C 
ATOM     30  C   UNL d   1      23.712 -18.568  -0.331  0.00  0.00     0.041 C 
ATOM     31  O   UNL d   1      25.776 -17.649   0.606  0.00  0.00    -0.378 OA
ATOM     32  C   UNL d   1      27.013 -16.931   0.344  0.00  0.00     0.136 C 
ATOM     33  C   UNL d   1      26.769 -15.561  -0.375  0.00  0.00     0.156 C 
ATOM     34  C   UNL d   1      27.972 -17.803  -0.467  0.00  0.00     0.041 C 
ENDBRANCH   5  27
TORSDOF 5
ENDMDL
