MODEL 1
REMARK VINA RESULT:    -9.916      0.000      0.000
REMARK INTER + INTRA:         -16.324
REMARK INTER:                 -13.198
REMARK INTRA:                  -3.126
REMARK CONF_INDEPENDENT:        3.281
REMARK UNBOUND:                -3.126
REMARK  11 active torsions:
REMARK  status: ('A' for Active; 'I' for Inactive)
REMARK    1  A    between atoms: O_2  and  C_3 
REMARK    2  A    between atoms: C_6  and  C_7 
REMARK    3  A    between atoms: C_7  and  C_8 
REMARK    4  A    between atoms: C_8  and  C_9 
REMARK       I    between atoms: C_9  and  N_11 
REMARK    5  A    between atoms: N_11  and  C_12 
REMARK    6  A    between atoms: C_17  and  C_18 
REMARK    7  A    between atoms: C_18  and  O_20 
REMARK    8  A    between atoms: O_20  and  C_21 
REMARK    9  A    between atoms: C_21  and  C_22 
REMARK       I    between atoms: C_22  and  N_24 
REMARK   10  A    between atoms: N_24  and  N_25 
REMARK       I    between atoms: N_25  and  C_26 
REMARK   11  A    between atoms: C_26  and  C_28 
ROOT
ATOM      1  C   UNL d   1      26.338 -13.527  -2.523  0.00  0.00     0.051 A 
ATOM      2  C   UNL d   1      26.963 -12.549  -3.330  0.00  0.00     0.030 A 
ATOM      3  C   UNL d   1      27.106 -12.739  -4.706  0.00  0.00     0.002 A 
ATOM      4  C   UNL d   1      26.650 -13.919  -5.280  0.00  0.00     0.001 A 
ATOM      5  C   UNL d   1      26.009 -14.888  -4.484  0.00  0.00     0.020 A 
ATOM      6  C   UNL d   1      25.823 -14.711  -3.093  0.00  0.00     0.066 A 
ENDROOT
BRANCH   6   7
ATOM      7  C   UNL d   1      25.062 -15.803  -2.342  0.00  0.00     0.296 C 
ATOM      8  O   UNL d   1      23.942 -15.597  -1.888  0.00  0.00    -0.259 OA
BRANCH   7   9
ATOM      9  O   UNL d   1      25.724 -16.996  -2.184  0.00  0.00    -0.308 OA
BRANCH   9  10
ATOM     10  C   UNL d   1      26.001 -17.462  -0.825  0.00  0.00     0.283 C 
BRANCH  10  11
ATOM     11  C   UNL d   1      24.768 -18.124  -0.086  0.00  0.00     0.260 C 
ATOM     12  O   UNL d   1      24.867 -18.573   1.061  0.00  0.00    -0.269 OA
ATOM     13  N   UNL d   1      23.557 -18.254  -0.780  0.00  0.00    -0.265 N 
ATOM     14  H   UNL d   1      23.276 -17.615  -1.521  0.00  0.00     0.190 HD
BRANCH  13  15
ATOM     15  N   UNL d   1      22.438 -18.931  -0.108  0.00  0.00    -0.263 N 
ATOM     16  C   UNL d   1      21.114 -18.662  -0.481  0.00  0.00     0.277 C 
ATOM     17  O   UNL d   1      20.887 -17.731  -1.270  0.00  0.00    -0.265 OA
ATOM     18  H   UNL d   1      22.680 -19.813   0.343  0.00  0.00     0.190 HD
BRANCH  16  19
ATOM     19  C   UNL d   1      20.041 -19.480   0.112  0.00  0.00     0.074 C 
ATOM     20  C   UNL d   1      18.947 -20.074  -0.491  0.00  0.00     0.025 C 
ATOM     21  C   UNL d   1      18.175 -20.886   0.409  0.00  0.00     0.009 C 
ATOM     22  C   UNL d   1      18.539 -20.689   1.719  0.00  0.00     0.050 C 
ATOM     23  S   UNL d   1      20.032 -19.848   1.807  0.00  0.00    -0.097 SA
ENDBRANCH  16  19
ENDBRANCH  13  15
ENDBRANCH  10  11
ENDBRANCH   9  10
ENDBRANCH   7   9
ENDBRANCH   6   7
BRANCH   1  24
ATOM     24  N   UNL d   1      26.280 -13.257  -1.145  0.00  0.00    -0.326 N 
ATOM     25  C   UNL d   1      27.297 -13.667  -0.299  0.00  0.00     0.222 C 
ATOM     26  O   UNL d   1      28.365 -14.140  -0.680  0.00  0.00    -0.273 OA
ATOM     27  H   UNL d   1      25.541 -12.655  -0.805  0.00  0.00     0.169 HD
BRANCH  25  28
ATOM     28  C   UNL d   1      26.971 -13.515   1.156  0.00  0.00     0.108 C 
BRANCH  28  29
ATOM     29  C   UNL d   1      27.850 -14.449   2.014  0.00  0.00     0.048 C 
BRANCH  29  30
ATOM     30  C   UNL d   1      28.034 -13.991   3.442  0.00  0.00    -0.058 A 
ATOM     31  C   UNL d   1      28.175 -14.917   4.485  0.00  0.00     0.010 A 
ATOM     32  C   UNL d   1      28.312 -14.460   5.807  0.00  0.00     0.037 A 
ATOM     33  C   UNL d   1      28.303 -13.086   6.102  0.00  0.00     0.068 A 
ATOM     34  C   UNL d   1      28.100 -12.186   5.074  0.00  0.00     0.037 A 
ATOM     35  C   UNL d   1      27.977 -12.632   3.769  0.00  0.00     0.010 A 
BRANCH  33  36
ATOM     36  O   UNL d   1      28.481 -12.687   7.398  0.00  0.00    -0.356 OA
ATOM     37  C   UNL d   1      28.905 -13.691   8.333  0.00  0.00     0.210 C 
ENDBRANCH  33  36
ENDBRANCH  29  30
ENDBRANCH  28  29
ENDBRANCH  25  28
ENDBRANCH   1  24
TORSDOF 11
ENDMDL
MODEL 2
REMARK VINA RESULT:    -9.850      2.130      2.912
REMARK INTER + INTRA:         -15.456
REMARK INTER:                 -13.131
REMARK INTRA:                  -2.325
REMARK CONF_INDEPENDENT:        3.281
REMARK UNBOUND:                -2.325
REMARK  11 active torsions:
REMARK  status: ('A' for Active; 'I' for Inactive)
REMARK    1  A    between atoms: O_2  and  C_3 
REMARK    2  A    between atoms: C_6  and  C_7 
REMARK    3  A    between atoms: C_7  and  C_8 
REMARK    4  A    between atoms: C_8  and  C_9 
REMARK       I    between atoms: C_9  and  N_11 
REMARK    5  A    between atoms: N_11  and  C_12 
REMARK    6  A    between atoms: C_17  and  C_18 
REMARK    7  A    between atoms: C_18  and  O_20 
REMARK    8  A    between atoms: O_20  and  C_21 
REMARK    9  A    between atoms: C_21  and  C_22 
REMARK       I    between atoms: C_22  and  N_24 
REMARK   10  A    between atoms: N_24  and  N_25 
REMARK       I    between atoms: N_25  and  C_26 
REMARK   11  A    between atoms: C_26  and  C_28 
ROOT
ATOM      1  C   UNL d   1      29.026 -15.831   0.028  0.00  0.00     0.051 A 
ATOM      2  C   UNL d   1      30.337 -15.430  -0.315  0.00  0.00     0.030 A 
ATOM      3  C   UNL d   1      30.925 -15.847  -1.510  0.00  0.00     0.002 A 
ATOM      4  C   UNL d   1      30.218 -16.689  -2.359  0.00  0.00     0.001 A 
ATOM      5  C   UNL d   1      28.905 -17.077  -2.031  0.00  0.00     0.020 A 
ATOM      6  C   UNL d   1      28.270 -16.648  -0.841  0.00  0.00     0.066 A 
ENDROOT
BRANCH   6   7
ATOM      7  C   UNL d   1      26.823 -17.085  -0.621  0.00  0.00     0.296 C 
ATOM      8  O   UNL d   1      26.484 -17.656   0.410  0.00  0.00    -0.259 OA
BRANCH   7   9
ATOM      9  O   UNL d   1      25.954 -16.829  -1.653  0.00  0.00    -0.308 OA
BRANCH   9  10
ATOM     10  C   UNL d   1      24.843 -15.908  -1.414  0.00  0.00     0.283 C 
BRANCH  10  11
ATOM     11  C   UNL d   1      23.531 -16.585  -0.843  0.00  0.00     0.260 C 
ATOM     12  O   UNL d   1      22.415 -16.086  -1.025  0.00  0.00    -0.269 OA
ATOM     13  N   UNL d   1      23.654 -17.742  -0.062  0.00  0.00    -0.265 N 
ATOM     14  H   UNL d   1      24.422 -18.402  -0.174  0.00  0.00     0.190 HD
BRANCH  13  15
ATOM     15  N   UNL d   1      22.436 -18.324   0.519  0.00  0.00    -0.263 N 
ATOM     16  C   UNL d   1      21.510 -18.995  -0.292  0.00  0.00     0.277 C 
ATOM     17  O   UNL d   1      21.647 -18.954  -1.525  0.00  0.00    -0.265 OA
ATOM     18  H   UNL d   1      22.491 -18.524   1.518  0.00  0.00     0.190 HD
BRANCH  16  19
ATOM     19  C   UNL d   1      20.388 -19.695   0.360  0.00  0.00     0.074 C 
ATOM     20  C   UNL d   1      20.258 -20.130   1.666  0.00  0.00     0.025 C 
ATOM     21  C   UNL d   1      18.962 -20.682   1.953  0.00  0.00     0.009 C 
ATOM     22  C   UNL d   1      18.229 -20.893   0.810  0.00  0.00     0.050 C 
ATOM     23  S   UNL d   1      18.942 -20.076  -0.519  0.00  0.00    -0.097 SA
ENDBRANCH  16  19
ENDBRANCH  13  15
ENDBRANCH  10  11
ENDBRANCH   9  10
ENDBRANCH   7   9
ENDBRANCH   6   7
BRANCH   1  24
ATOM     24  N   UNL d   1      28.541 -15.391   1.272  0.00  0.00    -0.326 N 
ATOM     25  C   UNL d   1      27.559 -14.417   1.346  0.00  0.00     0.222 C 
ATOM     26  O   UNL d   1      26.938 -13.986   0.378  0.00  0.00    -0.273 OA
ATOM     27  H   UNL d   1      28.839 -15.884   2.104  0.00  0.00     0.169 HD
BRANCH  25  28
ATOM     28  C   UNL d   1      27.329 -13.895   2.732  0.00  0.00     0.108 C 
BRANCH  28  29
ATOM     29  C   UNL d   1      28.313 -14.543   3.730  0.00  0.00     0.048 C 
BRANCH  29  30
ATOM     30  C   UNL d   1      28.396 -13.841   5.065  0.00  0.00    -0.058 A 
ATOM     31  C   UNL d   1      27.973 -12.512   5.210  0.00  0.00     0.010 A 
ATOM     32  C   UNL d   1      28.092 -11.876   6.458  0.00  0.00     0.037 A 
ATOM     33  C   UNL d   1      28.637 -12.551   7.564  0.00  0.00     0.068 A 
ATOM     34  C   UNL d   1      29.108 -13.838   7.392  0.00  0.00     0.037 A 
ATOM     35  C   UNL d   1      28.980 -14.471   6.168  0.00  0.00     0.010 A 
BRANCH  33  36
ATOM     36  O   UNL d   1      28.695 -11.906   8.769  0.00  0.00    -0.356 OA
ATOM     37  C   UNL d   1      28.153 -12.601   9.903  0.00  0.00     0.210 C 
ENDBRANCH  33  36
ENDBRANCH  29  30
ENDBRANCH  28  29
ENDBRANCH  25  28
ENDBRANCH   1  24
TORSDOF 11
ENDMDL
MODEL 3
REMARK VINA RESULT:    -9.288      4.248      7.827
REMARK INTER + INTRA:         -15.821
REMARK INTER:                 -12.569
REMARK INTRA:                  -3.251
REMARK CONF_INDEPENDENT:        3.281
REMARK UNBOUND:                -3.251
REMARK  11 active torsions:
REMARK  status: ('A' for Active; 'I' for Inactive)
REMARK    1  A    between atoms: O_2  and  C_3 
REMARK    2  A    between atoms: C_6  and  C_7 
REMARK    3  A    between atoms: C_7  and  C_8 
REMARK    4  A    between atoms: C_8  and  C_9 
REMARK       I    between atoms: C_9  and  N_11 
REMARK    5  A    between atoms: N_11  and  C_12 
REMARK    6  A    between atoms: C_17  and  C_18 
REMARK    7  A    between atoms: C_18  and  O_20 
REMARK    8  A    between atoms: O_20  and  C_21 
REMARK    9  A    between atoms: C_21  and  C_22 
REMARK       I    between atoms: C_22  and  N_24 
REMARK   10  A    between atoms: N_24  and  N_25 
REMARK       I    between atoms: N_25  and  C_26 
REMARK   11  A    between atoms: C_26  and  C_28 
ROOT
ATOM      1  C   UNL d   1      27.145 -14.590  -3.769  0.00  0.00     0.051 A 
ATOM      2  C   UNL d   1      27.596 -13.510  -4.561  0.00  0.00     0.030 A 
ATOM      3  C   UNL d   1      26.729 -12.478  -4.926  0.00  0.00     0.002 A 
ATOM      4  C   UNL d   1      25.400 -12.532  -4.525  0.00  0.00     0.001 A 
ATOM      5  C   UNL d   1      24.951 -13.597  -3.720  0.00  0.00     0.020 A 
ATOM      6  C   UNL d   1      25.811 -14.642  -3.310  0.00  0.00     0.066 A 
ENDROOT
BRANCH   6   7
ATOM      7  C   UNL d   1      25.227 -15.712  -2.389  0.00  0.00     0.296 C 
ATOM      8  O   UNL d   1      24.124 -15.570  -1.872  0.00  0.00    -0.259 OA
BRANCH   7   9
ATOM      9  O   UNL d   1      26.024 -16.806  -2.158  0.00  0.00    -0.308 OA
BRANCH   9  10
ATOM     10  C   UNL d   1      26.355 -17.144  -0.773  0.00  0.00     0.283 C 
BRANCH  10  11
ATOM     11  C   UNL d   1      25.181 -17.823   0.043  0.00  0.00     0.260 C 
ATOM     12  O   UNL d   1      25.362 -18.274   1.179  0.00  0.00    -0.269 OA
ATOM     13  N   UNL d   1      23.929 -17.966  -0.570  0.00  0.00    -0.265 N 
ATOM     14  H   UNL d   1      23.592 -17.327  -1.288  0.00  0.00     0.190 HD
BRANCH  13  15
ATOM     15  N   UNL d   1      22.865 -18.657   0.172  0.00  0.00    -0.263 N 
ATOM     16  C   UNL d   1      21.542 -18.637  -0.291  0.00  0.00     0.277 C 
ATOM     17  O   UNL d   1      21.249 -17.897  -1.244  0.00  0.00    -0.265 OA
ATOM     18  H   UNL d   1      23.188 -19.407   0.784  0.00  0.00     0.190 HD
BRANCH  16  19
ATOM     19  C   UNL d   1      20.546 -19.474   0.400  0.00  0.00     0.074 C 
ATOM     20  C   UNL d   1      19.687 -20.430  -0.112  0.00  0.00     0.025 C 
ATOM     21  C   UNL d   1      18.932 -21.114   0.902  0.00  0.00     0.009 C 
ATOM     22  C   UNL d   1      19.035 -20.497   2.125  0.00  0.00     0.050 C 
ATOM     23  S   UNL d   1      20.323 -19.363   2.117  0.00  0.00    -0.097 SA
ENDBRANCH  16  19
ENDBRANCH  13  15
ENDBRANCH  10  11
ENDBRANCH   9  10
ENDBRANCH   7   9
ENDBRANCH   6   7
BRANCH   1  24
ATOM     24  N   UNL d   1      28.086 -15.597  -3.491  0.00  0.00    -0.326 N 
ATOM     25  C   UNL d   1      28.877 -16.127  -4.497  0.00  0.00     0.222 C 
ATOM     26  O   UNL d   1      28.938 -15.675  -5.638  0.00  0.00    -0.273 OA
ATOM     27  H   UNL d   1      28.255 -15.841  -2.523  0.00  0.00     0.169 HD
BRANCH  25  28
ATOM     28  C   UNL d   1      29.647 -17.344  -4.083  0.00  0.00     0.108 C 
BRANCH  28  29
ATOM     29  C   UNL d   1      31.033 -17.371  -4.762  0.00  0.00     0.048 C 
BRANCH  29  30
ATOM     30  C   UNL d   1      31.071 -18.133  -6.065  0.00  0.00    -0.058 A 
ATOM     31  C   UNL d   1      30.476 -19.397  -6.182  0.00  0.00     0.010 A 
ATOM     32  C   UNL d   1      30.556 -20.095  -7.399  0.00  0.00     0.037 A 
ATOM     33  C   UNL d   1      31.232 -19.548  -8.502  0.00  0.00     0.068 A 
ATOM     34  C   UNL d   1      31.869 -18.331  -8.356  0.00  0.00     0.037 A 
ATOM     35  C   UNL d   1      31.781 -17.635  -7.163  0.00  0.00     0.010 A 
BRANCH  33  36
ATOM     36  O   UNL d   1      31.249 -20.245  -9.679  0.00  0.00    -0.356 OA
ATOM     37  C   UNL d   1      32.536 -20.647 -10.176  0.00  0.00     0.210 C 
ENDBRANCH  33  36
ENDBRANCH  29  30
ENDBRANCH  28  29
ENDBRANCH  25  28
ENDBRANCH   1  24
TORSDOF 11
ENDMDL
MODEL 4
REMARK VINA RESULT:    -9.070      4.890      8.239
REMARK INTER + INTRA:         -15.709
REMARK INTER:                 -12.351
REMARK INTRA:                  -3.358
REMARK CONF_INDEPENDENT:        3.281
REMARK UNBOUND:                -3.358
REMARK  11 active torsions:
REMARK  status: ('A' for Active; 'I' for Inactive)
REMARK    1  A    between atoms: O_2  and  C_3 
REMARK    2  A    between atoms: C_6  and  C_7 
REMARK    3  A    between atoms: C_7  and  C_8 
REMARK    4  A    between atoms: C_8  and  C_9 
REMARK       I    between atoms: C_9  and  N_11 
REMARK    5  A    between atoms: N_11  and  C_12 
REMARK    6  A    between atoms: C_17  and  C_18 
REMARK    7  A    between atoms: C_18  and  O_20 
REMARK    8  A    between atoms: O_20  and  C_21 
REMARK    9  A    between atoms: C_21  and  C_22 
REMARK       I    between atoms: C_22  and  N_24 
REMARK   10  A    between atoms: N_24  and  N_25 
REMARK       I    between atoms: N_25  and  C_26 
REMARK   11  A    between atoms: C_26  and  C_28 
ROOT
ATOM      1  C   UNL d   1      26.795 -13.819  -3.071  0.00  0.00     0.051 A 
ATOM      2  C   UNL d   1      26.627 -12.644  -2.303  0.00  0.00     0.030 A 
ATOM      3  C   UNL d   1      26.266 -11.438  -2.906  0.00  0.00     0.002 A 
ATOM      4  C   UNL d   1      26.096 -11.392  -4.285  0.00  0.00     0.001 A 
ATOM      5  C   UNL d   1      26.245 -12.563  -5.052  0.00  0.00     0.020 A 
ATOM      6  C   UNL d   1      26.581 -13.806  -4.466  0.00  0.00     0.066 A 
ENDROOT
BRANCH   6   7
ATOM      7  C   UNL d   1      26.657 -15.020  -5.391  0.00  0.00     0.296 C 
ATOM      8  O   UNL d   1      25.775 -15.872  -5.390  0.00  0.00    -0.259 OA
BRANCH   7   9
ATOM      9  O   UNL d   1      27.777 -15.106  -6.179  0.00  0.00    -0.308 OA
BRANCH   9  10
ATOM     10  C   UNL d   1      29.088 -15.038  -5.533  0.00  0.00     0.283 C 
BRANCH  10  11
ATOM     11  C   UNL d   1      29.451 -16.290  -4.634  0.00  0.00     0.260 C 
ATOM     12  O   UNL d   1      29.389 -16.239  -3.401  0.00  0.00    -0.269 OA
ATOM     13  N   UNL d   1      29.910 -17.458  -5.259  0.00  0.00    -0.265 N 
ATOM     14  H   UNL d   1      29.641 -17.717  -6.207  0.00  0.00     0.190 HD
BRANCH  13  15
ATOM     15  N   UNL d   1      30.307 -18.590  -4.411  0.00  0.00    -0.263 N 
ATOM     16  C   UNL d   1      30.468 -19.871  -4.960  0.00  0.00     0.277 C 
ATOM     17  O   UNL d   1      30.115 -20.072  -6.133  0.00  0.00    -0.265 OA
ATOM     18  H   UNL d   1      30.789 -18.332  -3.550  0.00  0.00     0.190 HD
BRANCH  16  19
ATOM     19  C   UNL d   1      31.018 -20.935  -4.102  0.00  0.00     0.074 C 
ATOM     20  C   UNL d   1      30.823 -22.303  -4.156  0.00  0.00     0.025 C 
ATOM     21  C   UNL d   1      31.620 -23.028  -3.206  0.00  0.00     0.009 C 
ATOM     22  C   UNL d   1      32.204 -22.194  -2.283  0.00  0.00     0.050 C 
ATOM     23  S   UNL d   1      32.104 -20.562  -2.801  0.00  0.00    -0.097 SA
ENDBRANCH  16  19
ENDBRANCH  13  15
ENDBRANCH  10  11
ENDBRANCH   9  10
ENDBRANCH   7   9
ENDBRANCH   6   7
BRANCH   1  24
ATOM     24  N   UNL d   1      27.199 -14.970  -2.373  0.00  0.00    -0.326 N 
ATOM     25  C   UNL d   1      26.345 -16.052  -2.234  0.00  0.00     0.222 C 
ATOM     26  O   UNL d   1      25.268 -16.162  -2.816  0.00  0.00    -0.273 OA
ATOM     27  H   UNL d   1      28.165 -15.038  -2.079  0.00  0.00     0.169 HD
BRANCH  25  28
ATOM     28  C   UNL d   1      26.835 -17.089  -1.270  0.00  0.00     0.108 C 
BRANCH  28  29
ATOM     29  C   UNL d   1      25.953 -17.118  -0.003  0.00  0.00     0.048 C 
BRANCH  29  30
ATOM     30  C   UNL d   1      24.496 -17.416  -0.268  0.00  0.00    -0.058 A 
ATOM     31  C   UNL d   1      24.034 -18.736  -0.365  0.00  0.00     0.010 A 
ATOM     32  C   UNL d   1      22.678 -18.981  -0.644  0.00  0.00     0.037 A 
ATOM     33  C   UNL d   1      21.777 -17.920  -0.835  0.00  0.00     0.068 A 
ATOM     34  C   UNL d   1      22.257 -16.625  -0.801  0.00  0.00     0.037 A 
ATOM     35  C   UNL d   1      23.588 -16.380  -0.513  0.00  0.00     0.010 A 
BRANCH  33  36
ATOM     36  O   UNL d   1      20.459 -18.205  -1.063  0.00  0.00    -0.356 OA
ATOM     37  C   UNL d   1      19.968 -19.455  -0.551  0.00  0.00     0.210 C 
ENDBRANCH  33  36
ENDBRANCH  29  30
ENDBRANCH  28  29
ENDBRANCH  25  28
ENDBRANCH   1  24
TORSDOF 11
ENDMDL
MODEL 5
REMARK VINA RESULT:    -8.856      3.070      7.775
REMARK INTER + INTRA:         -16.198
REMARK INTER:                 -12.138
REMARK INTRA:                  -4.061
REMARK CONF_INDEPENDENT:        3.281
REMARK UNBOUND:                -4.061
REMARK  11 active torsions:
REMARK  status: ('A' for Active; 'I' for Inactive)
REMARK    1  A    between atoms: O_2  and  C_3 
REMARK    2  A    between atoms: C_6  and  C_7 
REMARK    3  A    between atoms: C_7  and  C_8 
REMARK    4  A    between atoms: C_8  and  C_9 
REMARK       I    between atoms: C_9  and  N_11 
REMARK    5  A    between atoms: N_11  and  C_12 
REMARK    6  A    between atoms: C_17  and  C_18 
REMARK    7  A    between atoms: C_18  and  O_20 
REMARK    8  A    between atoms: O_20  and  C_21 
REMARK    9  A    between atoms: C_21  and  C_22 
REMARK       I    between atoms: C_22  and  N_24 
REMARK   10  A    between atoms: N_24  and  N_25 
REMARK       I    between atoms: N_25  and  C_26 
REMARK   11  A    between atoms: C_26  and  C_28 
ROOT
ATOM      1  C   UNL d   1      27.591 -15.894  -2.974  0.00  0.00     0.051 A 
ATOM      2  C   UNL d   1      28.910 -16.387  -3.094  0.00  0.00     0.030 A 
ATOM      3  C   UNL d   1      29.702 -16.055  -4.194  0.00  0.00     0.002 A 
ATOM      4  C   UNL d   1      29.173 -15.251  -5.195  0.00  0.00     0.001 A 
ATOM      5  C   UNL d   1      27.866 -14.742  -5.071  0.00  0.00     0.020 A 
ATOM      6  C   UNL d   1      27.049 -15.036  -3.955  0.00  0.00     0.066 A 
ENDROOT
BRANCH   6   7
ATOM      7  C   UNL d   1      25.670 -14.379  -3.901  0.00  0.00     0.296 C 
ATOM      8  O   UNL d   1      24.781 -14.709  -4.678  0.00  0.00    -0.259 OA
BRANCH   7   9
ATOM      9  O   UNL d   1      25.513 -13.389  -2.963  0.00  0.00    -0.308 OA
BRANCH   9  10
ATOM     10  C   UNL d   1      26.646 -12.505  -2.689  0.00  0.00     0.283 C 
BRANCH  10  11
ATOM     11  C   UNL d   1      27.536 -12.930  -1.451  0.00  0.00     0.260 C 
ATOM     12  O   UNL d   1      28.672 -13.392  -1.601  0.00  0.00    -0.269 OA
ATOM     13  N   UNL d   1      26.989 -12.833  -0.164  0.00  0.00    -0.265 N 
ATOM     14  H   UNL d   1      26.274 -12.150   0.080  0.00  0.00     0.190 HD
BRANCH  13  15
ATOM     15  N   UNL d   1      27.800 -13.293   0.973  0.00  0.00    -0.263 N 
ATOM     16  C   UNL d   1      27.324 -13.168   2.286  0.00  0.00     0.277 C 
ATOM     17  O   UNL d   1      26.285 -12.520   2.491  0.00  0.00    -0.265 OA
ATOM     18  H   UNL d   1      28.502 -13.996   0.741  0.00  0.00     0.190 HD
BRANCH  16  19
ATOM     19  C   UNL d   1      28.102 -13.786   3.373  0.00  0.00     0.074 C 
ATOM     20  C   UNL d   1      27.667 -14.372   4.548  0.00  0.00     0.025 C 
ATOM     21  C   UNL d   1      28.730 -14.961   5.315  0.00  0.00     0.009 C 
ATOM     22  C   UNL d   1      29.968 -14.592   4.847  0.00  0.00     0.050 C 
ATOM     23  S   UNL d   1      29.832 -13.879   3.292  0.00  0.00    -0.097 SA
ENDBRANCH  16  19
ENDBRANCH  13  15
ENDBRANCH  10  11
ENDBRANCH   9  10
ENDBRANCH   7   9
ENDBRANCH   6   7
BRANCH   1  24
ATOM     24  N   UNL d   1      26.863 -16.320  -1.849  0.00  0.00    -0.326 N 
ATOM     25  C   UNL d   1      27.429 -16.291  -0.585  0.00  0.00     0.222 C 
ATOM     26  O   UNL d   1      28.509 -15.767  -0.323  0.00  0.00    -0.273 OA
ATOM     27  H   UNL d   1      25.881 -16.534  -1.967  0.00  0.00     0.169 HD
BRANCH  25  28
ATOM     28  C   UNL d   1      26.615 -16.996   0.458  0.00  0.00     0.108 C 
BRANCH  28  29
ATOM     29  C   UNL d   1      25.972 -18.274  -0.122  0.00  0.00     0.048 C 
BRANCH  29  30
ATOM     30  C   UNL d   1      24.484 -18.168  -0.360  0.00  0.00    -0.058 A 
ATOM     31  C   UNL d   1      23.693 -19.314  -0.515  0.00  0.00     0.010 A 
ATOM     32  C   UNL d   1      22.317 -19.182  -0.767  0.00  0.00     0.037 A 
ATOM     33  C   UNL d   1      21.720 -17.914  -0.874  0.00  0.00     0.068 A 
ATOM     34  C   UNL d   1      22.521 -16.792  -0.783  0.00  0.00     0.037 A 
ATOM     35  C   UNL d   1      23.874 -16.919  -0.522  0.00  0.00     0.010 A 
BRANCH  33  36
ATOM     36  O   UNL d   1      20.371 -17.834  -1.079  0.00  0.00    -0.356 OA
ATOM     37  C   UNL d   1      19.589 -18.979  -0.702  0.00  0.00     0.210 C 
ENDBRANCH  33  36
ENDBRANCH  29  30
ENDBRANCH  28  29
ENDBRANCH  25  28
ENDBRANCH   1  24
TORSDOF 11
ENDMDL
MODEL 6
REMARK VINA RESULT:    -8.723      2.964      7.551
REMARK INTER + INTRA:         -15.470
REMARK INTER:                 -12.004
REMARK INTRA:                  -3.466
REMARK CONF_INDEPENDENT:        3.281
REMARK UNBOUND:                -3.466
REMARK  11 active torsions:
REMARK  status: ('A' for Active; 'I' for Inactive)
REMARK    1  A    between atoms: O_2  and  C_3 
REMARK    2  A    between atoms: C_6  and  C_7 
REMARK    3  A    between atoms: C_7  and  C_8 
REMARK    4  A    between atoms: C_8  and  C_9 
REMARK       I    between atoms: C_9  and  N_11 
REMARK    5  A    between atoms: N_11  and  C_12 
REMARK    6  A    between atoms: C_17  and  C_18 
REMARK    7  A    between atoms: C_18  and  O_20 
REMARK    8  A    between atoms: O_20  and  C_21 
REMARK    9  A    between atoms: C_21  and  C_22 
REMARK       I    between atoms: C_22  and  N_24 
REMARK   10  A    between atoms: N_24  and  N_25 
REMARK       I    between atoms: N_25  and  C_26 
REMARK   11  A    between atoms: C_26  and  C_28 
ROOT
ATOM      1  C   UNL d   1      27.565 -15.572  -3.659  0.00  0.00     0.051 A 
ATOM      2  C   UNL d   1      28.778 -15.840  -4.334  0.00  0.00     0.030 A 
ATOM      3  C   UNL d   1      29.112 -15.159  -5.505  0.00  0.00     0.002 A 
ATOM      4  C   UNL d   1      28.225 -14.225  -6.025  0.00  0.00     0.001 A 
ATOM      5  C   UNL d   1      27.024 -13.941  -5.347  0.00  0.00     0.020 A 
ATOM      6  C   UNL d   1      26.670 -14.594  -4.142  0.00  0.00     0.066 A 
ENDROOT
BRANCH   6   7
ATOM      7  C   UNL d   1      25.371 -14.162  -3.465  0.00  0.00     0.296 C 
ATOM      8  O   UNL d   1      24.324 -14.077  -4.098  0.00  0.00    -0.259 OA
BRANCH   7   9
ATOM      9  O   UNL d   1      25.465 -13.846  -2.132  0.00  0.00    -0.308 OA
BRANCH   9  10
ATOM     10  C   UNL d   1      26.719 -13.276  -1.639  0.00  0.00     0.283 C 
BRANCH  10  11
ATOM     11  C   UNL d   1      27.126 -13.729  -0.178  0.00  0.00     0.260 C 
ATOM     12  O   UNL d   1      26.281 -13.877   0.711  0.00  0.00    -0.269 OA
ATOM     13  N   UNL d   1      28.485 -13.905   0.118  0.00  0.00    -0.265 N 
ATOM     14  H   UNL d   1      29.171 -14.174  -0.585  0.00  0.00     0.190 HD
BRANCH  13  15
ATOM     15  N   UNL d   1      28.856 -14.261   1.495  0.00  0.00    -0.263 N 
ATOM     16  C   UNL d   1      28.506 -13.427   2.567  0.00  0.00     0.277 C 
ATOM     17  O   UNL d   1      28.023 -12.309   2.327  0.00  0.00    -0.265 OA
ATOM     18  H   UNL d   1      29.033 -15.254   1.648  0.00  0.00     0.190 HD
BRANCH  16  19
ATOM     19  C   UNL d   1      28.762 -13.905   3.937  0.00  0.00     0.074 C 
ATOM     20  C   UNL d   1      29.824 -14.638   4.433  0.00  0.00     0.025 C 
ATOM     21  C   UNL d   1      29.769 -14.824   5.857  0.00  0.00     0.009 C 
ATOM     22  C   UNL d   1      28.551 -14.458   6.377  0.00  0.00     0.050 C 
ATOM     23  S   UNL d   1      27.657 -13.552   5.227  0.00  0.00    -0.097 SA
ENDBRANCH  16  19
ENDBRANCH  13  15
ENDBRANCH  10  11
ENDBRANCH   9  10
ENDBRANCH   7   9
ENDBRANCH   6   7
BRANCH   1  24
ATOM     24  N   UNL d   1      27.305 -16.341  -2.511  0.00  0.00    -0.326 N 
ATOM     25  C   UNL d   1      28.275 -16.514  -1.537  0.00  0.00     0.222 C 
ATOM     26  O   UNL d   1      29.344 -15.910  -1.512  0.00  0.00    -0.273 OA
ATOM     27  H   UNL d   1      26.359 -16.665  -2.356  0.00  0.00     0.169 HD
BRANCH  25  28
ATOM     28  C   UNL d   1      27.922 -17.546  -0.509  0.00  0.00     0.108 C 
BRANCH  28  29
ATOM     29  C   UNL d   1      26.862 -17.000   0.472  0.00  0.00     0.048 C 
BRANCH  29  30
ATOM     30  C   UNL d   1      25.435 -17.287   0.067  0.00  0.00    -0.058 A 
ATOM     31  C   UNL d   1      24.895 -18.575   0.187  0.00  0.00     0.010 A 
ATOM     32  C   UNL d   1      23.574 -18.818  -0.227  0.00  0.00     0.037 A 
ATOM     33  C   UNL d   1      22.786 -17.788  -0.769  0.00  0.00     0.068 A 
ATOM     34  C   UNL d   1      23.350 -16.539  -0.941  0.00  0.00     0.037 A 
ATOM     35  C   UNL d   1      24.646 -16.294  -0.522  0.00  0.00     0.010 A 
BRANCH  33  36
ATOM     36  O   UNL d   1      21.493 -18.061  -1.120  0.00  0.00    -0.356 OA
ATOM     37  C   UNL d   1      20.865 -19.175  -0.467  0.00  0.00     0.210 C 
ENDBRANCH  33  36
ENDBRANCH  29  30
ENDBRANCH  28  29
ENDBRANCH  25  28
ENDBRANCH   1  24
TORSDOF 11
ENDMDL
MODEL 7
REMARK VINA RESULT:    -8.405      1.953      3.012
REMARK INTER + INTRA:         -15.660
REMARK INTER:                 -11.686
REMARK INTRA:                  -3.974
REMARK CONF_INDEPENDENT:        3.281
REMARK UNBOUND:                -3.974
REMARK  11 active torsions:
REMARK  status: ('A' for Active; 'I' for Inactive)
REMARK    1  A    between atoms: O_2  and  C_3 
REMARK    2  A    between atoms: C_6  and  C_7 
REMARK    3  A    between atoms: C_7  and  C_8 
REMARK    4  A    between atoms: C_8  and  C_9 
REMARK       I    between atoms: C_9  and  N_11 
REMARK    5  A    between atoms: N_11  and  C_12 
REMARK    6  A    between atoms: C_17  and  C_18 
REMARK    7  A    between atoms: C_18  and  O_20 
REMARK    8  A    between atoms: O_20  and  C_21 
REMARK    9  A    between atoms: C_21  and  C_22 
REMARK       I    between atoms: C_22  and  N_24 
REMARK   10  A    between atoms: N_24  and  N_25 
REMARK       I    between atoms: N_25  and  C_26 
REMARK   11  A    between atoms: C_26  and  C_28 
ROOT
ATOM      1  C   UNL d   1      27.038 -14.808  -3.546  0.00  0.00     0.051 A 
ATOM      2  C   UNL d   1      27.437 -13.825  -4.480  0.00  0.00     0.030 A 
ATOM      3  C   UNL d   1      26.511 -12.929  -5.017  0.00  0.00     0.002 A 
ATOM      4  C   UNL d   1      25.176 -13.026  -4.644  0.00  0.00     0.001 A 
ATOM      5  C   UNL d   1      24.777 -13.991  -3.700  0.00  0.00     0.020 A 
ATOM      6  C   UNL d   1      25.697 -14.894  -3.116  0.00  0.00     0.066 A 
ENDROOT
BRANCH   6   7
ATOM      7  C   UNL d   1      25.160 -15.858  -2.059  0.00  0.00     0.296 C 
ATOM      8  O   UNL d   1      23.956 -16.058  -1.937  0.00  0.00    -0.259 OA
BRANCH   7   9
ATOM      9  O   UNL d   1      26.100 -16.444  -1.248  0.00  0.00    -0.308 OA
BRANCH   9  10
ATOM     10  C   UNL d   1      25.927 -17.853  -0.891  0.00  0.00     0.283 C 
BRANCH  10  11
ATOM     11  C   UNL d   1      24.618 -18.172  -0.060  0.00  0.00     0.260 C 
ATOM     12  O   UNL d   1      24.628 -18.198   1.175  0.00  0.00    -0.269 OA
ATOM     13  N   UNL d   1      23.441 -18.490  -0.753  0.00  0.00    -0.265 N 
ATOM     14  H   UNL d   1      23.241 -18.138  -1.687  0.00  0.00     0.190 HD
BRANCH  13  15
ATOM     15  N   UNL d   1      22.250 -18.850   0.029  0.00  0.00    -0.263 N 
ATOM     16  C   UNL d   1      21.096 -19.328  -0.608  0.00  0.00     0.277 C 
ATOM     17  O   UNL d   1      21.034 -19.292  -1.848  0.00  0.00    -0.265 OA
ATOM     18  H   UNL d   1      22.431 -19.073   1.008  0.00  0.00     0.190 HD
BRANCH  16  19
ATOM     19  C   UNL d   1      19.989 -19.823   0.228  0.00  0.00     0.074 C 
ATOM     20  C   UNL d   1      18.815 -20.454  -0.142  0.00  0.00     0.025 C 
ATOM     21  C   UNL d   1      18.024 -20.882   0.979  0.00  0.00     0.009 C 
ATOM     22  C   UNL d   1      18.475 -20.347   2.161  0.00  0.00     0.050 C 
ATOM     23  S   UNL d   1      20.040 -19.673   1.956  0.00  0.00    -0.097 SA
ENDBRANCH  16  19
ENDBRANCH  13  15
ENDBRANCH  10  11
ENDBRANCH   9  10
ENDBRANCH   7   9
ENDBRANCH   6   7
BRANCH   1  24
ATOM     24  N   UNL d   1      28.039 -15.687  -3.097  0.00  0.00    -0.326 N 
ATOM     25  C   UNL d   1      29.341 -15.248  -2.918  0.00  0.00     0.222 C 
ATOM     26  O   UNL d   1      29.688 -14.071  -2.979  0.00  0.00    -0.273 OA
ATOM     27  H   UNL d   1      27.764 -16.613  -2.795  0.00  0.00     0.169 HD
BRANCH  25  28
ATOM     28  C   UNL d   1      30.323 -16.354  -2.670  0.00  0.00     0.108 C 
BRANCH  28  29
ATOM     29  C   UNL d   1      30.498 -16.599  -1.157  0.00  0.00     0.048 C 
BRANCH  29  30
ATOM     30  C   UNL d   1      29.602 -15.754  -0.282  0.00  0.00    -0.058 A 
ATOM     31  C   UNL d   1      29.950 -14.438   0.051  0.00  0.00     0.010 A 
ATOM     32  C   UNL d   1      29.111 -13.688   0.893  0.00  0.00     0.037 A 
ATOM     33  C   UNL d   1      27.929 -14.240   1.414  0.00  0.00     0.068 A 
ATOM     34  C   UNL d   1      27.629 -15.559   1.130  0.00  0.00     0.037 A 
ATOM     35  C   UNL d   1      28.447 -16.296   0.291  0.00  0.00     0.010 A 
BRANCH  33  36
ATOM     36  O   UNL d   1      27.122 -13.460   2.195  0.00  0.00    -0.356 OA
ATOM     37  C   UNL d   1      27.667 -13.014   3.447  0.00  0.00     0.210 C 
ENDBRANCH  33  36
ENDBRANCH  29  30
ENDBRANCH  28  29
ENDBRANCH  25  28
ENDBRANCH   1  24
TORSDOF 11
ENDMDL
MODEL 8
REMARK VINA RESULT:    -8.205      4.176      6.485
REMARK INTER + INTRA:         -15.558
REMARK INTER:                 -11.486
REMARK INTRA:                  -4.072
REMARK CONF_INDEPENDENT:        3.281
REMARK UNBOUND:                -4.072
REMARK  11 active torsions:
REMARK  status: ('A' for Active; 'I' for Inactive)
REMARK    1  A    between atoms: O_2  and  C_3 
REMARK    2  A    between atoms: C_6  and  C_7 
REMARK    3  A    between atoms: C_7  and  C_8 
REMARK    4  A    between atoms: C_8  and  C_9 
REMARK       I    between atoms: C_9  and  N_11 
REMARK    5  A    between atoms: N_11  and  C_12 
REMARK    6  A    between atoms: C_17  and  C_18 
REMARK    7  A    between atoms: C_18  and  O_20 
REMARK    8  A    between atoms: O_20  and  C_21 
REMARK    9  A    between atoms: C_21  and  C_22 
REMARK       I    between atoms: C_22  and  N_24 
REMARK   10  A    between atoms: N_24  and  N_25 
REMARK       I    between atoms: N_25  and  C_26 
REMARK   11  A    between atoms: C_26  and  C_28 
ROOT
ATOM      1  C   UNL d   1      27.162 -14.533  -3.471  0.00  0.00     0.051 A 
ATOM      2  C   UNL d   1      27.718 -13.411  -4.127  0.00  0.00     0.030 A 
ATOM      3  C   UNL d   1      26.906 -12.366  -4.571  0.00  0.00     0.002 A 
ATOM      4  C   UNL d   1      25.531 -12.447  -4.388  0.00  0.00     0.001 A 
ATOM      5  C   UNL d   1      24.975 -13.554  -3.719  0.00  0.00     0.020 A 
ATOM      6  C   UNL d   1      25.773 -14.615  -3.231  0.00  0.00     0.066 A 
ENDROOT
BRANCH   6   7
ATOM      7  C   UNL d   1      25.065 -15.735  -2.469  0.00  0.00     0.296 C 
ATOM      8  O   UNL d   1      23.942 -15.572  -2.005  0.00  0.00    -0.259 OA
BRANCH   7   9
ATOM      9  O   UNL d   1      25.776 -16.899  -2.314  0.00  0.00    -0.308 OA
BRANCH   9  10
ATOM     10  C   UNL d   1      26.130 -17.321  -0.959  0.00  0.00     0.283 C 
BRANCH  10  11
ATOM     11  C   UNL d   1      24.944 -17.965  -0.132  0.00  0.00     0.260 C 
ATOM     12  O   UNL d   1      25.095 -18.323   1.041  0.00  0.00    -0.269 OA
ATOM     13  N   UNL d   1      23.718 -18.186  -0.774  0.00  0.00    -0.265 N 
ATOM     14  H   UNL d   1      23.393 -17.613  -1.551  0.00  0.00     0.190 HD
BRANCH  13  15
ATOM     15  N   UNL d   1      22.645 -18.846  -0.017  0.00  0.00    -0.263 N 
ATOM     16  C   UNL d   1      21.299 -18.589  -0.315  0.00  0.00     0.277 C 
ATOM     17  O   UNL d   1      21.022 -17.679  -1.112  0.00  0.00    -0.265 OA
ATOM     18  H   UNL d   1      22.916 -19.716   0.441  0.00  0.00     0.190 HD
BRANCH  16  19
ATOM     19  C   UNL d   1      20.267 -19.391   0.365  0.00  0.00     0.074 C 
ATOM     20  C   UNL d   1      20.141 -19.720   1.702  0.00  0.00     0.025 C 
ATOM     21  C   UNL d   1      18.932 -20.439   1.998  0.00  0.00     0.009 C 
ATOM     22  C   UNL d   1      18.296 -20.866   0.858  0.00  0.00     0.050 C 
ATOM     23  S   UNL d   1      18.940 -20.074  -0.521  0.00  0.00    -0.097 SA
ENDBRANCH  16  19
ENDBRANCH  13  15
ENDBRANCH  10  11
ENDBRANCH   9  10
ENDBRANCH   7   9
ENDBRANCH   6   7
BRANCH   1  24
ATOM     24  N   UNL d   1      28.060 -15.549  -3.099  0.00  0.00    -0.326 N 
ATOM     25  C   UNL d   1      29.246 -15.246  -2.451  0.00  0.00     0.222 C 
ATOM     26  O   UNL d   1      29.532 -14.131  -2.020  0.00  0.00    -0.273 OA
ATOM     27  H   UNL d   1      27.766 -16.512  -3.208  0.00  0.00     0.169 HD
BRANCH  25  28
ATOM     28  C   UNL d   1      30.189 -16.406  -2.342  0.00  0.00     0.108 C 
BRANCH  28  29
ATOM     29  C   UNL d   1      30.398 -17.071  -3.719  0.00  0.00     0.048 C 
BRANCH  29  30
ATOM     30  C   UNL d   1      30.529 -16.096  -4.866  0.00  0.00    -0.058 A 
ATOM     31  C   UNL d   1      31.588 -15.181  -4.919  0.00  0.00     0.010 A 
ATOM     32  C   UNL d   1      31.665 -14.265  -5.983  0.00  0.00     0.037 A 
ATOM     33  C   UNL d   1      30.689 -14.248  -6.993  0.00  0.00     0.068 A 
ATOM     34  C   UNL d   1      29.615 -15.113  -6.896  0.00  0.00     0.037 A 
ATOM     35  C   UNL d   1      29.544 -16.024  -5.857  0.00  0.00     0.010 A 
BRANCH  33  36
ATOM     36  O   UNL d   1      30.826 -13.368  -8.031  0.00  0.00    -0.356 OA
ATOM     37  C   UNL d   1      32.088 -12.692  -8.144  0.00  0.00     0.210 C 
ENDBRANCH  33  36
ENDBRANCH  29  30
ENDBRANCH  28  29
ENDBRANCH  25  28
ENDBRANCH   1  24
TORSDOF 11
ENDMDL
MODEL 9
REMARK VINA RESULT:    -7.570      4.480      8.265
REMARK INTER + INTRA:         -15.640
REMARK INTER:                 -10.852
REMARK INTRA:                  -4.788
REMARK CONF_INDEPENDENT:        3.281
REMARK UNBOUND:                -4.788
REMARK  11 active torsions:
REMARK  status: ('A' for Active; 'I' for Inactive)
REMARK    1  A    between atoms: O_2  and  C_3 
REMARK    2  A    between atoms: C_6  and  C_7 
REMARK    3  A    between atoms: C_7  and  C_8 
REMARK    4  A    between atoms: C_8  and  C_9 
REMARK       I    between atoms: C_9  and  N_11 
REMARK    5  A    between atoms: N_11  and  C_12 
REMARK    6  A    between atoms: C_17  and  C_18 
REMARK    7  A    between atoms: C_18  and  O_20 
REMARK    8  A    between atoms: O_20  and  C_21 
REMARK    9  A    between atoms: C_21  and  C_22 
REMARK       I    between atoms: C_22  and  N_24 
REMARK   10  A    between atoms: N_24  and  N_25 
REMARK       I    between atoms: N_25  and  C_26 
REMARK   11  A    between atoms: C_26  and  C_28 
ROOT
ATOM      1  C   UNL d   1      28.779 -14.037  -2.720  0.00  0.00     0.051 A 
ATOM      2  C   UNL d   1      29.657 -13.096  -2.136  0.00  0.00     0.030 A 
ATOM      3  C   UNL d   1      30.368 -12.192  -2.926  0.00  0.00     0.002 A 
ATOM      4  C   UNL d   1      30.228 -12.240  -4.308  0.00  0.00     0.001 A 
ATOM      5  C   UNL d   1      29.341 -13.163  -4.893  0.00  0.00     0.020 A 
ATOM      6  C   UNL d   1      28.584 -14.072  -4.117  0.00  0.00     0.066 A 
ENDROOT
BRANCH   6   7
ATOM      7  C   UNL d   1      27.610 -14.987  -4.859  0.00  0.00     0.296 C 
ATOM      8  O   UNL d   1      27.382 -14.833  -6.054  0.00  0.00    -0.259 OA
BRANCH   7   9
ATOM      9  O   UNL d   1      26.993 -15.950  -4.099  0.00  0.00    -0.308 OA
BRANCH   9  10
ATOM     10  C   UNL d   1      25.658 -15.669  -3.572  0.00  0.00     0.283 C 
BRANCH  10  11
ATOM     11  C   UNL d   1      25.134 -14.199  -3.839  0.00  0.00     0.260 C 
ATOM     12  O   UNL d   1      24.207 -13.977  -4.625  0.00  0.00    -0.269 OA
ATOM     13  N   UNL d   1      25.783 -13.128  -3.210  0.00  0.00    -0.265 N 
ATOM     14  H   UNL d   1      26.256 -13.222  -2.313  0.00  0.00     0.190 HD
BRANCH  13  15
ATOM     15  N   UNL d   1      25.331 -11.763  -3.517  0.00  0.00    -0.263 N 
ATOM     16  C   UNL d   1      26.208 -10.676  -3.393  0.00  0.00     0.277 C 
ATOM     17  O   UNL d   1      27.318 -10.855  -2.867  0.00  0.00    -0.265 OA
ATOM     18  H   UNL d   1      24.525 -11.709  -4.140  0.00  0.00     0.190 HD
BRANCH  16  19
ATOM     19  C   UNL d   1      25.755  -9.355  -3.862  0.00  0.00     0.074 C 
ATOM     20  C   UNL d   1      25.805  -8.127  -3.229  0.00  0.00     0.025 C 
ATOM     21  C   UNL d   1      25.357  -7.042  -4.057  0.00  0.00     0.009 C 
ATOM     22  C   UNL d   1      24.737  -7.490  -5.199  0.00  0.00     0.050 C 
ATOM     23  S   UNL d   1      25.050  -9.160  -5.435  0.00  0.00    -0.097 SA
ENDBRANCH  16  19
ENDBRANCH  13  15
ENDBRANCH  10  11
ENDBRANCH   9  10
ENDBRANCH   7   9
ENDBRANCH   6   7
BRANCH   1  24
ATOM     24  N   UNL d   1      28.142 -14.929  -1.840  0.00  0.00    -0.326 N 
ATOM     25  C   UNL d   1      27.473 -14.464  -0.719  0.00  0.00     0.222 C 
ATOM     26  O   UNL d   1      27.250 -13.278  -0.490  0.00  0.00    -0.273 OA
ATOM     27  H   UNL d   1      28.082 -15.904  -2.106  0.00  0.00     0.169 HD
BRANCH  25  28
ATOM     28  C   UNL d   1      27.060 -15.548   0.231  0.00  0.00     0.108 C 
BRANCH  28  29
ATOM     29  C   UNL d   1      26.678 -16.831  -0.536  0.00  0.00     0.048 C 
BRANCH  29  30
ATOM     30  C   UNL d   1      25.201 -17.147  -0.523  0.00  0.00    -0.058 A 
ATOM     31  C   UNL d   1      24.744 -18.458  -0.328  0.00  0.00     0.010 A 
ATOM     32  C   UNL d   1      23.365 -18.725  -0.352  0.00  0.00     0.037 A 
ATOM     33  C   UNL d   1      22.433 -17.697  -0.577  0.00  0.00     0.068 A 
ATOM     34  C   UNL d   1      22.899 -16.421  -0.831  0.00  0.00     0.037 A 
ATOM     35  C   UNL d   1      24.256 -16.152  -0.794  0.00  0.00     0.010 A 
BRANCH  33  36
ATOM     36  O   UNL d   1      21.099 -17.996  -0.550  0.00  0.00    -0.356 OA
ATOM     37  C   UNL d   1      20.725 -19.324  -0.951  0.00  0.00     0.210 C 
ENDBRANCH  33  36
ENDBRANCH  29  30
ENDBRANCH  28  29
ENDBRANCH  25  28
ENDBRANCH   1  24
TORSDOF 11
ENDMDL
