MODEL 1
REMARK VINA RESULT:   -10.712      0.000      0.000
REMARK INTER + INTRA:         -14.406
REMARK INTER:                 -13.098
REMARK INTRA:                  -1.308
REMARK CONF_INDEPENDENT:        2.386
REMARK UNBOUND:                -1.308
REMARK  8 active torsions:
REMARK  status: ('A' for Active; 'I' for Inactive)
REMARK    1  A    between atoms: C_8  and  O_9 
REMARK    2  A    between atoms: O_9  and  C_10 
REMARK    3  A    between atoms: C_10  and  C_12 
REMARK       I    between atoms: C_12  and  N_14 
REMARK    4  A    between atoms: N_14  and  C_15 
REMARK    5  A    between atoms: C_15  and  C_16 
REMARK    6  A    between atoms: C_16  and  C_17 
REMARK    7  A    between atoms: C_20  and  S_21 
REMARK    8  A    between atoms: S_21  and  N_22 
ROOT
ATOM      1  C   UNL d   1      26.552 -14.606  -3.792  0.00  0.00     0.246 C 
ATOM      2  O   UNL d   1      25.380 -14.743  -4.139  0.00  0.00    -0.271 OA
ATOM      3  N   UNL d   1      26.946 -14.826  -2.475  0.00  0.00    -0.359 N 
ATOM      4  H   UNL d   1      27.909 -14.716  -2.188  0.00  0.00     0.162 HD
ENDROOT
BRANCH   1   5
ATOM      5  C   UNL d   1      27.678 -14.188  -4.761  0.00  0.00     0.216 C 
ATOM      6  C   UNL d   1      27.398 -14.824  -6.127  0.00  0.00     0.050 C 
BRANCH   5   7
ATOM      7  O   UNL d   1      28.930 -14.661  -4.240  0.00  0.00    -0.337 OA
BRANCH   7   8
ATOM      8  C   UNL d   1      29.599 -15.615  -4.954  0.00  0.00     0.072 C 
ATOM      9  C   UNL d   1      30.205 -15.386  -6.185  0.00  0.00     0.038 C 
ATOM     10  C   UNL d   1      30.936 -16.374  -6.812  0.00  0.00     0.017 C 
ATOM     11  C   UNL d   1      30.897 -17.678  -6.340  0.00  0.00     0.005 A 
ATOM     12  C   UNL d   1      31.473 -18.768  -7.121  0.00  0.00    -0.037 A 
ATOM     13  C   UNL d   1      30.243 -17.927  -5.137  0.00  0.00     0.092 A 
ATOM     14  C   UNL d   1      31.329 -20.021  -6.659  0.00  0.00     0.020 A 
ATOM     15  C   UNL d   1      32.143 -18.395  -8.420  0.00  0.00     0.050 C 
ATOM     16  C   UNL d   1      31.847 -21.230  -7.373  0.00  0.00     0.055 C 
ATOM     17  C   UNL d   1      30.624 -20.314  -5.375  0.00  0.00     0.294 A 
ATOM     18  O   UNL d   1      30.135 -19.236  -4.645  0.00  0.00    -0.274 OA
ATOM     19  O   UNL d   1      30.489 -21.466  -4.975  0.00  0.00    -0.259 OA
ATOM     20  C   UNL d   1      29.654 -16.896  -4.399  0.00  0.00     0.075 C 
ENDBRANCH   7   8
ENDBRANCH   5   7
ENDBRANCH   1   5
BRANCH   3  21
ATOM     21  C   UNL d   1      25.934 -15.143  -1.494  0.00  0.00     0.127 C 
BRANCH  21  22
ATOM     22  C   UNL d   1      25.998 -16.560  -0.916  0.00  0.00     0.058 C 
BRANCH  22  23
ATOM     23  C   UNL d   1      24.630 -17.205  -0.747  0.00  0.00    -0.057 C 
ATOM     24  C   UNL d   1      24.480 -18.584  -0.520  0.00  0.00     0.009 C 
ATOM     25  C   UNL d   1      23.230 -19.194  -0.563  0.00  0.00     0.026 C 
ATOM     26  C   UNL d   1      22.094 -18.406  -0.710  0.00  0.00     0.079 C 
ATOM     27  C   UNL d   1      22.204 -17.015  -0.778  0.00  0.00     0.026 C 
ATOM     28  C   UNL d   1      23.471 -16.424  -0.858  0.00  0.00     0.009 C 
BRANCH  26  29
ATOM     29  S   UNL d   1      20.510 -19.193  -0.826  0.00  0.00     0.256 S 
ATOM     30  O   UNL d   1      19.500 -18.200  -0.520  0.00  0.00    -0.201 OA
ATOM     31  O   UNL d   1      20.487 -19.998  -2.018  0.00  0.00    -0.201 OA
BRANCH  29  32
ATOM     32  N   UNL d   1      20.565 -20.255   0.466  0.00  0.00    -0.324 N 
ATOM     33  H   UNL d   1      21.275 -20.075   1.169  0.00  0.00     0.169 HD
ATOM     34  H   UNL d   1      20.269 -21.207   0.272  0.00  0.00     0.169 HD
ENDBRANCH  29  32
ENDBRANCH  26  29
ENDBRANCH  22  23
ENDBRANCH  21  22
ENDBRANCH   3  21
TORSDOF 8
ENDMDL
MODEL 2
REMARK VINA RESULT:   -10.595      8.220     11.372
REMARK INTER + INTRA:         -13.640
REMARK INTER:                 -12.981
REMARK INTRA:                  -0.659
REMARK CONF_INDEPENDENT:        2.386
REMARK UNBOUND:                -0.659
REMARK  8 active torsions:
REMARK  status: ('A' for Active; 'I' for Inactive)
REMARK    1  A    between atoms: C_8  and  O_9 
REMARK    2  A    between atoms: O_9  and  C_10 
REMARK    3  A    between atoms: C_10  and  C_12 
REMARK       I    between atoms: C_12  and  N_14 
REMARK    4  A    between atoms: N_14  and  C_15 
REMARK    5  A    between atoms: C_15  and  C_16 
REMARK    6  A    between atoms: C_16  and  C_17 
REMARK    7  A    between atoms: C_20  and  S_21 
REMARK    8  A    between atoms: S_21  and  N_22 
ROOT
ATOM      1  C   UNL d   1      27.759 -13.698   2.455  0.00  0.00     0.246 C 
ATOM      2  O   UNL d   1      27.051 -12.843   1.925  0.00  0.00    -0.271 OA
ATOM      3  N   UNL d   1      28.131 -14.853   1.772  0.00  0.00    -0.359 N 
ATOM      4  H   UNL d   1      28.714 -15.556   2.205  0.00  0.00     0.162 HD
ENDROOT
BRANCH   1   5
ATOM      5  C   UNL d   1      28.293 -13.578   3.897  0.00  0.00     0.216 C 
ATOM      6  C   UNL d   1      27.940 -14.866   4.649  0.00  0.00     0.050 C 
BRANCH   5   7
ATOM      7  O   UNL d   1      27.667 -12.448   4.525  0.00  0.00    -0.337 OA
BRANCH   7   8
ATOM      8  C   UNL d   1      28.149 -12.044   5.738  0.00  0.00     0.072 C 
ATOM      9  C   UNL d   1      28.950 -10.921   5.924  0.00  0.00     0.038 C 
ATOM     10  C   UNL d   1      29.333 -10.523   7.188  0.00  0.00     0.017 C 
ATOM     11  C   UNL d   1      29.116 -11.353   8.278  0.00  0.00     0.005 A 
ATOM     12  C   UNL d   1      29.717 -11.050   9.573  0.00  0.00    -0.037 A 
ATOM     13  C   UNL d   1      28.363 -12.508   8.090  0.00  0.00     0.092 A 
ATOM     14  C   UNL d   1      29.547 -11.934  10.570  0.00  0.00     0.020 A 
ATOM     15  C   UNL d   1      30.530  -9.783   9.667  0.00  0.00     0.050 C 
ATOM     16  C   UNL d   1      30.130 -11.761  11.937  0.00  0.00     0.055 C 
ATOM     17  C   UNL d   1      28.751 -13.185  10.390  0.00  0.00     0.294 A 
ATOM     18  O   UNL d   1      28.158 -13.402   9.151  0.00  0.00    -0.274 OA
ATOM     19  O   UNL d   1      28.617 -13.989  11.308  0.00  0.00    -0.259 OA
ATOM     20  C   UNL d   1      27.814 -12.827   6.845  0.00  0.00     0.075 C 
ENDBRANCH   7   8
ENDBRANCH   5   7
ENDBRANCH   1   5
BRANCH   3  21
ATOM     21  C   UNL d   1      27.603 -15.072   0.445  0.00  0.00     0.127 C 
BRANCH  21  22
ATOM     22  C   UNL d   1      27.565 -16.532  -0.016  0.00  0.00     0.058 C 
BRANCH  22  23
ATOM     23  C   UNL d   1      26.162 -17.029  -0.330  0.00  0.00    -0.057 C 
ATOM     24  C   UNL d   1      25.296 -16.324  -1.184  0.00  0.00     0.009 C 
ATOM     25  C   UNL d   1      23.956 -16.677  -1.311  0.00  0.00     0.026 C 
ATOM     26  C   UNL d   1      23.493 -17.825  -0.676  0.00  0.00     0.079 C 
ATOM     27  C   UNL d   1      24.370 -18.633   0.049  0.00  0.00     0.026 C 
ATOM     28  C   UNL d   1      25.685 -18.203   0.272  0.00  0.00     0.009 C 
BRANCH  26  29
ATOM     29  S   UNL d   1      21.773 -18.235  -0.790  0.00  0.00     0.256 S 
ATOM     30  O   UNL d   1      21.029 -16.996  -0.895  0.00  0.00    -0.201 OA
ATOM     31  O   UNL d   1      21.623 -19.324  -1.719  0.00  0.00    -0.201 OA
BRANCH  29  32
ATOM     32  N   UNL d   1      21.473 -18.863   0.732  0.00  0.00    -0.324 N 
ATOM     33  H   UNL d   1      21.522 -18.211   1.507  0.00  0.00     0.169 HD
ATOM     34  H   UNL d   1      21.725 -19.838   0.868  0.00  0.00     0.169 HD
ENDBRANCH  29  32
ENDBRANCH  26  29
ENDBRANCH  22  23
ENDBRANCH  21  22
ENDBRANCH   3  21
TORSDOF 8
ENDMDL
MODEL 3
REMARK VINA RESULT:   -10.292      6.407      9.850
REMARK INTER + INTRA:         -14.087
REMARK INTER:                 -12.678
REMARK INTRA:                  -1.409
REMARK CONF_INDEPENDENT:        2.386
REMARK UNBOUND:                -1.409
REMARK  8 active torsions:
REMARK  status: ('A' for Active; 'I' for Inactive)
REMARK    1  A    between atoms: C_8  and  O_9 
REMARK    2  A    between atoms: O_9  and  C_10 
REMARK    3  A    between atoms: C_10  and  C_12 
REMARK       I    between atoms: C_12  and  N_14 
REMARK    4  A    between atoms: N_14  and  C_15 
REMARK    5  A    between atoms: C_15  and  C_16 
REMARK    6  A    between atoms: C_16  and  C_17 
REMARK    7  A    between atoms: C_20  and  S_21 
REMARK    8  A    between atoms: S_21  and  N_22 
ROOT
ATOM      1  C   UNL d   1      27.291 -13.533   0.021  0.00  0.00     0.246 C 
ATOM      2  O   UNL d   1      27.620 -13.116  -1.088  0.00  0.00    -0.271 OA
ATOM      3  N   UNL d   1      26.555 -14.706   0.163  0.00  0.00    -0.359 N 
ATOM      4  H   UNL d   1      26.285 -15.052   1.073  0.00  0.00     0.162 HD
ENDROOT
BRANCH   1   5
ATOM      5  C   UNL d   1      27.654 -12.814   1.337  0.00  0.00     0.216 C 
ATOM      6  C   UNL d   1      29.155 -12.998   1.588  0.00  0.00     0.050 C 
BRANCH   5   7
ATOM      7  O   UNL d   1      26.896 -13.404   2.406  0.00  0.00    -0.337 OA
BRANCH   7   8
ATOM      8  C   UNL d   1      27.426 -13.359   3.664  0.00  0.00     0.072 C 
ATOM      9  C   UNL d   1      27.572 -14.469   4.490  0.00  0.00     0.038 C 
ATOM     10  C   UNL d   1      28.193 -14.366   5.717  0.00  0.00     0.017 C 
ATOM     11  C   UNL d   1      28.485 -13.119   6.249  0.00  0.00     0.005 A 
ATOM     12  C   UNL d   1      28.927 -12.988   7.635  0.00  0.00    -0.037 A 
ATOM     13  C   UNL d   1      28.289 -11.996   5.450  0.00  0.00     0.092 A 
ATOM     14  C   UNL d   1      29.110 -11.750   8.124  0.00  0.00     0.020 A 
ATOM     15  C   UNL d   1      29.090 -14.264   8.421  0.00  0.00     0.050 C 
ATOM     16  C   UNL d   1      29.535 -11.474   9.532  0.00  0.00     0.055 C 
ATOM     17  C   UNL d   1      28.898 -10.530   7.289  0.00  0.00     0.294 A 
ATOM     18  O   UNL d   1      28.525 -10.712   5.962  0.00  0.00    -0.274 OA
ATOM     19  O   UNL d   1      29.057  -9.407   7.757  0.00  0.00    -0.259 OA
ATOM     20  C   UNL d   1      27.831 -12.107   4.134  0.00  0.00     0.075 C 
ENDBRANCH   7   8
ENDBRANCH   5   7
ENDBRANCH   1   5
BRANCH   3  21
ATOM     21  C   UNL d   1      26.110 -15.392  -1.029  0.00  0.00     0.127 C 
BRANCH  21  22
ATOM     22  C   UNL d   1      26.061 -16.920  -0.930  0.00  0.00     0.058 C 
BRANCH  22  23
ATOM     23  C   UNL d   1      24.652 -17.468  -0.758  0.00  0.00    -0.057 C 
ATOM     24  C   UNL d   1      24.412 -18.812  -0.421  0.00  0.00     0.009 C 
ATOM     25  C   UNL d   1      23.129 -19.350  -0.458  0.00  0.00     0.026 C 
ATOM     26  C   UNL d   1      22.048 -18.513  -0.713  0.00  0.00     0.079 C 
ATOM     27  C   UNL d   1      22.244 -17.143  -0.894  0.00  0.00     0.026 C 
ATOM     28  C   UNL d   1      23.546 -16.634  -0.977  0.00  0.00     0.009 C 
BRANCH  26  29
ATOM     29  S   UNL d   1      20.425 -19.215  -0.821  0.00  0.00     0.256 S 
ATOM     30  O   UNL d   1      19.478 -18.205  -0.392  0.00  0.00    -0.201 OA
ATOM     31  O   UNL d   1      20.314 -19.919  -2.071  0.00  0.00    -0.201 OA
BRANCH  29  32
ATOM     32  N   UNL d   1      20.480 -20.380   0.379  0.00  0.00    -0.324 N 
ATOM     33  H   UNL d   1      19.592 -20.648   0.791  0.00  0.00     0.169 HD
ATOM     34  H   UNL d   1      21.328 -20.403   0.938  0.00  0.00     0.169 HD
ENDBRANCH  29  32
ENDBRANCH  26  29
ENDBRANCH  22  23
ENDBRANCH  21  22
ENDBRANCH   3  21
TORSDOF 8
ENDMDL
MODEL 4
REMARK VINA RESULT:   -10.118      6.789      9.924
REMARK INTER + INTRA:         -13.707
REMARK INTER:                 -12.505
REMARK INTRA:                  -1.203
REMARK CONF_INDEPENDENT:        2.386
REMARK UNBOUND:                -1.203
REMARK  8 active torsions:
REMARK  status: ('A' for Active; 'I' for Inactive)
REMARK    1  A    between atoms: C_8  and  O_9 
REMARK    2  A    between atoms: O_9  and  C_10 
REMARK    3  A    between atoms: C_10  and  C_12 
REMARK       I    between atoms: C_12  and  N_14 
REMARK    4  A    between atoms: N_14  and  C_15 
REMARK    5  A    between atoms: C_15  and  C_16 
REMARK    6  A    between atoms: C_16  and  C_17 
REMARK    7  A    between atoms: C_20  and  S_21 
REMARK    8  A    between atoms: S_21  and  N_22 
ROOT
ATOM      1  C   UNL d   1      26.875 -14.542   1.048  0.00  0.00     0.246 C 
ATOM      2  O   UNL d   1      25.743 -14.474   0.572  0.00  0.00    -0.271 OA
ATOM      3  N   UNL d   1      27.632 -15.706   0.948  0.00  0.00    -0.359 N 
ATOM      4  H   UNL d   1      28.563 -15.764   1.336  0.00  0.00     0.162 HD
ENDROOT
BRANCH   1   5
ATOM      5  C   UNL d   1      27.554 -13.370   1.786  0.00  0.00     0.216 C 
ATOM      6  C   UNL d   1      28.277 -12.503   0.749  0.00  0.00     0.050 C 
BRANCH   5   7
ATOM      7  O   UNL d   1      28.496 -13.906   2.728  0.00  0.00    -0.337 OA
BRANCH   7   8
ATOM      8  C   UNL d   1      28.534 -13.354   3.978  0.00  0.00     0.072 C 
ATOM      9  C   UNL d   1      28.642 -11.989   4.225  0.00  0.00     0.038 C 
ATOM     10  C   UNL d   1      28.589 -11.494   5.511  0.00  0.00     0.017 C 
ATOM     11  C   UNL d   1      28.651 -12.356   6.595  0.00  0.00     0.005 A 
ATOM     12  C   UNL d   1      28.829 -11.837   7.948  0.00  0.00    -0.037 A 
ATOM     13  C   UNL d   1      28.601 -13.726   6.355  0.00  0.00     0.092 A 
ATOM     14  C   UNL d   1      28.971 -12.720   8.950  0.00  0.00     0.020 A 
ATOM     15  C   UNL d   1      28.890 -10.338   8.099  0.00  0.00     0.050 C 
ATOM     16  C   UNL d   1      29.186 -12.324  10.377  0.00  0.00     0.055 C 
ATOM     17  C   UNL d   1      28.929 -14.195   8.715  0.00  0.00     0.294 A 
ATOM     18  O   UNL d   1      28.709 -14.637   7.416  0.00  0.00    -0.274 OA
ATOM     19  O   UNL d   1      29.075 -14.988   9.641  0.00  0.00    -0.259 OA
ATOM     20  C   UNL d   1      28.468 -14.236   5.060  0.00  0.00     0.075 C 
ENDBRANCH   7   8
ENDBRANCH   5   7
ENDBRANCH   1   5
BRANCH   3  21
ATOM     21  C   UNL d   1      27.032 -16.872   0.339  0.00  0.00     0.127 C 
BRANCH  21  22
ATOM     22  C   UNL d   1      26.124 -16.594  -0.862  0.00  0.00     0.058 C 
BRANCH  22  23
ATOM     23  C   UNL d   1      24.742 -17.218  -0.731  0.00  0.00    -0.057 C 
ATOM     24  C   UNL d   1      24.566 -18.586  -0.457  0.00  0.00     0.009 C 
ATOM     25  C   UNL d   1      23.311 -19.184  -0.533  0.00  0.00     0.026 C 
ATOM     26  C   UNL d   1      22.193 -18.391  -0.762  0.00  0.00     0.079 C 
ATOM     27  C   UNL d   1      22.322 -17.005  -0.880  0.00  0.00     0.026 C 
ATOM     28  C   UNL d   1      23.598 -16.430  -0.926  0.00  0.00     0.009 C 
BRANCH  26  29
ATOM     29  S   UNL d   1      20.607 -19.166  -0.920  0.00  0.00     0.256 S 
ATOM     30  O   UNL d   1      19.603 -18.204  -0.512  0.00  0.00    -0.201 OA
ATOM     31  O   UNL d   1      20.564 -19.866  -2.176  0.00  0.00    -0.201 OA
BRANCH  29  32
ATOM     32  N   UNL d   1      20.683 -20.336   0.275  0.00  0.00    -0.324 N 
ATOM     33  H   UNL d   1      19.957 -21.044   0.260  0.00  0.00     0.169 HD
ATOM     34  H   UNL d   1      21.094 -20.044   1.157  0.00  0.00     0.169 HD
ENDBRANCH  29  32
ENDBRANCH  26  29
ENDBRANCH  22  23
ENDBRANCH  21  22
ENDBRANCH   3  21
TORSDOF 8
ENDMDL
MODEL 5
REMARK VINA RESULT:    -9.986      7.192     10.322
REMARK INTER + INTRA:         -13.915
REMARK INTER:                 -12.372
REMARK INTRA:                  -1.543
REMARK CONF_INDEPENDENT:        2.386
REMARK UNBOUND:                -1.543
REMARK  8 active torsions:
REMARK  status: ('A' for Active; 'I' for Inactive)
REMARK    1  A    between atoms: C_8  and  O_9 
REMARK    2  A    between atoms: O_9  and  C_10 
REMARK    3  A    between atoms: C_10  and  C_12 
REMARK       I    between atoms: C_12  and  N_14 
REMARK    4  A    between atoms: N_14  and  C_15 
REMARK    5  A    between atoms: C_15  and  C_16 
REMARK    6  A    between atoms: C_16  and  C_17 
REMARK    7  A    between atoms: C_20  and  S_21 
REMARK    8  A    between atoms: S_21  and  N_22 
ROOT
ATOM      1  C   UNL d   1      27.635 -13.854   1.205  0.00  0.00     0.246 C 
ATOM      2  O   UNL d   1      27.322 -13.265   0.171  0.00  0.00    -0.271 OA
ATOM      3  N   UNL d   1      28.274 -15.090   1.167  0.00  0.00    -0.359 N 
ATOM      4  H   UNL d   1      28.534 -15.575   2.015  0.00  0.00     0.162 HD
ENDROOT
BRANCH   1   5
ATOM      5  C   UNL d   1      27.356 -13.293   2.615  0.00  0.00     0.216 C 
ATOM      6  C   UNL d   1      28.470 -12.300   2.966  0.00  0.00     0.050 C 
BRANCH   5   7
ATOM      7  O   UNL d   1      27.352 -14.384   3.549  0.00  0.00    -0.337 OA
BRANCH   7   8
ATOM      8  C   UNL d   1      28.110 -14.259   4.680  0.00  0.00     0.072 C 
ATOM      9  C   UNL d   1      29.288 -14.962   4.911  0.00  0.00     0.038 C 
ATOM     10  C   UNL d   1      30.047 -14.724   6.038  0.00  0.00     0.017 C 
ATOM     11  C   UNL d   1      29.543 -13.946   7.069  0.00  0.00     0.005 A 
ATOM     12  C   UNL d   1      30.233 -13.877   8.354  0.00  0.00    -0.037 A 
ATOM     13  C   UNL d   1      28.335 -13.284   6.868  0.00  0.00     0.092 A 
ATOM     14  C   UNL d   1      29.654 -13.179   9.345  0.00  0.00     0.020 A 
ATOM     15  C   UNL d   1      31.525 -14.646   8.475  0.00  0.00     0.050 C 
ATOM     16  C   UNL d   1      30.240 -13.049  10.716  0.00  0.00     0.055 C 
ATOM     17  C   UNL d   1      28.355 -12.467   9.156  0.00  0.00     0.294 A 
ATOM     18  O   UNL d   1      27.763 -12.524   7.899  0.00  0.00    -0.274 OA
ATOM     19  O   UNL d   1      27.833 -11.846  10.077  0.00  0.00    -0.259 OA
ATOM     20  C   UNL d   1      27.647 -13.373   5.655  0.00  0.00     0.075 C 
ENDBRANCH   7   8
ENDBRANCH   5   7
ENDBRANCH   1   5
BRANCH   3  21
ATOM     21  C   UNL d   1      28.496 -15.715  -0.117  0.00  0.00     0.127 C 
BRANCH  21  22
ATOM     22  C   UNL d   1      28.188 -17.214  -0.182  0.00  0.00     0.058 C 
BRANCH  22  23
ATOM     23  C   UNL d   1      26.719 -17.516  -0.436  0.00  0.00    -0.057 C 
ATOM     24  C   UNL d   1      26.016 -16.947  -1.513  0.00  0.00     0.009 C 
ATOM     25  C   UNL d   1      24.634 -17.072  -1.624  0.00  0.00     0.026 C 
ATOM     26  C   UNL d   1      23.951 -17.879  -0.721  0.00  0.00     0.079 C 
ATOM     27  C   UNL d   1      24.646 -18.584   0.263  0.00  0.00     0.026 C 
ATOM     28  C   UNL d   1      26.016 -18.355   0.442  0.00  0.00     0.009 C 
BRANCH  26  29
ATOM     29  S   UNL d   1      22.185 -17.985  -0.829  0.00  0.00     0.256 S 
ATOM     30  O   UNL d   1      21.665 -16.633  -0.893  0.00  0.00    -0.201 OA
ATOM     31  O   UNL d   1      21.846 -19.004  -1.786  0.00  0.00    -0.201 OA
BRANCH  29  32
ATOM     32  N   UNL d   1      21.789 -18.595   0.678  0.00  0.00    -0.324 N 
ATOM     33  H   UNL d   1      21.792 -17.934   1.448  0.00  0.00     0.169 HD
ATOM     34  H   UNL d   1      22.030 -19.568   0.841  0.00  0.00     0.169 HD
ENDBRANCH  29  32
ENDBRANCH  26  29
ENDBRANCH  22  23
ENDBRANCH  21  22
ENDBRANCH   3  21
TORSDOF 8
ENDMDL
MODEL 6
REMARK VINA RESULT:    -9.729      2.971      6.064
REMARK INTER + INTRA:         -13.589
REMARK INTER:                 -12.115
REMARK INTRA:                  -1.474
REMARK CONF_INDEPENDENT:        2.386
REMARK UNBOUND:                -1.474
REMARK  8 active torsions:
REMARK  status: ('A' for Active; 'I' for Inactive)
REMARK    1  A    between atoms: C_8  and  O_9 
REMARK    2  A    between atoms: O_9  and  C_10 
REMARK    3  A    between atoms: C_10  and  C_12 
REMARK       I    between atoms: C_12  and  N_14 
REMARK    4  A    between atoms: N_14  and  C_15 
REMARK    5  A    between atoms: C_15  and  C_16 
REMARK    6  A    between atoms: C_16  and  C_17 
REMARK    7  A    between atoms: C_20  and  S_21 
REMARK    8  A    between atoms: S_21  and  N_22 
ROOT
ATOM      1  C   UNL d   1      28.210 -15.571  -2.621  0.00  0.00     0.246 C 
ATOM      2  O   UNL d   1      28.867 -15.194  -1.652  0.00  0.00    -0.271 OA
ATOM      3  N   UNL d   1      26.827 -15.711  -2.544  0.00  0.00    -0.359 N 
ATOM      4  H   UNL d   1      26.284 -16.020  -3.339  0.00  0.00     0.162 HD
ENDROOT
BRANCH   1   5
ATOM      5  C   UNL d   1      28.839 -15.919  -3.986  0.00  0.00     0.216 C 
ATOM      6  C   UNL d   1      30.051 -15.007  -4.203  0.00  0.00     0.050 C 
BRANCH   5   7
ATOM      7  O   UNL d   1      27.858 -15.695  -5.012  0.00  0.00    -0.337 OA
BRANCH   7   8
ATOM      8  C   UNL d   1      27.615 -14.405  -5.391  0.00  0.00     0.072 C 
ATOM      9  C   UNL d   1      28.152 -13.812  -6.529  0.00  0.00     0.038 C 
ATOM     10  C   UNL d   1      27.796 -12.530  -6.897  0.00  0.00     0.017 C 
ATOM     11  C   UNL d   1      27.074 -11.728  -6.026  0.00  0.00     0.005 A 
ATOM     12  C   UNL d   1      26.893 -10.306  -6.304  0.00  0.00    -0.037 A 
ATOM     13  C   UNL d   1      26.581 -12.299  -4.856  0.00  0.00     0.092 A 
ATOM     14  C   UNL d   1      26.261  -9.559  -5.383  0.00  0.00     0.020 A 
ATOM     15  C   UNL d   1      27.482  -9.783  -7.590  0.00  0.00     0.050 C 
ATOM     16  C   UNL d   1      26.032  -8.088  -5.529  0.00  0.00     0.055 C 
ATOM     17  C   UNL d   1      25.731 -10.147  -4.116  0.00  0.00     0.294 A 
ATOM     18  O   UNL d   1      25.887 -11.515  -3.923  0.00  0.00    -0.274 OA
ATOM     19  O   UNL d   1      25.169  -9.446  -3.280  0.00  0.00    -0.259 OA
ATOM     20  C   UNL d   1      26.781 -13.650  -4.562  0.00  0.00     0.075 C 
ENDBRANCH   7   8
ENDBRANCH   5   7
ENDBRANCH   1   5
BRANCH   3  21
ATOM     21  C   UNL d   1      26.177 -15.480  -1.275  0.00  0.00     0.127 C 
BRANCH  21  22
ATOM     22  C   UNL d   1      25.939 -16.728  -0.419  0.00  0.00     0.058 C 
BRANCH  22  23
ATOM     23  C   UNL d   1      24.548 -17.320  -0.590  0.00  0.00    -0.057 C 
ATOM     24  C   UNL d   1      23.414 -16.513  -0.790  0.00  0.00     0.009 C 
ATOM     25  C   UNL d   1      22.129 -17.045  -0.749  0.00  0.00     0.026 C 
ATOM     26  C   UNL d   1      21.967 -18.421  -0.631  0.00  0.00     0.079 C 
ATOM     27  C   UNL d   1      23.080 -19.262  -0.590  0.00  0.00     0.026 C 
ATOM     28  C   UNL d   1      24.364 -18.708  -0.508  0.00  0.00     0.009 C 
BRANCH  26  29
ATOM     29  S   UNL d   1      20.328 -19.086  -0.516  0.00  0.00     0.256 S 
ATOM     30  O   UNL d   1      19.400 -18.040  -0.895  0.00  0.00    -0.201 OA
ATOM     31  O   UNL d   1      20.324 -20.396  -1.111  0.00  0.00    -0.201 OA
BRANCH  29  32
ATOM     32  N   UNL d   1      20.169 -19.311   1.135  0.00  0.00    -0.324 N 
ATOM     33  H   UNL d   1      19.709 -18.569   1.650  0.00  0.00     0.169 HD
ATOM     34  H   UNL d   1      20.895 -19.867   1.579  0.00  0.00     0.169 HD
ENDBRANCH  29  32
ENDBRANCH  26  29
ENDBRANCH  22  23
ENDBRANCH  21  22
ENDBRANCH   3  21
TORSDOF 8
ENDMDL
MODEL 7
REMARK VINA RESULT:    -9.554      2.378      3.311
REMARK INTER + INTRA:         -13.485
REMARK INTER:                 -11.940
REMARK INTRA:                  -1.545
REMARK CONF_INDEPENDENT:        2.386
REMARK UNBOUND:                -1.545
REMARK  8 active torsions:
REMARK  status: ('A' for Active; 'I' for Inactive)
REMARK    1  A    between atoms: C_8  and  O_9 
REMARK    2  A    between atoms: O_9  and  C_10 
REMARK    3  A    between atoms: C_10  and  C_12 
REMARK       I    between atoms: C_12  and  N_14 
REMARK    4  A    between atoms: N_14  and  C_15 
REMARK    5  A    between atoms: C_15  and  C_16 
REMARK    6  A    between atoms: C_16  and  C_17 
REMARK    7  A    between atoms: C_20  and  S_21 
REMARK    8  A    between atoms: S_21  and  N_22 
ROOT
ATOM      1  C   UNL d   1      27.191 -14.422  -3.174  0.00  0.00     0.246 C 
ATOM      2  O   UNL d   1      26.906 -13.403  -2.546  0.00  0.00    -0.271 OA
ATOM      3  N   UNL d   1      27.728 -15.536  -2.536  0.00  0.00    -0.359 N 
ATOM      4  H   UNL d   1      27.962 -16.375  -3.049  0.00  0.00     0.162 HD
ENDROOT
BRANCH   1   5
ATOM      5  C   UNL d   1      26.987 -14.562  -4.697  0.00  0.00     0.216 C 
ATOM      6  C   UNL d   1      25.538 -14.991  -4.950  0.00  0.00     0.050 C 
BRANCH   5   7
ATOM      7  O   UNL d   1      27.895 -15.560  -5.190  0.00  0.00    -0.337 OA
BRANCH   7   8
ATOM      8  C   UNL d   1      28.953 -15.142  -5.947  0.00  0.00     0.072 C 
ATOM      9  C   UNL d   1      29.074 -13.862  -6.479  0.00  0.00     0.038 C 
ATOM     10  C   UNL d   1      30.210 -13.482  -7.163  0.00  0.00     0.017 C 
ATOM     11  C   UNL d   1      31.157 -14.428  -7.527  0.00  0.00     0.005 A 
ATOM     12  C   UNL d   1      32.239 -14.082  -8.444  0.00  0.00    -0.037 A 
ATOM     13  C   UNL d   1      31.013 -15.726  -7.046  0.00  0.00     0.092 A 
ATOM     14  C   UNL d   1      33.075 -15.059  -8.831  0.00  0.00     0.020 A 
ATOM     15  C   UNL d   1      32.295 -12.653  -8.922  0.00  0.00     0.050 C 
ATOM     16  C   UNL d   1      34.208 -14.847  -9.785  0.00  0.00     0.055 C 
ATOM     17  C   UNL d   1      32.936 -16.461  -8.335  0.00  0.00     0.294 A 
ATOM     18  O   UNL d   1      31.918 -16.728  -7.426  0.00  0.00    -0.274 OA
ATOM     19  O   UNL d   1      33.700 -17.345  -8.711  0.00  0.00    -0.259 OA
ATOM     20  C   UNL d   1      29.959 -16.078  -6.197  0.00  0.00     0.075 C 
ENDBRANCH   7   8
ENDBRANCH   5   7
ENDBRANCH   1   5
BRANCH   3  21
ATOM     21  C   UNL d   1      28.022 -15.451  -1.124  0.00  0.00     0.127 C 
BRANCH  21  22
ATOM     22  C   UNL d   1      27.657 -16.689  -0.299  0.00  0.00     0.058 C 
BRANCH  22  23
ATOM     23  C   UNL d   1      26.233 -17.173  -0.535  0.00  0.00    -0.057 C 
ATOM     24  C   UNL d   1      25.406 -16.602  -1.518  0.00  0.00     0.009 C 
ATOM     25  C   UNL d   1      24.052 -16.913  -1.595  0.00  0.00     0.026 C 
ATOM     26  C   UNL d   1      23.533 -17.900  -0.764  0.00  0.00     0.079 C 
ATOM     27  C   UNL d   1      24.367 -18.596   0.112  0.00  0.00     0.026 C 
ATOM     28  C   UNL d   1      25.699 -18.190   0.269  0.00  0.00     0.009 C 
BRANCH  26  29
ATOM     29  S   UNL d   1      21.796 -18.247  -0.824  0.00  0.00     0.256 S 
ATOM     30  O   UNL d   1      21.095 -16.980  -0.899  0.00  0.00    -0.201 OA
ATOM     31  O   UNL d   1      21.577 -19.324  -1.752  0.00  0.00    -0.201 OA
BRANCH  29  32
ATOM     32  N   UNL d   1      21.523 -18.871   0.704  0.00  0.00    -0.324 N 
ATOM     33  H   UNL d   1      21.232 -18.210   1.417  0.00  0.00     0.169 HD
ATOM     34  H   UNL d   1      22.077 -19.684   0.958  0.00  0.00     0.169 HD
ENDBRANCH  29  32
ENDBRANCH  26  29
ENDBRANCH  22  23
ENDBRANCH  21  22
ENDBRANCH   3  21
TORSDOF 8
ENDMDL
MODEL 8
REMARK VINA RESULT:    -9.070      3.014      6.737
REMARK INTER + INTRA:         -13.379
REMARK INTER:                 -11.457
REMARK INTRA:                  -1.922
REMARK CONF_INDEPENDENT:        2.386
REMARK UNBOUND:                -1.922
REMARK  8 active torsions:
REMARK  status: ('A' for Active; 'I' for Inactive)
REMARK    1  A    between atoms: C_8  and  O_9 
REMARK    2  A    between atoms: O_9  and  C_10 
REMARK    3  A    between atoms: C_10  and  C_12 
REMARK       I    between atoms: C_12  and  N_14 
REMARK    4  A    between atoms: N_14  and  C_15 
REMARK    5  A    between atoms: C_15  and  C_16 
REMARK    6  A    between atoms: C_16  and  C_17 
REMARK    7  A    between atoms: C_20  and  S_21 
REMARK    8  A    between atoms: S_21  and  N_22 
ROOT
ATOM      1  C   UNL d   1      29.286 -16.283  -3.892  0.00  0.00     0.246 C 
ATOM      2  O   UNL d   1      30.428 -16.666  -3.641  0.00  0.00    -0.271 OA
ATOM      3  N   UNL d   1      28.273 -16.361  -2.941  0.00  0.00    -0.359 N 
ATOM      4  H   UNL d   1      27.334 -16.045  -3.144  0.00  0.00     0.162 HD
ENDROOT
BRANCH   1   5
ATOM      5  C   UNL d   1      28.873 -15.691  -5.256  0.00  0.00     0.216 C 
ATOM      6  C   UNL d   1      29.815 -14.526  -5.579  0.00  0.00     0.050 C 
BRANCH   5   7
ATOM      7  O   UNL d   1      27.518 -15.224  -5.161  0.00  0.00    -0.337 OA
BRANCH   7   8
ATOM      8  C   UNL d   1      27.313 -13.954  -4.698  0.00  0.00     0.072 C 
ATOM      9  C   UNL d   1      27.680 -13.518  -3.429  0.00  0.00     0.038 C 
ATOM     10  C   UNL d   1      27.519 -12.199  -3.057  0.00  0.00     0.017 C 
ATOM     11  C   UNL d   1      26.786 -11.333  -3.854  0.00  0.00     0.005 A 
ATOM     12  C   UNL d   1      26.414 -10.008  -3.365  0.00  0.00    -0.037 A 
ATOM     13  C   UNL d   1      26.365 -11.780  -5.103  0.00  0.00     0.092 A 
ATOM     14  C   UNL d   1      25.630  -9.245  -4.144  0.00  0.00     0.020 A 
ATOM     15  C   UNL d   1      26.906  -9.628  -1.991  0.00  0.00     0.050 C 
ATOM     16  C   UNL d   1      25.154  -7.881  -3.753  0.00  0.00     0.055 C 
ATOM     17  C   UNL d   1      25.159  -9.706  -5.484  0.00  0.00     0.294 A 
ATOM     18  O   UNL d   1      25.581 -10.956  -5.924  0.00  0.00    -0.274 OA
ATOM     19  O   UNL d   1      24.430  -9.001  -6.176  0.00  0.00    -0.259 OA
ATOM     20  C   UNL d   1      26.684 -13.060  -5.567  0.00  0.00     0.075 C 
ENDBRANCH   7   8
ENDBRANCH   5   7
ENDBRANCH   1   5
BRANCH   3  21
ATOM     21  C   UNL d   1      28.565 -16.977  -1.667  0.00  0.00     0.127 C 
BRANCH  21  22
ATOM     22  C   UNL d   1      27.627 -16.593  -0.519  0.00  0.00     0.058 C 
BRANCH  22  23
ATOM     23  C   UNL d   1      26.199 -17.081  -0.717  0.00  0.00    -0.057 C 
ATOM     24  C   UNL d   1      25.295 -16.417  -1.564  0.00  0.00     0.009 C 
ATOM     25  C   UNL d   1      23.945 -16.752  -1.588  0.00  0.00     0.026 C 
ATOM     26  C   UNL d   1      23.503 -17.846  -0.853  0.00  0.00     0.079 C 
ATOM     27  C   UNL d   1      24.409 -18.622  -0.128  0.00  0.00     0.026 C 
ATOM     28  C   UNL d   1      25.741 -18.203  -0.011  0.00  0.00     0.009 C 
BRANCH  26  29
ATOM     29  S   UNL d   1      21.772 -18.229  -0.839  0.00  0.00     0.256 S 
ATOM     30  O   UNL d   1      21.043 -16.979  -0.904  0.00  0.00    -0.201 OA
ATOM     31  O   UNL d   1      21.540 -19.325  -1.742  0.00  0.00    -0.201 OA
BRANCH  29  32
ATOM     32  N   UNL d   1      21.573 -18.836   0.708  0.00  0.00    -0.324 N 
ATOM     33  H   UNL d   1      21.404 -18.157   1.442  0.00  0.00     0.169 HD
ATOM     34  H   UNL d   1      22.071 -19.698   0.915  0.00  0.00     0.169 HD
ENDBRANCH  29  32
ENDBRANCH  26  29
ENDBRANCH  22  23
ENDBRANCH  21  22
ENDBRANCH   3  21
TORSDOF 8
ENDMDL
