MODEL 1
REMARK VINA RESULT:   -10.006      0.000      0.000
REMARK INTER + INTRA:         -13.252
REMARK INTER:                 -12.392
REMARK INTRA:                  -0.859
REMARK CONF_INDEPENDENT:        2.386
REMARK UNBOUND:                -0.859
REMARK  8 active torsions:
REMARK  status: ('A' for Active; 'I' for Inactive)
REMARK    1  A    between atoms: N_1  and  C_2 
REMARK    2  A    between atoms: C_2  and  C_3 
REMARK    3  A    between atoms: C_3  and  N_4 
REMARK    4  A    between atoms: N_4  and  C_5 
REMARK    5  A    between atoms: C_8  and  N_9 
REMARK    6  A    between atoms: C_12  and  N_13 
REMARK    7  A    between atoms: N_16  and  C_17 
REMARK    8  A    between atoms: C_20  and  N_21 
ROOT
ATOM      1  C   UNL d   1      28.673 -15.642  -0.323  0.00  0.00     0.030 A 
ATOM      2  C   UNL d   1      29.024 -14.950  -1.476  0.00  0.00     0.031 A 
ATOM      3  C   UNL d   1      28.130 -14.848  -2.544  0.00  0.00     0.040 A 
ATOM      4  C   UNL d   1      26.876 -15.504  -2.518  0.00  0.00     0.129 A 
ATOM      5  C   UNL d   1      26.473 -16.209  -1.366  0.00  0.00     0.066 A 
ATOM      6  C   UNL d   1      27.414 -16.263  -0.296  0.00  0.00     0.061 A 
ENDROOT
BRANCH   5   7
ATOM      7  N   UNL d   1      25.274 -16.856  -1.152  0.00  0.00    -0.376 N 
ATOM      8  C   UNL d   1      25.149 -18.228  -0.631  0.00  0.00     0.143 C 
ATOM      9  C   UNL d   1      24.149 -18.241   0.549  0.00  0.00     0.143 C 
ATOM     10  N   UNL d   1      22.852 -17.620   0.177  0.00  0.00    -0.378 N 
ATOM     11  C   UNL d   1      22.951 -16.325  -0.520  0.00  0.00     0.143 C 
ATOM     12  C   UNL d   1      23.998 -16.319  -1.661  0.00  0.00     0.143 C 
BRANCH  10  13
ATOM     13  C   UNL d   1      21.729 -18.427   0.149  0.00  0.00     0.030 A 
ATOM     14  C   UNL d   1      21.228 -18.950   1.355  0.00  0.00     0.032 A 
ATOM     15  C   UNL d   1      20.174 -19.873   1.387  0.00  0.00     0.038 A 
ATOM     16  C   UNL d   1      19.544 -20.231   0.195  0.00  0.00     0.103 A 
ATOM     17  C   UNL d   1      19.993 -19.701  -1.018  0.00  0.00     0.038 A 
ATOM     18  C   UNL d   1      21.071 -18.796  -1.032  0.00  0.00     0.032 A 
BRANCH  16  19
ATOM     19  N   UNL d   1      18.375 -21.123   0.229  0.00  0.00    -0.116 N 
ATOM     20  O   UNL d   1      18.399 -22.075   1.023  0.00  0.00    -0.532 OA
ATOM     21  O   UNL d   1      17.425 -20.858  -0.521  0.00  0.00    -0.532 OA
ENDBRANCH  16  19
ENDBRANCH  10  13
ENDBRANCH   5   7
BRANCH   4  22
ATOM     22  N   UNL d   1      26.064 -15.377  -3.749  0.00  0.00    -0.113 N 
ATOM     23  O   UNL d   1      24.989 -14.772  -3.660  0.00  0.00    -0.532 OA
ATOM     24  O   UNL d   1      26.479 -15.851  -4.816  0.00  0.00    -0.532 OA
ENDBRANCH   4  22
BRANCH   1  25
ATOM     25  N   UNL d   1      29.586 -15.692   0.721  0.00  0.00    -0.388 N 
ATOM     26  H   UNL d   1      29.753 -16.625   1.096  0.00  0.00     0.159 HD
BRANCH  25  27
ATOM     27  C   UNL d   1      30.464 -14.586   1.037  0.00  0.00     0.147 C 
BRANCH  27  28
ATOM     28  C   UNL d   1      31.662 -15.036   1.887  0.00  0.00     0.249 C 
BRANCH  28  29
ATOM     29  N   UNL d   1      31.223 -15.372   3.268  0.00  0.00    -0.078 N 
ATOM     30  H   UNL d   1      30.217 -15.192   3.391  0.00  0.00     0.274 HD
ATOM     31  H   UNL d   1      31.721 -14.807   3.970  0.00  0.00     0.274 HD
ATOM     32  H   UNL d   1      31.384 -16.364   3.491  0.00  0.00     0.274 HD
ENDBRANCH  28  29
ENDBRANCH  27  28
ENDBRANCH  25  27
ENDBRANCH   1  25
TORSDOF 8
ENDMDL
MODEL 2
REMARK VINA RESULT:    -9.036      0.871      1.498
REMARK INTER + INTRA:         -12.529
REMARK INTER:                 -11.423
REMARK INTRA:                  -1.107
REMARK CONF_INDEPENDENT:        2.386
REMARK UNBOUND:                -1.107
REMARK  8 active torsions:
REMARK  status: ('A' for Active; 'I' for Inactive)
REMARK    1  A    between atoms: N_1  and  C_2 
REMARK    2  A    between atoms: C_2  and  C_3 
REMARK    3  A    between atoms: C_3  and  N_4 
REMARK    4  A    between atoms: N_4  and  C_5 
REMARK    5  A    between atoms: C_8  and  N_9 
REMARK    6  A    between atoms: C_12  and  N_13 
REMARK    7  A    between atoms: N_16  and  C_17 
REMARK    8  A    between atoms: C_20  and  N_21 
ROOT
ATOM      1  C   UNL d   1      28.421 -15.485  -0.558  0.00  0.00     0.030 A 
ATOM      2  C   UNL d   1      28.672 -14.759  -1.717  0.00  0.00     0.031 A 
ATOM      3  C   UNL d   1      27.709 -14.674  -2.725  0.00  0.00     0.040 A 
ATOM      4  C   UNL d   1      26.486 -15.379  -2.635  0.00  0.00     0.129 A 
ATOM      5  C   UNL d   1      26.185 -16.122  -1.476  0.00  0.00     0.066 A 
ATOM      6  C   UNL d   1      27.192 -16.157  -0.467  0.00  0.00     0.061 A 
ENDROOT
BRANCH   5   7
ATOM      7  N   UNL d   1      25.028 -16.821  -1.201  0.00  0.00    -0.376 N 
ATOM      8  C   UNL d   1      24.990 -18.195  -0.674  0.00  0.00     0.143 C 
ATOM      9  C   UNL d   1      24.052 -18.250   0.555  0.00  0.00     0.143 C 
ATOM     10  N   UNL d   1      22.712 -17.688   0.248  0.00  0.00    -0.378 N 
ATOM     11  C   UNL d   1      22.718 -16.391  -0.453  0.00  0.00     0.143 C 
ATOM     12  C   UNL d   1      23.705 -16.342  -1.645  0.00  0.00     0.143 C 
BRANCH  10  13
ATOM     13  C   UNL d   1      21.626 -18.544   0.277  0.00  0.00     0.030 A 
ATOM     14  C   UNL d   1      21.050 -18.965  -0.935  0.00  0.00     0.032 A 
ATOM     15  C   UNL d   1      19.875 -19.726  -0.977  0.00  0.00     0.038 A 
ATOM     16  C   UNL d   1      19.293 -20.152   0.217  0.00  0.00     0.103 A 
ATOM     17  C   UNL d   1      19.861 -19.782   1.440  0.00  0.00     0.038 A 
ATOM     18  C   UNL d   1      21.027 -18.993   1.462  0.00  0.00     0.032 A 
BRANCH  16  19
ATOM     19  N   UNL d   1      18.115 -21.032   0.180  0.00  0.00    -0.116 N 
ATOM     20  O   UNL d   1      18.012 -21.893   1.066  0.00  0.00    -0.532 OA
ATOM     21  O   UNL d   1      17.283 -20.847  -0.720  0.00  0.00    -0.532 OA
ENDBRANCH  16  19
ENDBRANCH  10  13
ENDBRANCH   5   7
BRANCH   4  22
ATOM     22  N   UNL d   1      25.594 -15.263  -3.811  0.00  0.00    -0.113 N 
ATOM     23  O   UNL d   1      24.642 -14.479  -3.725  0.00  0.00    -0.532 OA
ATOM     24  O   UNL d   1      25.828 -15.923  -4.833  0.00  0.00    -0.532 OA
ENDBRANCH   4  22
BRANCH   1  25
ATOM     25  N   UNL d   1      29.400 -15.518   0.425  0.00  0.00    -0.388 N 
ATOM     26  H   UNL d   1      29.044 -15.543   1.380  0.00  0.00     0.159 HD
BRANCH  25  27
ATOM     27  C   UNL d   1      30.785 -15.814   0.130  0.00  0.00     0.147 C 
BRANCH  27  28
ATOM     28  C   UNL d   1      30.919 -16.990  -0.850  0.00  0.00     0.249 C 
BRANCH  28  29
ATOM     29  N   UNL d   1      30.062 -18.128  -0.418  0.00  0.00    -0.078 N 
ATOM     30  H   UNL d   1      30.441 -19.025  -0.752  0.00  0.00     0.274 HD
ATOM     31  H   UNL d   1      29.107 -18.043  -0.792  0.00  0.00     0.274 HD
ATOM     32  H   UNL d   1      29.995 -18.190   0.607  0.00  0.00     0.274 HD
ENDBRANCH  28  29
ENDBRANCH  27  28
ENDBRANCH  25  27
ENDBRANCH   1  25
TORSDOF 8
ENDMDL
MODEL 3
REMARK VINA RESULT:    -8.318      2.324      3.435
REMARK INTER + INTRA:         -11.794
REMARK INTER:                 -10.705
REMARK INTRA:                  -1.090
REMARK CONF_INDEPENDENT:        2.386
REMARK UNBOUND:                -1.090
REMARK  8 active torsions:
REMARK  status: ('A' for Active; 'I' for Inactive)
REMARK    1  A    between atoms: N_1  and  C_2 
REMARK    2  A    between atoms: C_2  and  C_3 
REMARK    3  A    between atoms: C_3  and  N_4 
REMARK    4  A    between atoms: N_4  and  C_5 
REMARK    5  A    between atoms: C_8  and  N_9 
REMARK    6  A    between atoms: C_12  and  N_13 
REMARK    7  A    between atoms: N_16  and  C_17 
REMARK    8  A    between atoms: C_20  and  N_21 
ROOT
ATOM      1  C   UNL d   1      31.584 -15.380   0.304  0.00  0.00     0.030 A 
ATOM      2  C   UNL d   1      32.455 -15.481  -0.775  0.00  0.00     0.031 A 
ATOM      3  C   UNL d   1      32.007 -15.957  -2.009  0.00  0.00     0.040 A 
ATOM      4  C   UNL d   1      30.681 -16.420  -2.180  0.00  0.00     0.129 A 
ATOM      5  C   UNL d   1      29.760 -16.329  -1.117  0.00  0.00     0.066 A 
ATOM      6  C   UNL d   1      30.263 -15.814   0.113  0.00  0.00     0.061 A 
ENDROOT
BRANCH   5   7
ATOM      7  N   UNL d   1      28.426 -16.682  -1.127  0.00  0.00    -0.376 N 
ATOM      8  C   UNL d   1      27.876 -17.880  -0.471  0.00  0.00     0.143 C 
ATOM      9  C   UNL d   1      26.668 -17.477   0.407  0.00  0.00     0.143 C 
ATOM     10  N   UNL d   1      25.663 -16.701  -0.363  0.00  0.00    -0.378 N 
ATOM     11  C   UNL d   1      26.209 -15.604  -1.184  0.00  0.00     0.143 C 
ATOM     12  C   UNL d   1      27.451 -16.016  -2.012  0.00  0.00     0.143 C 
BRANCH  10  13
ATOM     13  C   UNL d   1      24.418 -17.267  -0.563  0.00  0.00     0.030 A 
ATOM     14  C   UNL d   1      23.314 -16.432  -0.809  0.00  0.00     0.032 A 
ATOM     15  C   UNL d   1      22.007 -16.928  -0.895  0.00  0.00     0.038 A 
ATOM     16  C   UNL d   1      21.792 -18.304  -0.812  0.00  0.00     0.103 A 
ATOM     17  C   UNL d   1      22.872 -19.167  -0.606  0.00  0.00     0.038 A 
ATOM     18  C   UNL d   1      24.175 -18.646  -0.495  0.00  0.00     0.032 A 
BRANCH  16  19
ATOM     19  N   UNL d   1      20.435 -18.842  -0.998  0.00  0.00    -0.116 N 
ATOM     20  O   UNL d   1      20.322 -19.927  -1.585  0.00  0.00    -0.532 OA
ATOM     21  O   UNL d   1      19.488 -18.190  -0.536  0.00  0.00    -0.532 OA
ENDBRANCH  16  19
ENDBRANCH  10  13
ENDBRANCH   5   7
BRANCH   4  22
ATOM     22  N   UNL d   1      30.365 -16.972  -3.517  0.00  0.00    -0.113 N 
ATOM     23  O   UNL d   1      30.902 -18.040  -3.831  0.00  0.00    -0.532 OA
ATOM     24  O   UNL d   1      29.575 -16.375  -4.262  0.00  0.00    -0.532 OA
ENDBRANCH   4  22
BRANCH   1  25
ATOM     25  N   UNL d   1      32.072 -14.877   1.501  0.00  0.00    -0.388 N 
ATOM     26  H   UNL d   1      32.952 -15.289   1.810  0.00  0.00     0.159 HD
BRANCH  25  27
ATOM     27  C   UNL d   1      31.560 -13.661   2.097  0.00  0.00     0.147 C 
BRANCH  27  28
ATOM     28  C   UNL d   1      30.513 -13.957   3.182  0.00  0.00     0.249 C 
BRANCH  28  29
ATOM     29  N   UNL d   1      31.000 -15.024   4.098  0.00  0.00    -0.078 N 
ATOM     30  H   UNL d   1      31.033 -14.690   5.071  0.00  0.00     0.274 HD
ATOM     31  H   UNL d   1      31.951 -15.330   3.849  0.00  0.00     0.274 HD
ATOM     32  H   UNL d   1      30.388 -15.852   4.082  0.00  0.00     0.274 HD
ENDBRANCH  28  29
ENDBRANCH  27  28
ENDBRANCH  25  27
ENDBRANCH   1  25
TORSDOF 8
ENDMDL
MODEL 4
REMARK VINA RESULT:    -7.887      6.096      8.182
REMARK INTER + INTRA:         -11.413
REMARK INTER:                 -10.274
REMARK INTRA:                  -1.139
REMARK CONF_INDEPENDENT:        2.386
REMARK UNBOUND:                -1.139
REMARK  8 active torsions:
REMARK  status: ('A' for Active; 'I' for Inactive)
REMARK    1  A    between atoms: N_1  and  C_2 
REMARK    2  A    between atoms: C_2  and  C_3 
REMARK    3  A    between atoms: C_3  and  N_4 
REMARK    4  A    between atoms: N_4  and  C_5 
REMARK    5  A    between atoms: C_8  and  N_9 
REMARK    6  A    between atoms: C_12  and  N_13 
REMARK    7  A    between atoms: N_16  and  C_17 
REMARK    8  A    between atoms: C_20  and  N_21 
ROOT
ATOM      1  C   UNL d   1      29.591 -12.063   5.369  0.00  0.00     0.030 A 
ATOM      2  C   UNL d   1      29.029 -10.922   5.930  0.00  0.00     0.031 A 
ATOM      3  C   UNL d   1      28.106 -10.158   5.214  0.00  0.00     0.040 A 
ATOM      4  C   UNL d   1      27.770 -10.474   3.876  0.00  0.00     0.129 A 
ATOM      5  C   UNL d   1      28.308 -11.626   3.268  0.00  0.00     0.066 A 
ATOM      6  C   UNL d   1      29.228 -12.383   4.051  0.00  0.00     0.061 A 
ENDROOT
BRANCH   5   7
ATOM      7  N   UNL d   1      28.050 -12.107   2.002  0.00  0.00    -0.376 N 
ATOM      8  C   UNL d   1      27.471 -13.431   1.715  0.00  0.00     0.143 C 
ATOM      9  C   UNL d   1      26.278 -13.272   0.745  0.00  0.00     0.143 C 
ATOM     10  N   UNL d   1      26.655 -12.507  -0.470  0.00  0.00    -0.378 N 
ATOM     11  C   UNL d   1      27.406 -11.262  -0.223  0.00  0.00     0.143 C 
ATOM     12  C   UNL d   1      28.562 -11.434   0.793  0.00  0.00     0.143 C 
BRANCH  10  13
ATOM     13  C   UNL d   1      26.634 -13.166  -1.686  0.00  0.00     0.030 A 
ATOM     14  C   UNL d   1      27.185 -14.457  -1.779  0.00  0.00     0.032 A 
ATOM     15  C   UNL d   1      27.310 -15.128  -3.002  0.00  0.00     0.038 A 
ATOM     16  C   UNL d   1      26.804 -14.539  -4.160  0.00  0.00     0.103 A 
ATOM     17  C   UNL d   1      26.215 -13.272  -4.097  0.00  0.00     0.038 A 
ATOM     18  C   UNL d   1      26.124 -12.601  -2.863  0.00  0.00     0.032 A 
BRANCH  16  19
ATOM     19  N   UNL d   1      26.843 -15.278  -5.431  0.00  0.00    -0.116 N 
ATOM     20  O   UNL d   1      27.877 -15.202  -6.110  0.00  0.00    -0.532 OA
ATOM     21  O   UNL d   1      25.849 -15.952  -5.738  0.00  0.00    -0.532 OA
ENDBRANCH  16  19
ENDBRANCH  10  13
ENDBRANCH   5   7
BRANCH   4  22
ATOM     22  N   UNL d   1      26.840  -9.532   3.212  0.00  0.00    -0.113 N 
ATOM     23  O   UNL d   1      26.947  -8.334   3.496  0.00  0.00    -0.532 OA
ATOM     24  O   UNL d   1      26.011  -9.956   2.394  0.00  0.00    -0.532 OA
ENDBRANCH   4  22
BRANCH   1  25
ATOM     25  N   UNL d   1      30.484 -12.802   6.131  0.00  0.00    -0.388 N 
ATOM     26  H   UNL d   1      31.332 -12.304   6.396  0.00  0.00     0.159 HD
BRANCH  25  27
ATOM     27  C   UNL d   1      30.115 -14.050   6.764  0.00  0.00     0.147 C 
BRANCH  27  28
ATOM     28  C   UNL d   1      29.353 -14.973   5.801  0.00  0.00     0.249 C 
BRANCH  28  29
ATOM     29  N   UNL d   1      30.250 -15.442   4.711  0.00  0.00    -0.078 N 
ATOM     30  H   UNL d   1      31.180 -15.006   4.783  0.00  0.00     0.274 HD
ATOM     31  H   UNL d   1      29.874 -15.201   3.783  0.00  0.00     0.274 HD
ATOM     32  H   UNL d   1      30.389 -16.461   4.740  0.00  0.00     0.274 HD
ENDBRANCH  28  29
ENDBRANCH  27  28
ENDBRANCH  25  27
ENDBRANCH   1  25
TORSDOF 8
ENDMDL
MODEL 5
REMARK VINA RESULT:    -7.750      2.442      3.791
REMARK INTER + INTRA:         -11.303
REMARK INTER:                 -10.136
REMARK INTRA:                  -1.167
REMARK CONF_INDEPENDENT:        2.386
REMARK UNBOUND:                -1.167
REMARK  8 active torsions:
REMARK  status: ('A' for Active; 'I' for Inactive)
REMARK    1  A    between atoms: N_1  and  C_2 
REMARK    2  A    between atoms: C_2  and  C_3 
REMARK    3  A    between atoms: C_3  and  N_4 
REMARK    4  A    between atoms: N_4  and  C_5 
REMARK    5  A    between atoms: C_8  and  N_9 
REMARK    6  A    between atoms: C_12  and  N_13 
REMARK    7  A    between atoms: N_16  and  C_17 
REMARK    8  A    between atoms: C_20  and  N_21 
ROOT
ATOM      1  C   UNL d   1      30.336 -13.753   2.600  0.00  0.00     0.030 A 
ATOM      2  C   UNL d   1      31.027 -12.989   1.667  0.00  0.00     0.031 A 
ATOM      3  C   UNL d   1      30.571 -12.891   0.351  0.00  0.00     0.040 A 
ATOM      4  C   UNL d   1      29.442 -13.619  -0.092  0.00  0.00     0.129 A 
ATOM      5  C   UNL d   1      28.704 -14.400   0.821  0.00  0.00     0.066 A 
ATOM      6  C   UNL d   1      29.200 -14.448   2.157  0.00  0.00     0.061 A 
ENDROOT
BRANCH   5   7
ATOM      7  N   UNL d   1      27.558 -15.126   0.573  0.00  0.00    -0.376 N 
ATOM      8  C   UNL d   1      26.285 -14.543   0.114  0.00  0.00     0.143 C 
ATOM      9  C   UNL d   1      25.774 -15.327  -1.116  0.00  0.00     0.143 C 
ATOM     10  N   UNL d   1      25.702 -16.786  -0.848  0.00  0.00    -0.378 N 
ATOM     11  C   UNL d   1      26.899 -17.368  -0.211  0.00  0.00     0.143 C 
ATOM     12  C   UNL d   1      27.425 -16.536   0.984  0.00  0.00     0.143 C 
BRANCH  10  13
ATOM     13  C   UNL d   1      24.456 -17.386  -0.842  0.00  0.00     0.030 A 
ATOM     14  C   UNL d   1      23.310 -16.591  -1.016  0.00  0.00     0.032 A 
ATOM     15  C   UNL d   1      22.015 -17.112  -0.895  0.00  0.00     0.038 A 
ATOM     16  C   UNL d   1      21.847 -18.478  -0.671  0.00  0.00     0.103 A 
ATOM     17  C   UNL d   1      22.966 -19.304  -0.530  0.00  0.00     0.038 A 
ATOM     18  C   UNL d   1      24.259 -18.756  -0.628  0.00  0.00     0.032 A 
BRANCH  16  19
ATOM     19  N   UNL d   1      20.492 -19.051  -0.639  0.00  0.00    -0.116 N 
ATOM     20  O   UNL d   1      20.245 -19.990  -1.409  0.00  0.00    -0.532 OA
ATOM     21  O   UNL d   1      19.684 -18.576   0.172  0.00  0.00    -0.532 OA
ENDBRANCH  16  19
ENDBRANCH  10  13
ENDBRANCH   5   7
BRANCH   4  22
ATOM     22  N   UNL d   1      29.118 -13.483  -1.531  0.00  0.00    -0.113 N 
ATOM     23  O   UNL d   1      29.379 -12.402  -2.071  0.00  0.00    -0.532 OA
ATOM     24  O   UNL d   1      28.625 -14.438  -2.147  0.00  0.00    -0.532 OA
ENDBRANCH   4  22
BRANCH   1  25
ATOM     25  N   UNL d   1      30.816 -13.798   3.902  0.00  0.00    -0.388 N 
ATOM     26  H   UNL d   1      31.813 -13.994   3.981  0.00  0.00     0.159 HD
BRANCH  25  27
ATOM     27  C   UNL d   1      30.054 -13.300   5.026  0.00  0.00     0.147 C 
BRANCH  27  28
ATOM     28  C   UNL d   1      28.785 -14.132   5.267  0.00  0.00     0.249 C 
BRANCH  28  29
ATOM     29  N   UNL d   1      29.052 -15.573   5.011  0.00  0.00    -0.078 N 
ATOM     30  H   UNL d   1      29.993 -15.712   4.616  0.00  0.00     0.274 HD
ATOM     31  H   UNL d   1      28.379 -15.967   4.337  0.00  0.00     0.274 HD
ATOM     32  H   UNL d   1      28.999 -16.133   5.873  0.00  0.00     0.274 HD
ENDBRANCH  28  29
ENDBRANCH  27  28
ENDBRANCH  25  27
ENDBRANCH   1  25
TORSDOF 8
ENDMDL
MODEL 6
REMARK VINA RESULT:    -7.706      5.822      8.246
REMARK INTER + INTRA:         -11.107
REMARK INTER:                 -10.092
REMARK INTRA:                  -1.015
REMARK CONF_INDEPENDENT:        2.386
REMARK UNBOUND:                -1.015
REMARK  8 active torsions:
REMARK  status: ('A' for Active; 'I' for Inactive)
REMARK    1  A    between atoms: N_1  and  C_2 
REMARK    2  A    between atoms: C_2  and  C_3 
REMARK    3  A    between atoms: C_3  and  N_4 
REMARK    4  A    between atoms: N_4  and  C_5 
REMARK    5  A    between atoms: C_8  and  N_9 
REMARK    6  A    between atoms: C_12  and  N_13 
REMARK    7  A    between atoms: N_16  and  C_17 
REMARK    8  A    between atoms: C_20  and  N_21 
ROOT
ATOM      1  C   UNL d   1      29.802 -12.197   5.579  0.00  0.00     0.030 A 
ATOM      2  C   UNL d   1      29.216 -11.094   6.189  0.00  0.00     0.031 A 
ATOM      3  C   UNL d   1      28.224 -10.363   5.532  0.00  0.00     0.040 A 
ATOM      4  C   UNL d   1      27.838 -10.672   4.207  0.00  0.00     0.129 A 
ATOM      5  C   UNL d   1      28.399 -11.787   3.552  0.00  0.00     0.066 A 
ATOM      6  C   UNL d   1      29.390 -12.513   4.275  0.00  0.00     0.061 A 
ENDROOT
BRANCH   5   7
ATOM      7  N   UNL d   1      28.101 -12.259   2.290  0.00  0.00    -0.376 N 
ATOM      8  C   UNL d   1      27.497 -13.573   2.013  0.00  0.00     0.143 C 
ATOM      9  C   UNL d   1      26.281 -13.392   1.075  0.00  0.00     0.143 C 
ATOM     10  N   UNL d   1      26.638 -12.628  -0.147  0.00  0.00    -0.378 N 
ATOM     11  C   UNL d   1      27.413 -11.395   0.086  0.00  0.00     0.143 C 
ATOM     12  C   UNL d   1      28.591 -11.587   1.072  0.00  0.00     0.143 C 
BRANCH  10  13
ATOM     13  C   UNL d   1      26.576 -13.281  -1.364  0.00  0.00     0.030 A 
ATOM     14  C   UNL d   1      26.647 -14.685  -1.396  0.00  0.00     0.032 A 
ATOM     15  C   UNL d   1      26.717 -15.402  -2.598  0.00  0.00     0.038 A 
ATOM     16  C   UNL d   1      26.636 -14.714  -3.809  0.00  0.00     0.103 A 
ATOM     17  C   UNL d   1      26.526 -13.320  -3.813  0.00  0.00     0.038 A 
ATOM     18  C   UNL d   1      26.485 -12.616  -2.594  0.00  0.00     0.032 A 
BRANCH  16  19
ATOM     19  N   UNL d   1      26.610 -15.466  -5.073  0.00  0.00    -0.116 N 
ATOM     20  O   UNL d   1      25.528 -15.951  -5.433  0.00  0.00    -0.532 OA
ATOM     21  O   UNL d   1      27.667 -15.550  -5.715  0.00  0.00    -0.532 OA
ENDBRANCH  16  19
ENDBRANCH  10  13
ENDBRANCH   5   7
BRANCH   4  22
ATOM     22  N   UNL d   1      26.834  -9.765   3.606  0.00  0.00    -0.113 N 
ATOM     23  O   UNL d   1      26.880  -8.573   3.930  0.00  0.00    -0.532 OA
ATOM     24  O   UNL d   1      26.005 -10.208   2.799  0.00  0.00    -0.532 OA
ENDBRANCH   4  22
BRANCH   1  25
ATOM     25  N   UNL d   1      30.766 -12.906   6.283  0.00  0.00    -0.388 N 
ATOM     26  H   UNL d   1      31.663 -12.992   5.807  0.00  0.00     0.159 HD
BRANCH  25  27
ATOM     27  C   UNL d   1      30.625 -13.219   7.689  0.00  0.00     0.147 C 
BRANCH  27  28
ATOM     28  C   UNL d   1      31.835 -12.733   8.502  0.00  0.00     0.249 C 
BRANCH  28  29
ATOM     29  N   UNL d   1      33.094 -12.944   7.738  0.00  0.00    -0.078 N 
ATOM     30  H   UNL d   1      33.524 -13.850   7.974  0.00  0.00     0.274 HD
ATOM     31  H   UNL d   1      33.790 -12.215   7.949  0.00  0.00     0.274 HD
ATOM     32  H   UNL d   1      32.932 -12.941   6.722  0.00  0.00     0.274 HD
ENDBRANCH  28  29
ENDBRANCH  27  28
ENDBRANCH  25  27
ENDBRANCH   1  25
TORSDOF 8
ENDMDL
MODEL 7
REMARK VINA RESULT:    -7.483      5.870      8.358
REMARK INTER + INTRA:         -10.794
REMARK INTER:                  -9.869
REMARK INTRA:                  -0.924
REMARK CONF_INDEPENDENT:        2.386
REMARK UNBOUND:                -0.924
REMARK  8 active torsions:
REMARK  status: ('A' for Active; 'I' for Inactive)
REMARK    1  A    between atoms: N_1  and  C_2 
REMARK    2  A    between atoms: C_2  and  C_3 
REMARK    3  A    between atoms: C_3  and  N_4 
REMARK    4  A    between atoms: N_4  and  C_5 
REMARK    5  A    between atoms: C_8  and  N_9 
REMARK    6  A    between atoms: C_12  and  N_13 
REMARK    7  A    between atoms: N_16  and  C_17 
REMARK    8  A    between atoms: C_20  and  N_21 
ROOT
ATOM      1  C   UNL d   1      29.883 -11.549   5.669  0.00  0.00     0.030 A 
ATOM      2  C   UNL d   1      29.312 -10.393   6.187  0.00  0.00     0.031 A 
ATOM      3  C   UNL d   1      28.290  -9.735   5.500  0.00  0.00     0.040 A 
ATOM      4  C   UNL d   1      27.856 -10.176   4.228  0.00  0.00     0.129 A 
ATOM      5  C   UNL d   1      28.400 -11.349   3.666  0.00  0.00     0.066 A 
ATOM      6  C   UNL d   1      29.424 -11.995   4.419  0.00  0.00     0.061 A 
ENDROOT
BRANCH   5   7
ATOM      7  N   UNL d   1      28.058 -11.946   2.471  0.00  0.00    -0.376 N 
ATOM      8  C   UNL d   1      28.764 -11.725   1.197  0.00  0.00     0.143 C 
ATOM      9  C   UNL d   1      29.112 -13.089   0.558  0.00  0.00     0.143 C 
ATOM     10  N   UNL d   1      27.916 -13.960   0.437  0.00  0.00    -0.378 N 
ATOM     11  C   UNL d   1      27.079 -14.054   1.648  0.00  0.00     0.143 C 
ATOM     12  C   UNL d   1      26.790 -12.680   2.302  0.00  0.00     0.143 C 
BRANCH  10  13
ATOM     13  C   UNL d   1      27.473 -14.285  -0.833  0.00  0.00     0.030 A 
ATOM     14  C   UNL d   1      27.967 -15.444  -1.458  0.00  0.00     0.032 A 
ATOM     15  C   UNL d   1      27.659 -15.764  -2.787  0.00  0.00     0.038 A 
ATOM     16  C   UNL d   1      26.773 -14.953  -3.497  0.00  0.00     0.103 A 
ATOM     17  C   UNL d   1      26.234 -13.814  -2.892  0.00  0.00     0.038 A 
ATOM     18  C   UNL d   1      26.577 -13.495  -1.565  0.00  0.00     0.032 A 
BRANCH  16  19
ATOM     19  N   UNL d   1      26.369 -15.334  -4.859  0.00  0.00    -0.116 N 
ATOM     20  O   UNL d   1      27.266 -15.574  -5.680  0.00  0.00    -0.532 OA
ATOM     21  O   UNL d   1      25.156 -15.416  -5.099  0.00  0.00    -0.532 OA
ENDBRANCH  16  19
ENDBRANCH  10  13
ENDBRANCH   5   7
BRANCH   4  22
ATOM     22  N   UNL d   1      26.823  -9.338   3.579  0.00  0.00    -0.113 N 
ATOM     23  O   UNL d   1      25.811  -9.909   3.158  0.00  0.00    -0.532 OA
ATOM     24  O   UNL d   1      26.985  -8.112   3.493  0.00  0.00    -0.532 OA
ENDBRANCH   4  22
BRANCH   1  25
ATOM     25  N   UNL d   1      30.878 -12.181   6.402  0.00  0.00    -0.388 N 
ATOM     26  H   UNL d   1      31.696 -12.455   5.861  0.00  0.00     0.159 HD
BRANCH  25  27
ATOM     27  C   UNL d   1      30.902 -12.166   7.849  0.00  0.00     0.147 C 
BRANCH  27  28
ATOM     28  C   UNL d   1      31.939 -13.151   8.410  0.00  0.00     0.249 C 
BRANCH  28  29
ATOM     29  N   UNL d   1      33.258 -12.948   7.752  0.00  0.00    -0.078 N 
ATOM     30  H   UNL d   1      33.908 -13.713   7.981  0.00  0.00     0.274 HD
ATOM     31  H   UNL d   1      33.701 -12.071   8.058  0.00  0.00     0.274 HD
ATOM     32  H   UNL d   1      33.175 -12.918   6.726  0.00  0.00     0.274 HD
ENDBRANCH  28  29
ENDBRANCH  27  28
ENDBRANCH  25  27
ENDBRANCH   1  25
TORSDOF 8
ENDMDL
MODEL 8
REMARK VINA RESULT:    -7.421      2.924      4.232
REMARK INTER + INTRA:         -10.913
REMARK INTER:                  -9.807
REMARK INTRA:                  -1.105
REMARK CONF_INDEPENDENT:        2.386
REMARK UNBOUND:                -1.105
REMARK  8 active torsions:
REMARK  status: ('A' for Active; 'I' for Inactive)
REMARK    1  A    between atoms: N_1  and  C_2 
REMARK    2  A    between atoms: C_2  and  C_3 
REMARK    3  A    between atoms: C_3  and  N_4 
REMARK    4  A    between atoms: N_4  and  C_5 
REMARK    5  A    between atoms: C_8  and  N_9 
REMARK    6  A    between atoms: C_12  and  N_13 
REMARK    7  A    between atoms: N_16  and  C_17 
REMARK    8  A    between atoms: C_20  and  N_21 
ROOT
ATOM      1  C   UNL d   1      31.153 -14.162   0.296  0.00  0.00     0.030 A 
ATOM      2  C   UNL d   1      31.261 -13.106   1.194  0.00  0.00     0.031 A 
ATOM      3  C   UNL d   1      30.150 -12.677   1.924  0.00  0.00     0.040 A 
ATOM      4  C   UNL d   1      28.871 -13.247   1.719  0.00  0.00     0.129 A 
ATOM      5  C   UNL d   1      28.715 -14.326   0.825  0.00  0.00     0.066 A 
ATOM      6  C   UNL d   1      29.885 -14.740   0.124  0.00  0.00     0.061 A 
ENDROOT
BRANCH   5   7
ATOM      7  N   UNL d   1      27.561 -15.028   0.548  0.00  0.00    -0.376 N 
ATOM      8  C   UNL d   1      26.306 -14.418   0.079  0.00  0.00     0.143 C 
ATOM      9  C   UNL d   1      25.802 -15.173  -1.173  0.00  0.00     0.143 C 
ATOM     10  N   UNL d   1      25.703 -16.635  -0.930  0.00  0.00    -0.378 N 
ATOM     11  C   UNL d   1      26.879 -17.247  -0.284  0.00  0.00     0.143 C 
ATOM     12  C   UNL d   1      27.400 -16.443   0.933  0.00  0.00     0.143 C 
BRANCH  10  13
ATOM     13  C   UNL d   1      24.448 -17.215  -0.953  0.00  0.00     0.030 A 
ATOM     14  C   UNL d   1      23.310 -16.389  -0.997  0.00  0.00     0.032 A 
ATOM     15  C   UNL d   1      22.011 -16.904  -0.895  0.00  0.00     0.038 A 
ATOM     16  C   UNL d   1      21.826 -18.285  -0.827  0.00  0.00     0.103 A 
ATOM     17  C   UNL d   1      22.935 -19.136  -0.820  0.00  0.00     0.038 A 
ATOM     18  C   UNL d   1      24.234 -18.598  -0.895  0.00  0.00     0.032 A 
BRANCH  16  19
ATOM     19  N   UNL d   1      20.464 -18.838  -0.818  0.00  0.00    -0.116 N 
ATOM     20  O   UNL d   1      20.343 -20.072  -0.807  0.00  0.00    -0.532 OA
ATOM     21  O   UNL d   1      19.516 -18.039  -0.799  0.00  0.00    -0.532 OA
ENDBRANCH  16  19
ENDBRANCH  10  13
ENDBRANCH   5   7
BRANCH   4  22
ATOM     22  N   UNL d   1      27.770 -12.641   2.501  0.00  0.00    -0.113 N 
ATOM     23  O   UNL d   1      27.503 -11.455   2.280  0.00  0.00    -0.532 OA
ATOM     24  O   UNL d   1      27.145 -13.327   3.323  0.00  0.00    -0.532 OA
ENDBRANCH   4  22
BRANCH   1  25
ATOM     25  N   UNL d   1      32.292 -14.568  -0.385  0.00  0.00    -0.388 N 
ATOM     26  H   UNL d   1      32.896 -13.808  -0.696  0.00  0.00     0.159 HD
BRANCH  25  27
ATOM     27  C   UNL d   1      32.751 -15.940  -0.379  0.00  0.00     0.147 C 
BRANCH  27  28
ATOM     28  C   UNL d   1      32.846 -16.501   1.048  0.00  0.00     0.249 C 
BRANCH  28  29
ATOM     29  N   UNL d   1      31.530 -17.041   1.484  0.00  0.00    -0.078 N 
ATOM     30  H   UNL d   1      31.240 -17.833   0.894  0.00  0.00     0.274 HD
ATOM     31  H   UNL d   1      30.790 -16.327   1.419  0.00  0.00     0.274 HD
ATOM     32  H   UNL d   1      31.556 -17.379   2.455  0.00  0.00     0.274 HD
ENDBRANCH  28  29
ENDBRANCH  27  28
ENDBRANCH  25  27
ENDBRANCH   1  25
TORSDOF 8
ENDMDL
