MODEL 1
REMARK VINA RESULT:    -6.623      0.000      0.000
REMARK INTER + INTRA:          -9.958
REMARK INTER:                  -7.816
REMARK INTRA:                  -2.142
REMARK CONF_INDEPENDENT:        1.193
REMARK UNBOUND:                -2.142
REMARK  4 active torsions:
REMARK  status: ('A' for Active; 'I' for Inactive)
REMARK    1  A    between atoms: C_6  and  N_7 
REMARK    2  A    between atoms: N_7  and  N_8 
REMARK       I    between atoms: N_8  and  C_9 
REMARK    3  A    between atoms: C_9  and  C_11 
REMARK    4  A    between atoms: C_17  and  O_18 
ROOT
ATOM      1  N   UNL d   1      25.357 -15.491  -3.695  0.00  0.00    -0.187 NA
ATOM      2  C   UNL d   1      25.155 -14.225  -4.241  0.00  0.00     0.247 C 
ATOM      3  O   UNL d   1      24.038 -13.700  -4.191  0.00  0.00    -0.273 OA
ATOM      4  H   UNL d   1      24.476 -15.906  -3.416  0.00  0.00     0.150 HD
ENDROOT
BRANCH   1   5
ATOM      5  N   UNL d   1      26.336 -15.600  -2.635  0.00  0.00    -0.220 NA
ATOM      6  H   UNL d   1      27.260 -15.806  -3.028  0.00  0.00     0.147 HD
BRANCH   5   7
ATOM      7  C   UNL d   1      26.036 -16.589  -1.646  0.00  0.00     0.023 A 
ATOM      8  C   UNL d   1      27.006 -16.921  -0.681  0.00  0.00     0.025 A 
ATOM      9  C   UNL d   1      26.686 -17.726   0.423  0.00  0.00     0.002 A 
ATOM     10  C   UNL d   1      25.387 -18.200   0.590  0.00  0.00     0.007 A 
ATOM     11  C   UNL d   1      24.412 -17.899  -0.363  0.00  0.00    -0.060 A 
ATOM     12  C   UNL d   1      22.995 -18.359  -0.205  0.00  0.00     0.048 C 
ATOM     13  C   UNL d   1      24.748 -17.105  -1.471  0.00  0.00     0.031 A 
ENDBRANCH   5   7
ENDBRANCH   1   5
BRANCH   2  14
ATOM     14  C   UNL d   1      26.258 -13.565  -5.015  0.00  0.00     0.060 A 
ATOM     15  C   UNL d   1      26.110 -12.214  -5.392  0.00  0.00     0.020 A 
ATOM     16  C   UNL d   1      27.083 -11.581  -6.179  0.00  0.00     0.008 A 
ATOM     17  C   UNL d   1      28.220 -12.280  -6.594  0.00  0.00    -0.059 A 
ATOM     18  C   UNL d   1      29.275 -11.645  -7.448  0.00  0.00     0.048 C 
ATOM     19  C   UNL d   1      28.371 -13.617  -6.223  0.00  0.00     0.044 A 
ATOM     20  C   UNL d   1      27.394 -14.252  -5.465  0.00  0.00     0.081 A 
BRANCH  20  21
ATOM     21  O   UNL d   1      27.578 -15.575  -5.192  0.00  0.00    -0.360 OA
ATOM     22  H   UNL d   1      26.863 -15.944  -4.654  0.00  0.00     0.217 HD
ENDBRANCH  20  21
ENDBRANCH   2  14
TORSDOF 4
ENDMDL
MODEL 2
REMARK VINA RESULT:    -6.355      1.399      2.462
REMARK INTER + INTRA:          -9.672
REMARK INTER:                  -7.549
REMARK INTRA:                  -2.123
REMARK CONF_INDEPENDENT:        1.193
REMARK UNBOUND:                -2.123
REMARK  4 active torsions:
REMARK  status: ('A' for Active; 'I' for Inactive)
REMARK    1  A    between atoms: C_6  and  N_7 
REMARK    2  A    between atoms: N_7  and  N_8 
REMARK       I    between atoms: N_8  and  C_9 
REMARK    3  A    between atoms: C_9  and  C_11 
REMARK    4  A    between atoms: C_17  and  O_18 
ROOT
ATOM      1  N   UNL d   1      26.607 -15.469  -3.469  0.00  0.00    -0.187 NA
ATOM      2  C   UNL d   1      26.764 -14.711  -4.628  0.00  0.00     0.247 C 
ATOM      3  O   UNL d   1      27.320 -15.200  -5.617  0.00  0.00    -0.273 OA
ATOM      4  H   UNL d   1      27.113 -16.344  -3.541  0.00  0.00     0.150 HD
ENDROOT
BRANCH   1   5
ATOM      5  N   UNL d   1      25.253 -15.693  -3.010  0.00  0.00    -0.220 NA
ATOM      6  H   UNL d   1      24.838 -14.811  -2.692  0.00  0.00     0.147 HD
BRANCH   5   7
ATOM      7  C   UNL d   1      25.132 -16.654  -1.957  0.00  0.00     0.023 A 
ATOM      8  C   UNL d   1      26.208 -16.849  -1.070  0.00  0.00     0.025 A 
ATOM      9  C   UNL d   1      26.060 -17.622   0.092  0.00  0.00     0.002 A 
ATOM     10  C   UNL d   1      24.830 -18.200   0.395  0.00  0.00     0.007 A 
ATOM     11  C   UNL d   1      23.753 -18.036  -0.478  0.00  0.00    -0.060 A 
ATOM     12  C   UNL d   1      22.404 -18.612  -0.174  0.00  0.00     0.048 C 
ATOM     13  C   UNL d   1      23.917 -17.273  -1.645  0.00  0.00     0.031 A 
ENDBRANCH   5   7
ENDBRANCH   1   5
BRANCH   2  14
ATOM     14  C   UNL d   1      26.387 -13.259  -4.624  0.00  0.00     0.060 A 
ATOM     15  C   UNL d   1      26.655 -12.483  -5.770  0.00  0.00     0.020 A 
ATOM     16  C   UNL d   1      26.386 -11.106  -5.781  0.00  0.00     0.008 A 
ATOM     17  C   UNL d   1      25.838 -10.486  -4.655  0.00  0.00    -0.059 A 
ATOM     18  C   UNL d   1      25.551  -9.016  -4.620  0.00  0.00     0.048 C 
ATOM     19  C   UNL d   1      25.571 -11.250  -3.518  0.00  0.00     0.044 A 
ATOM     20  C   UNL d   1      25.862 -12.609  -3.498  0.00  0.00     0.081 A 
BRANCH  20  21
ATOM     21  O   UNL d   1      25.632 -13.279  -2.334  0.00  0.00    -0.360 OA
ATOM     22  H   UNL d   1      26.264 -13.997  -2.190  0.00  0.00     0.217 HD
ENDBRANCH  20  21
ENDBRANCH   2  14
TORSDOF 4
ENDMDL
MODEL 3
REMARK VINA RESULT:    -6.083      3.206      6.706
REMARK INTER + INTRA:          -9.039
REMARK INTER:                  -7.276
REMARK INTRA:                  -1.763
REMARK CONF_INDEPENDENT:        1.193
REMARK UNBOUND:                -1.763
REMARK  4 active torsions:
REMARK  status: ('A' for Active; 'I' for Inactive)
REMARK    1  A    between atoms: C_6  and  N_7 
REMARK    2  A    between atoms: N_7  and  N_8 
REMARK       I    between atoms: N_8  and  C_9 
REMARK    3  A    between atoms: C_9  and  C_11 
REMARK    4  A    between atoms: C_17  and  O_18 
ROOT
ATOM      1  N   UNL d   1      28.206 -16.866   0.552  0.00  0.00    -0.187 NA
ATOM      2  C   UNL d   1      27.093 -16.095   0.221  0.00  0.00     0.247 C 
ATOM      3  O   UNL d   1      27.140 -14.865   0.321  0.00  0.00    -0.273 OA
ATOM      4  H   UNL d   1      28.924 -16.294   0.981  0.00  0.00     0.150 HD
ENDROOT
BRANCH   1   5
ATOM      5  N   UNL d   1      28.763 -17.695  -0.495  0.00  0.00    -0.220 NA
ATOM      6  H   UNL d   1      29.581 -18.204  -0.144  0.00  0.00     0.147 HD
BRANCH   5   7
ATOM      7  C   UNL d   1      29.147 -16.985  -1.676  0.00  0.00     0.023 A 
ATOM      8  C   UNL d   1      30.463 -17.107  -2.163  0.00  0.00     0.025 A 
ATOM      9  C   UNL d   1      30.822 -16.599  -3.420  0.00  0.00     0.002 A 
ATOM     10  C   UNL d   1      29.869 -15.976  -4.221  0.00  0.00     0.007 A 
ATOM     11  C   UNL d   1      28.562 -15.827  -3.754  0.00  0.00    -0.060 A 
ATOM     12  C   UNL d   1      27.497 -15.194  -4.596  0.00  0.00     0.048 C 
ATOM     13  C   UNL d   1      28.218 -16.325  -2.488  0.00  0.00     0.031 A 
ENDBRANCH   5   7
ENDBRANCH   1   5
BRANCH   2  14
ATOM     14  C   UNL d   1      25.795 -16.769  -0.116  0.00  0.00     0.060 A 
ATOM     15  C   UNL d   1      24.737 -15.989  -0.625  0.00  0.00     0.020 A 
ATOM     16  C   UNL d   1      23.484 -16.565  -0.884  0.00  0.00     0.008 A 
ATOM     17  C   UNL d   1      23.272 -17.927  -0.648  0.00  0.00    -0.059 A 
ATOM     18  C   UNL d   1      21.945 -18.577  -0.897  0.00  0.00     0.048 C 
ATOM     19  C   UNL d   1      24.317 -18.703  -0.145  0.00  0.00     0.044 A 
ATOM     20  C   UNL d   1      25.550 -18.126   0.136  0.00  0.00     0.081 A 
BRANCH  20  21
ATOM     21  O   UNL d   1      26.505 -18.930   0.684  0.00  0.00    -0.360 OA
ATOM     22  H   UNL d   1      27.374 -18.506   0.710  0.00  0.00     0.217 HD
ENDBRANCH  20  21
ENDBRANCH   2  14
TORSDOF 4
ENDMDL
MODEL 4
REMARK VINA RESULT:    -5.996      5.347      8.215
REMARK INTER + INTRA:          -9.098
REMARK INTER:                  -7.190
REMARK INTRA:                  -1.908
REMARK CONF_INDEPENDENT:        1.193
REMARK UNBOUND:                -1.908
REMARK  4 active torsions:
REMARK  status: ('A' for Active; 'I' for Inactive)
REMARK    1  A    between atoms: C_6  and  N_7 
REMARK    2  A    between atoms: N_7  and  N_8 
REMARK       I    between atoms: N_8  and  C_9 
REMARK    3  A    between atoms: C_9  and  C_11 
REMARK    4  A    between atoms: C_17  and  O_18 
ROOT
ATOM      1  N   UNL d   1      27.930 -14.283   1.514  0.00  0.00    -0.187 NA
ATOM      2  C   UNL d   1      27.404 -13.671   2.650  0.00  0.00     0.247 C 
ATOM      3  O   UNL d   1      26.434 -12.912   2.552  0.00  0.00    -0.273 OA
ATOM      4  H   UNL d   1      27.504 -13.908   0.674  0.00  0.00     0.150 HD
ENDROOT
BRANCH   1   5
ATOM      5  N   UNL d   1      27.933 -15.729   1.490  0.00  0.00    -0.220 NA
ATOM      6  H   UNL d   1      28.887 -16.078   1.354  0.00  0.00     0.147 HD
BRANCH   5   7
ATOM      7  C   UNL d   1      27.094 -16.310   0.487  0.00  0.00     0.023 A 
ATOM      8  C   UNL d   1      26.670 -17.645   0.625  0.00  0.00     0.025 A 
ATOM      9  C   UNL d   1      25.687 -18.186  -0.217  0.00  0.00     0.002 A 
ATOM     10  C   UNL d   1      25.099 -17.397  -1.203  0.00  0.00     0.007 A 
ATOM     11  C   UNL d   1      25.515 -16.075  -1.371  0.00  0.00    -0.060 A 
ATOM     12  C   UNL d   1      24.886 -15.181  -2.395  0.00  0.00     0.048 C 
ATOM     13  C   UNL d   1      26.510 -15.550  -0.532  0.00  0.00     0.031 A 
ENDBRANCH   5   7
ENDBRANCH   1   5
BRANCH   2  14
ATOM     14  C   UNL d   1      28.106 -13.821   3.968  0.00  0.00     0.060 A 
ATOM     15  C   UNL d   1      27.490 -13.309   5.128  0.00  0.00     0.020 A 
ATOM     16  C   UNL d   1      28.144 -13.362   6.368  0.00  0.00     0.008 A 
ATOM     17  C   UNL d   1      29.416 -13.934   6.471  0.00  0.00    -0.059 A 
ATOM     18  C   UNL d   1      30.154 -13.997   7.772  0.00  0.00     0.048 C 
ATOM     19  C   UNL d   1      30.029 -14.442   5.324  0.00  0.00     0.044 A 
ATOM     20  C   UNL d   1      29.392 -14.365   4.091  0.00  0.00     0.081 A 
BRANCH  20  21
ATOM     21  O   UNL d   1      30.076 -14.825   3.006  0.00  0.00    -0.360 OA
ATOM     22  H   UNL d   1      29.534 -15.397   2.443  0.00  0.00     0.217 HD
ENDBRANCH  20  21
ENDBRANCH   2  14
TORSDOF 4
ENDMDL
MODEL 5
REMARK VINA RESULT:    -5.927      1.789      6.861
REMARK INTER + INTRA:          -9.380
REMARK INTER:                  -7.121
REMARK INTRA:                  -2.260
REMARK CONF_INDEPENDENT:        1.193
REMARK UNBOUND:                -2.260
REMARK  4 active torsions:
REMARK  status: ('A' for Active; 'I' for Inactive)
REMARK    1  A    between atoms: C_6  and  N_7 
REMARK    2  A    between atoms: N_7  and  N_8 
REMARK       I    between atoms: N_8  and  C_9 
REMARK    3  A    between atoms: C_9  and  C_11 
REMARK    4  A    between atoms: C_17  and  O_18 
ROOT
ATOM      1  N   UNL d   1      26.428 -14.210  -4.560  0.00  0.00    -0.187 NA
ATOM      2  C   UNL d   1      25.365 -14.609  -3.751  0.00  0.00     0.247 C 
ATOM      3  O   UNL d   1      24.258 -14.075  -3.876  0.00  0.00    -0.273 OA
ATOM      4  H   UNL d   1      26.179 -13.391  -5.102  0.00  0.00     0.150 HD
ENDROOT
BRANCH   1   5
ATOM      5  N   UNL d   1      27.027 -15.224  -5.401  0.00  0.00    -0.220 NA
ATOM      6  H   UNL d   1      27.315 -16.028  -4.835  0.00  0.00     0.147 HD
BRANCH   5   7
ATOM      7  C   UNL d   1      28.156 -14.778  -6.158  0.00  0.00     0.023 A 
ATOM      8  C   UNL d   1      28.234 -13.430  -6.559  0.00  0.00     0.025 A 
ATOM      9  C   UNL d   1      29.410 -12.905  -7.117  0.00  0.00     0.002 A 
ATOM     10  C   UNL d   1      30.533 -13.714  -7.269  0.00  0.00     0.007 A 
ATOM     11  C   UNL d   1      30.475 -15.057  -6.895  0.00  0.00    -0.060 A 
ATOM     12  C   UNL d   1      31.670 -15.954  -7.010  0.00  0.00     0.048 C 
ATOM     13  C   UNL d   1      29.289 -15.575  -6.352  0.00  0.00     0.031 A 
ENDBRANCH   5   7
ENDBRANCH   1   5
BRANCH   2  14
ATOM     14  C   UNL d   1      25.605 -15.581  -2.633  0.00  0.00     0.060 A 
ATOM     15  C   UNL d   1      24.501 -16.052  -1.894  0.00  0.00     0.020 A 
ATOM     16  C   UNL d   1      24.687 -16.904  -0.795  0.00  0.00     0.008 A 
ATOM     17  C   UNL d   1      25.974 -17.305  -0.423  0.00  0.00    -0.059 A 
ATOM     18  C   UNL d   1      26.216 -18.200   0.753  0.00  0.00     0.048 C 
ATOM     19  C   UNL d   1      27.069 -16.840  -1.152  0.00  0.00     0.044 A 
ATOM     20  C   UNL d   1      26.886 -15.975  -2.225  0.00  0.00     0.081 A 
BRANCH  20  21
ATOM     21  O   UNL d   1      28.005 -15.514  -2.852  0.00  0.00    -0.360 OA
ATOM     22  H   UNL d   1      27.801 -14.873  -3.547  0.00  0.00     0.217 HD
ENDBRANCH  20  21
ENDBRANCH   2  14
TORSDOF 4
ENDMDL
MODEL 6
REMARK VINA RESULT:    -5.690      1.847      2.316
REMARK INTER + INTRA:          -8.717
REMARK INTER:                  -6.883
REMARK INTRA:                  -1.834
REMARK CONF_INDEPENDENT:        1.193
REMARK UNBOUND:                -1.834
REMARK  4 active torsions:
REMARK  status: ('A' for Active; 'I' for Inactive)
REMARK    1  A    between atoms: C_6  and  N_7 
REMARK    2  A    between atoms: N_7  and  N_8 
REMARK       I    between atoms: N_8  and  C_9 
REMARK    3  A    between atoms: C_9  and  C_11 
REMARK    4  A    between atoms: C_17  and  O_18 
ROOT
ATOM      1  N   UNL d   1      24.780 -14.556  -3.501  0.00  0.00    -0.187 NA
ATOM      2  C   UNL d   1      25.626 -13.759  -4.270  0.00  0.00     0.247 C 
ATOM      3  O   UNL d   1      25.181 -12.764  -4.851  0.00  0.00    -0.273 OA
ATOM      4  H   UNL d   1      23.814 -14.274  -3.622  0.00  0.00     0.150 HD
ENDROOT
BRANCH   1   5
ATOM      5  N   UNL d   1      25.105 -14.694  -2.098  0.00  0.00    -0.220 NA
ATOM      6  H   UNL d   1      26.073 -14.403  -1.930  0.00  0.00     0.147 HD
BRANCH   5   7
ATOM      7  C   UNL d   1      24.934 -16.014  -1.575  0.00  0.00     0.023 A 
ATOM      8  C   UNL d   1      26.063 -16.748  -1.160  0.00  0.00     0.025 A 
ATOM      9  C   UNL d   1      25.927 -17.953  -0.455  0.00  0.00     0.002 A 
ATOM     10  C   UNL d   1      24.660 -18.438  -0.137  0.00  0.00     0.007 A 
ATOM     11  C   UNL d   1      23.526 -17.738  -0.551  0.00  0.00    -0.060 A 
ATOM     12  C   UNL d   1      22.146 -18.205  -0.202  0.00  0.00     0.048 C 
ATOM     13  C   UNL d   1      23.675 -16.541  -1.270  0.00  0.00     0.031 A 
ENDBRANCH   5   7
ENDBRANCH   1   5
BRANCH   2  14
ATOM     14  C   UNL d   1      27.043 -14.193  -4.508  0.00  0.00     0.060 A 
ATOM     15  C   UNL d   1      27.391 -14.716  -5.770  0.00  0.00     0.020 A 
ATOM     16  C   UNL d   1      28.685 -15.202  -6.012  0.00  0.00     0.008 A 
ATOM     17  C   UNL d   1      29.651 -15.164  -5.002  0.00  0.00    -0.059 A 
ATOM     18  C   UNL d   1      31.039 -15.686  -5.214  0.00  0.00     0.048 C 
ATOM     19  C   UNL d   1      29.311 -14.647  -3.751  0.00  0.00     0.044 A 
ATOM     20  C   UNL d   1      28.022 -14.190  -3.505  0.00  0.00     0.081 A 
BRANCH  20  21
ATOM     21  O   UNL d   1      27.744 -13.756  -2.243  0.00  0.00    -0.360 OA
ATOM     22  H   UNL d   1      26.849 -13.399  -2.164  0.00  0.00     0.217 HD
ENDBRANCH  20  21
ENDBRANCH   2  14
TORSDOF 4
ENDMDL
MODEL 7
REMARK VINA RESULT:    -5.657      2.348      5.947
REMARK INTER + INTRA:          -9.009
REMARK INTER:                  -6.850
REMARK INTRA:                  -2.158
REMARK CONF_INDEPENDENT:        1.193
REMARK UNBOUND:                -2.158
REMARK  4 active torsions:
REMARK  status: ('A' for Active; 'I' for Inactive)
REMARK    1  A    between atoms: C_6  and  N_7 
REMARK    2  A    between atoms: N_7  and  N_8 
REMARK       I    between atoms: N_8  and  C_9 
REMARK    3  A    between atoms: C_9  and  C_11 
REMARK    4  A    between atoms: C_17  and  O_18 
ROOT
ATOM      1  N   UNL d   1      25.155 -15.185  -4.819  0.00  0.00    -0.187 NA
ATOM      2  C   UNL d   1      26.547 -15.234  -4.767  0.00  0.00     0.247 C 
ATOM      3  O   UNL d   1      27.207 -15.211  -5.810  0.00  0.00    -0.273 OA
ATOM      4  H   UNL d   1      24.829 -15.266  -5.775  0.00  0.00     0.150 HD
ENDROOT
BRANCH   1   5
ATOM      5  N   UNL d   1      24.513 -14.075  -4.149  0.00  0.00    -0.220 NA
ATOM      6  H   UNL d   1      23.656 -13.811  -4.645  0.00  0.00     0.147 HD
BRANCH   5   7
ATOM      7  C   UNL d   1      25.331 -12.909  -4.010  0.00  0.00     0.023 A 
ATOM      8  C   UNL d   1      25.904 -12.608  -2.759  0.00  0.00     0.025 A 
ATOM      9  C   UNL d   1      26.871 -11.601  -2.627  0.00  0.00     0.002 A 
ATOM     10  C   UNL d   1      27.296 -10.889  -3.745  0.00  0.00     0.007 A 
ATOM     11  C   UNL d   1      26.732 -11.157  -4.993  0.00  0.00    -0.060 A 
ATOM     12  C   UNL d   1      27.184 -10.438  -6.228  0.00  0.00     0.048 C 
ATOM     13  C   UNL d   1      25.753 -12.156  -5.111  0.00  0.00     0.031 A 
ENDBRANCH   5   7
ENDBRANCH   1   5
BRANCH   2  14
ATOM     14  C   UNL d   1      27.233 -15.463  -3.452  0.00  0.00     0.060 A 
ATOM     15  C   UNL d   1      28.628 -15.275  -3.372  0.00  0.00     0.020 A 
ATOM     16  C   UNL d   1      29.320 -15.548  -2.182  0.00  0.00     0.008 A 
ATOM     17  C   UNL d   1      28.630 -16.004  -1.054  0.00  0.00    -0.059 A 
ATOM     18  C   UNL d   1      29.333 -16.322   0.230  0.00  0.00     0.048 C 
ATOM     19  C   UNL d   1      27.249 -16.192  -1.129  0.00  0.00     0.044 A 
ATOM     20  C   UNL d   1      26.568 -15.946  -2.316  0.00  0.00     0.081 A 
BRANCH  20  21
ATOM     21  O   UNL d   1      25.231 -16.210  -2.334  0.00  0.00    -0.360 OA
ATOM     22  H   UNL d   1      24.727 -15.530  -2.803  0.00  0.00     0.217 HD
ENDBRANCH  20  21
ENDBRANCH   2  14
TORSDOF 4
ENDMDL
MODEL 8
REMARK VINA RESULT:    -5.597      2.324      6.082
REMARK INTER + INTRA:          -8.928
REMARK INTER:                  -6.791
REMARK INTRA:                  -2.137
REMARK CONF_INDEPENDENT:        1.193
REMARK UNBOUND:                -2.137
REMARK  4 active torsions:
REMARK  status: ('A' for Active; 'I' for Inactive)
REMARK    1  A    between atoms: C_6  and  N_7 
REMARK    2  A    between atoms: N_7  and  N_8 
REMARK       I    between atoms: N_8  and  C_9 
REMARK    3  A    between atoms: C_9  and  C_11 
REMARK    4  A    between atoms: C_17  and  O_18 
ROOT
ATOM      1  N   UNL d   1      24.776 -14.449  -4.404  0.00  0.00    -0.187 NA
ATOM      2  C   UNL d   1      25.927 -15.206  -4.191  0.00  0.00     0.247 C 
ATOM      3  O   UNL d   1      26.655 -15.506  -5.143  0.00  0.00    -0.273 OA
ATOM      4  H   UNL d   1      24.599 -14.336  -5.395  0.00  0.00     0.150 HD
ENDROOT
BRANCH   1   5
ATOM      5  N   UNL d   1      24.691 -13.179  -3.716  0.00  0.00    -0.220 NA
ATOM      6  H   UNL d   1      24.196 -12.496  -4.298  0.00  0.00     0.147 HD
BRANCH   5   7
ATOM      7  C   UNL d   1      25.953 -12.621  -3.338  0.00  0.00     0.023 A 
ATOM      8  C   UNL d   1      26.643 -11.791  -4.243  0.00  0.00     0.025 A 
ATOM      9  C   UNL d   1      27.772 -11.061  -3.842  0.00  0.00     0.002 A 
ATOM     10  C   UNL d   1      28.221 -11.134  -2.526  0.00  0.00     0.007 A 
ATOM     11  C   UNL d   1      27.564 -11.963  -1.615  0.00  0.00    -0.060 A 
ATOM     12  C   UNL d   1      27.993 -12.046  -0.182  0.00  0.00     0.048 C 
ATOM     13  C   UNL d   1      26.445 -12.701  -2.032  0.00  0.00     0.031 A 
ENDBRANCH   5   7
ENDBRANCH   1   5
BRANCH   2  14
ATOM     14  C   UNL d   1      26.201 -15.777  -2.831  0.00  0.00     0.060 A 
ATOM     15  C   UNL d   1      27.498 -16.247  -2.540  0.00  0.00     0.020 A 
ATOM     16  C   UNL d   1      27.779 -16.854  -1.307  0.00  0.00     0.008 A 
ATOM     17  C   UNL d   1      26.774 -16.993  -0.344  0.00  0.00    -0.059 A 
ATOM     18  C   UNL d   1      27.028 -17.650   0.978  0.00  0.00     0.048 C 
ATOM     19  C   UNL d   1      25.489 -16.529  -0.628  0.00  0.00     0.044 A 
ATOM     20  C   UNL d   1      25.205 -15.951  -1.860  0.00  0.00     0.081 A 
BRANCH  20  21
ATOM     21  O   UNL d   1      23.915 -15.577  -2.091  0.00  0.00    -0.360 OA
ATOM     22  H   UNL d   1      23.848 -14.868  -2.746  0.00  0.00     0.217 HD
ENDBRANCH  20  21
ENDBRANCH   2  14
TORSDOF 4
ENDMDL
MODEL 9
REMARK VINA RESULT:    -5.552      1.614      7.305
REMARK INTER + INTRA:          -8.631
REMARK INTER:                  -6.745
REMARK INTRA:                  -1.886
REMARK CONF_INDEPENDENT:        1.193
REMARK UNBOUND:                -1.886
REMARK  4 active torsions:
REMARK  status: ('A' for Active; 'I' for Inactive)
REMARK    1  A    between atoms: C_6  and  N_7 
REMARK    2  A    between atoms: N_7  and  N_8 
REMARK       I    between atoms: N_8  and  C_9 
REMARK    3  A    between atoms: C_9  and  C_11 
REMARK    4  A    between atoms: C_17  and  O_18 
ROOT
ATOM      1  N   UNL d   1      26.951 -15.868  -2.585  0.00  0.00    -0.187 NA
ATOM      2  C   UNL d   1      26.597 -15.965  -1.241  0.00  0.00     0.247 C 
ATOM      3  O   UNL d   1      27.378 -15.577  -0.366  0.00  0.00    -0.273 OA
ATOM      4  H   UNL d   1      27.920 -15.586  -2.682  0.00  0.00     0.150 HD
ENDROOT
BRANCH   1   5
ATOM      5  N   UNL d   1      26.094 -15.066  -3.432  0.00  0.00    -0.220 NA
ATOM      6  H   UNL d   1      25.295 -15.622  -3.752  0.00  0.00     0.147 HD
BRANCH   5   7
ATOM      7  C   UNL d   1      26.743 -14.508  -4.578  0.00  0.00     0.023 A 
ATOM      8  C   UNL d   1      26.508 -13.163  -4.922  0.00  0.00     0.025 A 
ATOM      9  C   UNL d   1      27.275 -12.520  -5.905  0.00  0.00     0.002 A 
ATOM     10  C   UNL d   1      28.302 -13.205  -6.550  0.00  0.00     0.007 A 
ATOM     11  C   UNL d   1      28.544 -14.544  -6.239  0.00  0.00    -0.060 A 
ATOM     12  C   UNL d   1      29.660 -15.308  -6.883  0.00  0.00     0.048 C 
ATOM     13  C   UNL d   1      27.759 -15.181  -5.265  0.00  0.00     0.031 A 
ENDBRANCH   5   7
ENDBRANCH   1   5
BRANCH   2  14
ATOM     14  C   UNL d   1      25.333 -16.675  -0.854  0.00  0.00     0.060 A 
ATOM     15  C   UNL d   1      25.421 -17.838  -0.062  0.00  0.00     0.020 A 
ATOM     16  C   UNL d   1      24.271 -18.573   0.260  0.00  0.00     0.008 A 
ATOM     17  C   UNL d   1      23.016 -18.155  -0.194  0.00  0.00    -0.059 A 
ATOM     18  C   UNL d   1      21.766 -18.919   0.115  0.00  0.00     0.048 C 
ATOM     19  C   UNL d   1      22.924 -17.004  -0.978  0.00  0.00     0.044 A 
ATOM     20  C   UNL d   1      24.068 -16.290  -1.319  0.00  0.00     0.081 A 
BRANCH  20  21
ATOM     21  O   UNL d   1      23.909 -15.213  -2.138  0.00  0.00    -0.360 OA
ATOM     22  H   UNL d   1      24.741 -14.934  -2.547  0.00  0.00     0.217 HD
ENDBRANCH  20  21
ENDBRANCH   2  14
TORSDOF 4
ENDMDL
