MODEL 1
REMARK VINA RESULT:    -9.309      0.000      0.000
REMARK INTER + INTRA:         -12.137
REMARK INTER:                 -10.800
REMARK INTRA:                  -1.336
REMARK CONF_INDEPENDENT:        1.492
REMARK UNBOUND:                -1.336
REMARK  5 active torsions:
REMARK  status: ('A' for Active; 'I' for Inactive)
REMARK    1  A    between atoms: C_5  and  N_6 
REMARK       I    between atoms: N_6  and  C_7 
REMARK    2  A    between atoms: C_7  and  C_9 
REMARK    3  A    between atoms: C_9  and  N_10 
REMARK    4  A    between atoms: C_9  and  C_21 
REMARK    5  A    between atoms: N_10  and  C_11 
ROOT
ATOM      1  C   UNL d   1      24.611 -15.621  -1.303  0.00  0.00     0.208 C 
ENDROOT
BRANCH   1   2
ATOM      2  C   UNL d   1      23.370 -16.477  -0.846  0.00  0.00     0.249 C 
ATOM      3  N   UNL d   1      23.160 -17.789  -1.215  0.00  0.00    -0.325 N 
ATOM      4  H   UNL d   1      23.817 -18.261  -1.823  0.00  0.00     0.169 HD
ATOM      5  O   UNL d   1      22.527 -15.952  -0.128  0.00  0.00    -0.270 OA
BRANCH   3   6
ATOM      6  C   UNL d   1      21.995 -18.514  -0.753  0.00  0.00     0.034 A 
ATOM      7  C   UNL d   1      21.802 -18.729   0.608  0.00  0.00     0.030 A 
ATOM      8  C   UNL d   1      20.653 -19.414   1.062  0.00  0.00     0.009 A 
ATOM      9  C   UNL d   1      19.682 -19.894   0.173  0.00  0.00    -0.062 A 
ATOM     10  C   UNL d   1      18.440 -20.602   0.608  0.00  0.00     0.048 C 
ATOM     11  C   UNL d   1      19.869 -19.699  -1.178  0.00  0.00     0.009 A 
ATOM     12  C   UNL d   1      21.000 -19.030  -1.616  0.00  0.00     0.030 A 
ENDBRANCH   3   6
ENDBRANCH   1   2
BRANCH   1  13
ATOM     13  N   UNL d   1      24.378 -15.121  -2.701  0.00  0.00    -0.373 N 
ATOM     14  H   UNL d   1      23.432 -15.204  -3.057  0.00  0.00     0.161 HD
BRANCH  13  15
ATOM     15  C   UNL d   1      25.256 -14.366  -3.464  0.00  0.00     0.029 C 
ATOM     16  C   UNL d   1      25.316 -12.962  -3.353  0.00  0.00     0.030 C 
ATOM     17  C   UNL d   1      25.964 -12.107  -4.249  0.00  0.00     0.012 C 
ATOM     18  C   UNL d   1      26.805 -12.701  -5.143  0.00  0.00    -0.025 A 
ATOM     19  C   UNL d   1      26.906 -14.093  -5.155  0.00  0.00     0.042 A 
ATOM     20  C   UNL d   1      27.758 -12.089  -6.105  0.00  0.00     0.162 A 
ATOM     21  C   UNL d   1      26.134 -14.943  -4.370  0.00  0.00     0.046 C 
ATOM     22  C   UNL d   1      27.960 -14.436  -6.095  0.00  0.00     0.252 A 
ATOM     23  O   UNL d   1      28.330 -15.573  -6.348  0.00  0.00    -0.268 OA
ATOM     24  N   UNL d   1      28.448 -13.258  -6.611  0.00  0.00    -0.353 N 
ATOM     25  H   UNL d   1      29.205 -13.271  -7.280  0.00  0.00     0.163 HD
ENDBRANCH  13  15
ENDBRANCH   1  13
BRANCH   1  26
ATOM     26  C   UNL d   1      25.946 -16.440  -1.154  0.00  0.00    -0.026 C 
ATOM     27  C   UNL d   1      25.973 -17.630  -0.419  0.00  0.00     0.010 C 
ATOM     28  C   UNL d   1      27.190 -18.161   0.048  0.00  0.00     0.001 C 
ATOM     29  C   UNL d   1      28.403 -17.703  -0.445  0.00  0.00     0.000 C 
ATOM     30  C   UNL d   1      28.398 -16.696  -1.378  0.00  0.00     0.001 C 
ATOM     31  C   UNL d   1      27.203 -16.052  -1.669  0.00  0.00     0.010 C 
ENDBRANCH   1  26
TORSDOF 5
ENDMDL
MODEL 2
REMARK VINA RESULT:    -8.962      3.687      6.380
REMARK INTER + INTRA:         -12.017
REMARK INTER:                 -10.454
REMARK INTRA:                  -1.563
REMARK CONF_INDEPENDENT:        1.492
REMARK UNBOUND:                -1.563
REMARK  5 active torsions:
REMARK  status: ('A' for Active; 'I' for Inactive)
REMARK    1  A    between atoms: C_5  and  N_6 
REMARK       I    between atoms: N_6  and  C_7 
REMARK    2  A    between atoms: C_7  and  C_9 
REMARK    3  A    between atoms: C_9  and  N_10 
REMARK    4  A    between atoms: C_9  and  C_21 
REMARK    5  A    between atoms: N_10  and  C_11 
ROOT
ATOM      1  C   UNL d   1      26.554 -17.044  -0.163  0.00  0.00     0.208 C 
ENDROOT
BRANCH   1   2
ATOM      2  C   UNL d   1      26.776 -15.687   0.605  0.00  0.00     0.249 C 
ATOM      3  N   UNL d   1      27.741 -15.496   1.573  0.00  0.00    -0.325 N 
ATOM      4  H   UNL d   1      28.356 -16.255   1.838  0.00  0.00     0.169 HD
ATOM      5  O   UNL d   1      26.046 -14.738   0.344  0.00  0.00    -0.270 OA
BRANCH   3   6
ATOM      6  C   UNL d   1      27.886 -14.217   2.235  0.00  0.00     0.034 A 
ATOM      7  C   UNL d   1      28.129 -13.068   1.489  0.00  0.00     0.030 A 
ATOM      8  C   UNL d   1      28.247 -11.816   2.131  0.00  0.00     0.009 A 
ATOM      9  C   UNL d   1      28.125 -11.687   3.522  0.00  0.00    -0.062 A 
ATOM     10  C   UNL d   1      28.217 -10.381   4.242  0.00  0.00     0.048 C 
ATOM     11  C   UNL d   1      27.898 -12.819   4.273  0.00  0.00     0.009 A 
ATOM     12  C   UNL d   1      27.788 -14.045   3.635  0.00  0.00     0.030 A 
ENDBRANCH   3   6
ENDBRANCH   1   2
BRANCH   1  13
ATOM     13  N   UNL d   1      27.230 -16.969  -1.503  0.00  0.00    -0.373 N 
ATOM     14  H   UNL d   1      27.659 -17.825  -1.840  0.00  0.00     0.161 HD
BRANCH  13  15
ATOM     15  C   UNL d   1      27.141 -15.929  -2.415  0.00  0.00     0.029 C 
ATOM     16  C   UNL d   1      28.287 -15.373  -3.020  0.00  0.00     0.030 C 
ATOM     17  C   UNL d   1      28.323 -14.173  -3.734  0.00  0.00     0.012 C 
ATOM     18  C   UNL d   1      27.115 -13.643  -4.079  0.00  0.00    -0.025 A 
ATOM     19  C   UNL d   1      25.950 -14.277  -3.644  0.00  0.00     0.042 A 
ATOM     20  C   UNL d   1      26.797 -12.491  -4.962  0.00  0.00     0.162 A 
ATOM     21  C   UNL d   1      25.925 -15.381  -2.797  0.00  0.00     0.046 C 
ATOM     22  C   UNL d   1      24.832 -13.587  -4.265  0.00  0.00     0.252 A 
ATOM     23  O   UNL d   1      23.656 -13.887  -4.118  0.00  0.00    -0.268 OA
ATOM     24  N   UNL d   1      25.353 -12.575  -5.038  0.00  0.00    -0.353 N 
ATOM     25  H   UNL d   1      24.740 -11.977  -5.573  0.00  0.00     0.163 HD
ENDBRANCH  13  15
ENDBRANCH   1  13
BRANCH   1  26
ATOM     26  C   UNL d   1      25.023 -17.391  -0.261  0.00  0.00    -0.026 C 
ATOM     27  C   UNL d   1      24.583 -18.714  -0.145  0.00  0.00     0.010 C 
ATOM     28  C   UNL d   1      23.308 -19.093  -0.605  0.00  0.00     0.001 C 
ATOM     29  C   UNL d   1      22.347 -18.139  -0.907  0.00  0.00     0.000 C 
ATOM     30  C   UNL d   1      22.672 -16.811  -0.777  0.00  0.00     0.001 C 
ATOM     31  C   UNL d   1      23.991 -16.462  -0.520  0.00  0.00     0.010 C 
ENDBRANCH   1  26
TORSDOF 5
ENDMDL
MODEL 3
REMARK VINA RESULT:    -8.640      4.092      6.433
REMARK INTER + INTRA:         -11.619
REMARK INTER:                 -10.132
REMARK INTRA:                  -1.487
REMARK CONF_INDEPENDENT:        1.492
REMARK UNBOUND:                -1.487
REMARK  5 active torsions:
REMARK  status: ('A' for Active; 'I' for Inactive)
REMARK    1  A    between atoms: C_5  and  N_6 
REMARK       I    between atoms: N_6  and  C_7 
REMARK    2  A    between atoms: C_7  and  C_9 
REMARK    3  A    between atoms: C_9  and  N_10 
REMARK    4  A    between atoms: C_9  and  C_21 
REMARK    5  A    between atoms: N_10  and  C_11 
ROOT
ATOM      1  C   UNL d   1      27.369 -15.577  -0.382  0.00  0.00     0.208 C 
ENDROOT
BRANCH   1   2
ATOM      2  C   UNL d   1      27.397 -14.766   0.968  0.00  0.00     0.249 C 
ATOM      3  N   UNL d   1      28.155 -15.120   2.065  0.00  0.00    -0.325 N 
ATOM      4  H   UNL d   1      28.733 -15.950   2.041  0.00  0.00     0.169 HD
ATOM      5  O   UNL d   1      26.698 -13.765   1.066  0.00  0.00    -0.270 OA
BRANCH   3   6
ATOM      6  C   UNL d   1      28.130 -14.323   3.273  0.00  0.00     0.034 A 
ATOM      7  C   UNL d   1      28.154 -14.943   4.519  0.00  0.00     0.030 A 
ATOM      8  C   UNL d   1      28.155 -14.167   5.699  0.00  0.00     0.009 A 
ATOM      9  C   UNL d   1      28.131 -12.766   5.659  0.00  0.00    -0.062 A 
ATOM     10  C   UNL d   1      28.155 -11.904   6.879  0.00  0.00     0.048 C 
ATOM     11  C   UNL d   1      28.092 -12.141   4.432  0.00  0.00     0.009 A 
ATOM     12  C   UNL d   1      28.088 -12.910   3.279  0.00  0.00     0.030 A 
ENDBRANCH   3   6
ENDBRANCH   1   2
BRANCH   1  13
ATOM     13  N   UNL d   1      27.469 -14.619  -1.536  0.00  0.00    -0.373 N 
ATOM     14  H   UNL d   1      27.327 -13.638  -1.320  0.00  0.00     0.161 HD
BRANCH  13  15
ATOM     15  C   UNL d   1      27.944 -14.905  -2.806  0.00  0.00     0.029 C 
ATOM     16  C   UNL d   1      28.683 -16.075  -3.077  0.00  0.00     0.030 C 
ATOM     17  C   UNL d   1      29.417 -16.317  -4.240  0.00  0.00     0.012 C 
ATOM     18  C   UNL d   1      29.188 -15.468  -5.282  0.00  0.00    -0.025 A 
ATOM     19  C   UNL d   1      28.313 -14.396  -5.101  0.00  0.00     0.042 A 
ATOM     20  C   UNL d   1      29.663 -15.536  -6.688  0.00  0.00     0.162 A 
ATOM     21  C   UNL d   1      27.713 -14.068  -3.889  0.00  0.00     0.046 C 
ATOM     22  C   UNL d   1      28.153 -13.752  -6.394  0.00  0.00     0.252 A 
ATOM     23  O   UNL d   1      27.442 -12.782  -6.610  0.00  0.00    -0.268 OA
ATOM     24  N   UNL d   1      28.927 -14.447  -7.295  0.00  0.00    -0.353 N 
ATOM     25  H   UNL d   1      28.947 -14.170  -8.267  0.00  0.00     0.163 HD
ENDBRANCH  13  15
ENDBRANCH   1  13
BRANCH   1  26
ATOM     26  C   UNL d   1      26.101 -16.505  -0.456  0.00  0.00    -0.026 C 
ATOM     27  C   UNL d   1      24.944 -16.080  -1.119  0.00  0.00     0.010 C 
ATOM     28  C   UNL d   1      23.704 -16.699  -0.874  0.00  0.00     0.001 C 
ATOM     29  C   UNL d   1      23.634 -17.916  -0.212  0.00  0.00     0.000 C 
ATOM     30  C   UNL d   1      24.798 -18.495   0.229  0.00  0.00     0.001 C 
ATOM     31  C   UNL d   1      25.981 -17.772   0.156  0.00  0.00     0.010 C 
ENDBRANCH   1  26
TORSDOF 5
ENDMDL
MODEL 4
REMARK VINA RESULT:    -8.632      3.951      6.075
REMARK INTER + INTRA:         -11.804
REMARK INTER:                 -10.124
REMARK INTRA:                  -1.680
REMARK CONF_INDEPENDENT:        1.492
REMARK UNBOUND:                -1.680
REMARK  5 active torsions:
REMARK  status: ('A' for Active; 'I' for Inactive)
REMARK    1  A    between atoms: C_5  and  N_6 
REMARK       I    between atoms: N_6  and  C_7 
REMARK    2  A    between atoms: C_7  and  C_9 
REMARK    3  A    between atoms: C_9  and  N_10 
REMARK    4  A    between atoms: C_9  and  C_21 
REMARK    5  A    between atoms: N_10  and  C_11 
ROOT
ATOM      1  C   UNL d   1      27.037 -14.869  -0.511  0.00  0.00     0.208 C 
ENDROOT
BRANCH   1   2
ATOM      2  C   UNL d   1      27.142 -14.313   0.959  0.00  0.00     0.249 C 
ATOM      3  N   UNL d   1      28.011 -14.804   1.911  0.00  0.00    -0.325 N 
ATOM      4  H   UNL d   1      28.629 -15.575   1.689  0.00  0.00     0.169 HD
ATOM      5  O   UNL d   1      26.402 -13.395   1.295  0.00  0.00    -0.270 OA
BRANCH   3   6
ATOM      6  C   UNL d   1      28.052 -14.240   3.243  0.00  0.00     0.034 A 
ATOM      7  C   UNL d   1      28.155 -15.075   4.351  0.00  0.00     0.030 A 
ATOM      8  C   UNL d   1      28.220 -14.526   5.651  0.00  0.00     0.009 A 
ATOM      9  C   UNL d   1      28.182 -13.141   5.868  0.00  0.00    -0.062 A 
ATOM     10  C   UNL d   1      28.272 -12.514   7.221  0.00  0.00     0.048 C 
ATOM     11  C   UNL d   1      28.066 -12.305   4.780  0.00  0.00     0.009 A 
ATOM     12  C   UNL d   1      27.999 -12.852   3.508  0.00  0.00     0.030 A 
ENDBRANCH   3   6
ENDBRANCH   1   2
BRANCH   1  13
ATOM     13  N   UNL d   1      26.452 -13.808  -1.400  0.00  0.00    -0.373 N 
ATOM     14  H   UNL d   1      25.822 -13.147  -0.957  0.00  0.00     0.161 HD
BRANCH  13  15
ATOM     15  C   UNL d   1      26.846 -13.506  -2.694  0.00  0.00     0.029 C 
ATOM     16  C   UNL d   1      26.688 -12.214  -3.236  0.00  0.00     0.030 C 
ATOM     17  C   UNL d   1      26.806 -11.884  -4.588  0.00  0.00     0.012 C 
ATOM     18  C   UNL d   1      27.363 -12.835  -5.392  0.00  0.00    -0.025 A 
ATOM     19  C   UNL d   1      27.702 -14.072  -4.840  0.00  0.00     0.042 A 
ATOM     20  C   UNL d   1      27.780 -12.754  -6.815  0.00  0.00     0.162 A 
ATOM     21  C   UNL d   1      27.430 -14.448  -3.529  0.00  0.00     0.046 C 
ATOM     22  C   UNL d   1      28.392 -14.825  -5.874  0.00  0.00     0.252 A 
ATOM     23  O   UNL d   1      28.846 -15.951  -5.735  0.00  0.00    -0.268 OA
ATOM     24  N   UNL d   1      28.442 -14.029  -6.995  0.00  0.00    -0.353 N 
ATOM     25  H   UNL d   1      28.898 -14.361  -7.834  0.00  0.00     0.163 HD
ENDBRANCH  13  15
ENDBRANCH   1  13
BRANCH   1  26
ATOM     26  C   UNL d   1      26.231 -16.219  -0.546  0.00  0.00    -0.026 C 
ATOM     27  C   UNL d   1      25.017 -16.308  -1.236  0.00  0.00     0.010 C 
ATOM     28  C   UNL d   1      24.109 -17.349  -0.967  0.00  0.00     0.001 C 
ATOM     29  C   UNL d   1      24.501 -18.467  -0.246  0.00  0.00     0.000 C 
ATOM     30  C   UNL d   1      25.787 -18.528   0.230  0.00  0.00     0.001 C 
ATOM     31  C   UNL d   1      26.598 -17.406   0.128  0.00  0.00     0.010 C 
ENDBRANCH   1  26
TORSDOF 5
ENDMDL
MODEL 5
REMARK VINA RESULT:    -8.418      2.428      8.490
REMARK INTER + INTRA:         -11.264
REMARK INTER:                  -9.910
REMARK INTRA:                  -1.354
REMARK CONF_INDEPENDENT:        1.492
REMARK UNBOUND:                -1.354
REMARK  5 active torsions:
REMARK  status: ('A' for Active; 'I' for Inactive)
REMARK    1  A    between atoms: C_5  and  N_6 
REMARK       I    between atoms: N_6  and  C_7 
REMARK    2  A    between atoms: C_7  and  C_9 
REMARK    3  A    between atoms: C_9  and  N_10 
REMARK    4  A    between atoms: C_9  and  C_21 
REMARK    5  A    between atoms: N_10  and  C_11 
ROOT
ATOM      1  C   UNL d   1      26.814 -13.582  -3.667  0.00  0.00     0.208 C 
ENDROOT
BRANCH   1   2
ATOM      2  C   UNL d   1      27.617 -14.633  -4.523  0.00  0.00     0.249 C 
ATOM      3  N   UNL d   1      28.958 -14.907  -4.349  0.00  0.00    -0.325 N 
ATOM      4  H   UNL d   1      29.493 -14.416  -3.644  0.00  0.00     0.169 HD
ATOM      5  O   UNL d   1      27.029 -15.241  -5.409  0.00  0.00    -0.270 OA
BRANCH   3   6
ATOM      6  C   UNL d   1      29.629 -15.889  -5.175  0.00  0.00     0.034 A 
ATOM      7  C   UNL d   1      29.792 -17.193  -4.715  0.00  0.00     0.030 A 
ATOM      8  C   UNL d   1      30.423 -18.159  -5.529  0.00  0.00     0.009 A 
ATOM      9  C   UNL d   1      30.902 -17.844  -6.809  0.00  0.00    -0.062 A 
ATOM     10  C   UNL d   1      31.555 -18.838  -7.714  0.00  0.00     0.048 C 
ATOM     11  C   UNL d   1      30.759 -16.554  -7.269  0.00  0.00     0.009 A 
ATOM     12  C   UNL d   1      30.141 -15.611  -6.463  0.00  0.00     0.030 A 
ENDBRANCH   3   6
ENDBRANCH   1   2
BRANCH   1  13
ATOM     13  N   UNL d   1      25.519 -14.197  -3.218  0.00  0.00    -0.373 N 
ATOM     14  H   UNL d   1      24.696 -13.963  -3.763  0.00  0.00     0.161 HD
BRANCH  13  15
ATOM     15  C   UNL d   1      25.367 -15.210  -2.284  0.00  0.00     0.029 C 
ATOM     16  C   UNL d   1      26.459 -15.702  -1.539  0.00  0.00     0.030 C 
ATOM     17  C   UNL d   1      26.459 -16.876  -0.783  0.00  0.00     0.012 C 
ATOM     18  C   UNL d   1      25.238 -17.441  -0.551  0.00  0.00    -0.025 A 
ATOM     19  C   UNL d   1      24.107 -16.865  -1.131  0.00  0.00     0.042 A 
ATOM     20  C   UNL d   1      24.866 -18.574   0.334  0.00  0.00     0.162 A 
ATOM     21  C   UNL d   1      24.137 -15.792  -2.015  0.00  0.00     0.046 C 
ATOM     22  C   UNL d   1      22.952 -17.577  -0.609  0.00  0.00     0.252 A 
ATOM     23  O   UNL d   1      21.789 -17.328  -0.892  0.00  0.00    -0.268 OA
ATOM     24  N   UNL d   1      23.421 -18.543   0.251  0.00  0.00    -0.353 N 
ATOM     25  H   UNL d   1      22.774 -19.147   0.739  0.00  0.00     0.163 HD
ENDBRANCH  13  15
ENDBRANCH   1  13
BRANCH   1  26
ATOM     26  C   UNL d   1      26.618 -12.239  -4.464  0.00  0.00    -0.026 C 
ATOM     27  C   UNL d   1      26.321 -11.048  -3.792  0.00  0.00     0.010 C 
ATOM     28  C   UNL d   1      25.770  -9.951  -4.480  0.00  0.00     0.001 C 
ATOM     29  C   UNL d   1      25.781  -9.901  -5.866  0.00  0.00     0.000 C 
ATOM     30  C   UNL d   1      26.313 -10.959  -6.561  0.00  0.00     0.001 C 
ATOM     31  C   UNL d   1      26.662 -12.112  -5.870  0.00  0.00     0.010 C 
ENDBRANCH   1  26
TORSDOF 5
ENDMDL
MODEL 6
REMARK VINA RESULT:    -8.416      3.910      6.369
REMARK INTER + INTRA:         -11.418
REMARK INTER:                  -9.908
REMARK INTRA:                  -1.511
REMARK CONF_INDEPENDENT:        1.492
REMARK UNBOUND:                -1.511
REMARK  5 active torsions:
REMARK  status: ('A' for Active; 'I' for Inactive)
REMARK    1  A    between atoms: C_5  and  N_6 
REMARK       I    between atoms: N_6  and  C_7 
REMARK    2  A    between atoms: C_7  and  C_9 
REMARK    3  A    between atoms: C_9  and  N_10 
REMARK    4  A    between atoms: C_9  and  C_21 
REMARK    5  A    between atoms: N_10  and  C_11 
ROOT
ATOM      1  C   UNL d   1      26.827 -16.656  -0.450  0.00  0.00     0.208 C 
ENDROOT
BRANCH   1   2
ATOM      2  C   UNL d   1      26.912 -15.489   0.604  0.00  0.00     0.249 C 
ATOM      3  N   UNL d   1      27.861 -15.418   1.603  0.00  0.00    -0.325 N 
ATOM      4  H   UNL d   1      28.556 -16.148   1.700  0.00  0.00     0.169 HD
ATOM      5  O   UNL d   1      26.082 -14.588   0.552  0.00  0.00    -0.270 OA
BRANCH   3   6
ATOM      6  C   UNL d   1      27.878 -14.311   2.536  0.00  0.00     0.034 A 
ATOM      7  C   UNL d   1      27.975 -13.005   2.066  0.00  0.00     0.030 A 
ATOM      8  C   UNL d   1      27.966 -11.922   2.973  0.00  0.00     0.009 A 
ATOM      9  C   UNL d   1      27.862 -12.121   4.357  0.00  0.00    -0.062 A 
ATOM     10  C   UNL d   1      27.824 -11.007   5.352  0.00  0.00     0.048 C 
ATOM     11  C   UNL d   1      27.779 -13.411   4.834  0.00  0.00     0.009 A 
ATOM     12  C   UNL d   1      27.792 -14.468   3.938  0.00  0.00     0.030 A 
ENDBRANCH   3   6
ENDBRANCH   1   2
BRANCH   1  13
ATOM     13  N   UNL d   1      27.413 -16.190  -1.752  0.00  0.00    -0.373 N 
ATOM     14  H   UNL d   1      28.178 -16.743  -2.125  0.00  0.00     0.161 HD
BRANCH  13  15
ATOM     15  C   UNL d   1      26.885 -15.226  -2.597  0.00  0.00     0.029 C 
ATOM     16  C   UNL d   1      26.230 -15.570  -3.797  0.00  0.00     0.030 C 
ATOM     17  C   UNL d   1      25.905 -14.681  -4.825  0.00  0.00     0.012 C 
ATOM     18  C   UNL d   1      26.002 -13.355  -4.524  0.00  0.00    -0.025 A 
ATOM     19  C   UNL d   1      26.479 -12.980  -3.267  0.00  0.00     0.042 A 
ATOM     20  C   UNL d   1      25.583 -12.166  -5.311  0.00  0.00     0.162 A 
ATOM     21  C   UNL d   1      26.954 -13.870  -2.309  0.00  0.00     0.046 C 
ATOM     22  C   UNL d   1      26.346 -11.536  -3.173  0.00  0.00     0.252 A 
ATOM     23  O   UNL d   1      26.655 -10.866  -2.199  0.00  0.00    -0.268 OA
ATOM     24  N   UNL d   1      25.805 -11.097  -4.360  0.00  0.00    -0.353 N 
ATOM     25  H   UNL d   1      25.615 -10.114  -4.499  0.00  0.00     0.163 HD
ENDBRANCH  13  15
ENDBRANCH   1  13
BRANCH   1  26
ATOM     26  C   UNL d   1      25.350 -17.181  -0.589  0.00  0.00    -0.026 C 
ATOM     27  C   UNL d   1      24.345 -16.356  -1.105  0.00  0.00     0.010 C 
ATOM     28  C   UNL d   1      22.987 -16.649  -0.884  0.00  0.00     0.001 C 
ATOM     29  C   UNL d   1      22.594 -17.895  -0.418  0.00  0.00     0.000 C 
ATOM     30  C   UNL d   1      23.559 -18.833  -0.145  0.00  0.00     0.001 C 
ATOM     31  C   UNL d   1      24.895 -18.454  -0.177  0.00  0.00     0.010 C 
ENDBRANCH   1  26
TORSDOF 5
ENDMDL
MODEL 7
REMARK VINA RESULT:    -8.368      2.929      5.816
REMARK INTER + INTRA:         -11.124
REMARK INTER:                  -9.860
REMARK INTRA:                  -1.264
REMARK CONF_INDEPENDENT:        1.492
REMARK UNBOUND:                -1.264
REMARK  5 active torsions:
REMARK  status: ('A' for Active; 'I' for Inactive)
REMARK    1  A    between atoms: C_5  and  N_6 
REMARK       I    between atoms: N_6  and  C_7 
REMARK    2  A    between atoms: C_7  and  C_9 
REMARK    3  A    between atoms: C_9  and  N_10 
REMARK    4  A    between atoms: C_9  and  C_21 
REMARK    5  A    between atoms: N_10  and  C_11 
ROOT
ATOM      1  C   UNL d   1      25.392 -16.256  -1.417  0.00  0.00     0.208 C 
ENDROOT
BRANCH   1   2
ATOM      2  C   UNL d   1      26.241 -15.753  -0.190  0.00  0.00     0.249 C 
ATOM      3  N   UNL d   1      26.389 -14.425   0.154  0.00  0.00    -0.325 N 
ATOM      4  H   UNL d   1      25.948 -13.701  -0.400  0.00  0.00     0.169 HD
ATOM      5  O   UNL d   1      26.819 -16.581   0.504  0.00  0.00    -0.270 OA
BRANCH   3   6
ATOM      6  C   UNL d   1      27.185 -14.038   1.299  0.00  0.00     0.034 A 
ATOM      7  C   UNL d   1      26.655 -13.183   2.261  0.00  0.00     0.030 A 
ATOM      8  C   UNL d   1      27.420 -12.824   3.392  0.00  0.00     0.009 A 
ATOM      9  C   UNL d   1      28.723 -13.307   3.584  0.00  0.00    -0.062 A 
ATOM     10  C   UNL d   1      29.561 -12.975   4.775  0.00  0.00     0.048 C 
ATOM     11  C   UNL d   1      29.264 -14.143   2.632  0.00  0.00     0.009 A 
ATOM     12  C   UNL d   1      28.507 -14.488   1.523  0.00  0.00     0.030 A 
ENDBRANCH   3   6
ENDBRANCH   1   2
BRANCH   1  13
ATOM     13  N   UNL d   1      24.953 -15.073  -2.232  0.00  0.00    -0.373 N 
ATOM     14  H   UNL d   1      24.115 -14.595  -1.918  0.00  0.00     0.161 HD
BRANCH  13  15
ATOM     15  C   UNL d   1      25.683 -14.439  -3.226  0.00  0.00     0.029 C 
ATOM     16  C   UNL d   1      25.539 -13.061  -3.487  0.00  0.00     0.030 C 
ATOM     17  C   UNL d   1      26.022 -12.397  -4.617  0.00  0.00     0.012 C 
ATOM     18  C   UNL d   1      26.910 -13.090  -5.387  0.00  0.00    -0.025 A 
ATOM     19  C   UNL d   1      27.214 -14.409  -5.046  0.00  0.00     0.042 A 
ATOM     20  C   UNL d   1      27.728 -12.635  -6.541  0.00  0.00     0.162 A 
ATOM     21  C   UNL d   1      26.604 -15.114  -4.013  0.00  0.00     0.046 C 
ATOM     22  C   UNL d   1      28.274 -14.847  -5.939  0.00  0.00     0.252 A 
ATOM     23  O   UNL d   1      28.798 -15.950  -5.915  0.00  0.00    -0.268 OA
ATOM     24  N   UNL d   1      28.565 -13.793  -6.776  0.00  0.00    -0.353 N 
ATOM     25  H   UNL d   1      29.292 -13.884  -7.472  0.00  0.00     0.163 HD
ENDBRANCH  13  15
ENDBRANCH   1  13
BRANCH   1  26
ATOM     26  C   UNL d   1      24.195 -17.159  -0.941  0.00  0.00    -0.026 C 
ATOM     27  C   UNL d   1      24.409 -18.490  -0.570  0.00  0.00     0.010 C 
ATOM     28  C   UNL d   1      23.341 -19.406  -0.520  0.00  0.00     0.001 C 
ATOM     29  C   UNL d   1      22.025 -18.966  -0.540  0.00  0.00     0.000 C 
ATOM     30  C   UNL d   1      21.780 -17.619  -0.643  0.00  0.00     0.001 C 
ATOM     31  C   UNL d   1      22.840 -16.759  -0.896  0.00  0.00     0.010 C 
ENDBRANCH   1  26
TORSDOF 5
ENDMDL
MODEL 8
REMARK VINA RESULT:    -8.291      4.384      6.704
REMARK INTER + INTRA:         -11.363
REMARK INTER:                  -9.782
REMARK INTRA:                  -1.581
REMARK CONF_INDEPENDENT:        1.492
REMARK UNBOUND:                -1.581
REMARK  5 active torsions:
REMARK  status: ('A' for Active; 'I' for Inactive)
REMARK    1  A    between atoms: C_5  and  N_6 
REMARK       I    between atoms: N_6  and  C_7 
REMARK    2  A    between atoms: C_7  and  C_9 
REMARK    3  A    between atoms: C_9  and  N_10 
REMARK    4  A    between atoms: C_9  and  C_21 
REMARK    5  A    between atoms: N_10  and  C_11 
ROOT
ATOM      1  C   UNL d   1      27.636 -16.164   0.267  0.00  0.00     0.208 C 
ENDROOT
BRANCH   1   2
ATOM      2  C   UNL d   1      27.660 -14.980   1.306  0.00  0.00     0.249 C 
ATOM      3  N   UNL d   1      28.601 -14.851   2.306  0.00  0.00    -0.325 N 
ATOM      4  H   UNL d   1      29.330 -15.544   2.416  0.00  0.00     0.169 HD
ATOM      5  O   UNL d   1      26.788 -14.122   1.240  0.00  0.00    -0.270 OA
BRANCH   3   6
ATOM      6  C   UNL d   1      28.560 -13.732   3.225  0.00  0.00     0.034 A 
ATOM      7  C   UNL d   1      27.959 -13.876   4.472  0.00  0.00     0.030 A 
ATOM      8  C   UNL d   1      27.939 -12.794   5.379  0.00  0.00     0.009 A 
ATOM      9  C   UNL d   1      28.515 -11.555   5.061  0.00  0.00    -0.062 A 
ATOM     10  C   UNL d   1      28.540 -10.391   5.997  0.00  0.00     0.048 C 
ATOM     11  C   UNL d   1      29.101 -11.397   3.825  0.00  0.00     0.009 A 
ATOM     12  C   UNL d   1      29.112 -12.463   2.938  0.00  0.00     0.030 A 
ENDBRANCH   3   6
ENDBRANCH   1   2
BRANCH   1  13
ATOM     13  N   UNL d   1      28.291 -15.715  -1.009  0.00  0.00    -0.373 N 
ATOM     14  H   UNL d   1      29.030 -16.310  -1.370  0.00  0.00     0.161 HD
BRANCH  13  15
ATOM     15  C   UNL d   1      27.852 -14.705  -1.850  0.00  0.00     0.029 C 
ATOM     16  C   UNL d   1      28.433 -13.420  -1.835  0.00  0.00     0.030 C 
ATOM     17  C   UNL d   1      27.897 -12.282  -2.442  0.00  0.00     0.012 C 
ATOM     18  C   UNL d   1      26.876 -12.496  -3.321  0.00  0.00    -0.025 A 
ATOM     19  C   UNL d   1      26.395 -13.794  -3.496  0.00  0.00     0.042 A 
ATOM     20  C   UNL d   1      26.203 -11.549  -4.247  0.00  0.00     0.162 A 
ATOM     21  C   UNL d   1      26.827 -14.897  -2.766  0.00  0.00     0.046 C 
ATOM     22  C   UNL d   1      25.422 -13.747  -4.574  0.00  0.00     0.252 A 
ATOM     23  O   UNL d   1      24.809 -14.711  -5.007  0.00  0.00    -0.268 OA
ATOM     24  N   UNL d   1      25.349 -12.441  -5.002  0.00  0.00    -0.353 N 
ATOM     25  H   UNL d   1      24.734 -12.190  -5.764  0.00  0.00     0.163 HD
ENDBRANCH  13  15
ENDBRANCH   1  13
BRANCH   1  26
ATOM     26  C   UNL d   1      26.171 -16.698   0.055  0.00  0.00    -0.026 C 
ATOM     27  C   UNL d   1      25.845 -18.024   0.357  0.00  0.00     0.010 C 
ATOM     28  C   UNL d   1      24.685 -18.620  -0.173  0.00  0.00     0.001 C 
ATOM     29  C   UNL d   1      23.688 -17.847  -0.752  0.00  0.00     0.000 C 
ATOM     30  C   UNL d   1      23.868 -16.488  -0.828  0.00  0.00     0.001 C 
ATOM     31  C   UNL d   1      25.102 -15.950  -0.486  0.00  0.00     0.010 C 
ENDBRANCH   1  26
TORSDOF 5
ENDMDL
MODEL 9
REMARK VINA RESULT:    -7.998      4.213      6.562
REMARK INTER + INTRA:         -10.909
REMARK INTER:                  -9.489
REMARK INTRA:                  -1.420
REMARK CONF_INDEPENDENT:        1.492
REMARK UNBOUND:                -1.420
REMARK  5 active torsions:
REMARK  status: ('A' for Active; 'I' for Inactive)
REMARK    1  A    between atoms: C_5  and  N_6 
REMARK       I    between atoms: N_6  and  C_7 
REMARK    2  A    between atoms: C_7  and  C_9 
REMARK    3  A    between atoms: C_9  and  N_10 
REMARK    4  A    between atoms: C_9  and  C_21 
REMARK    5  A    between atoms: N_10  and  C_11 
ROOT
ATOM      1  C   UNL d   1      27.237 -15.818  -0.489  0.00  0.00     0.208 C 
ENDROOT
BRANCH   1   2
ATOM      2  C   UNL d   1      27.287 -14.956   0.828  0.00  0.00     0.249 C 
ATOM      3  N   UNL d   1      28.189 -15.160   1.851  0.00  0.00    -0.325 N 
ATOM      4  H   UNL d   1      28.870 -15.907   1.790  0.00  0.00     0.169 HD
ATOM      5  O   UNL d   1      26.470 -14.053   0.970  0.00  0.00    -0.270 OA
BRANCH   3   6
ATOM      6  C   UNL d   1      28.174 -14.325   3.033  0.00  0.00     0.034 A 
ATOM      7  C   UNL d   1      28.253 -12.941   2.910  0.00  0.00     0.030 A 
ATOM      8  C   UNL d   1      28.214 -12.122   4.060  0.00  0.00     0.009 A 
ATOM      9  C   UNL d   1      28.097 -12.666   5.347  0.00  0.00    -0.062 A 
ATOM     10  C   UNL d   1      28.027 -11.839   6.590  0.00  0.00     0.048 C 
ATOM     11  C   UNL d   1      28.032 -14.035   5.483  0.00  0.00     0.009 A 
ATOM     12  C   UNL d   1      28.075 -14.832   4.349  0.00  0.00     0.030 A 
ENDBRANCH   3   6
ENDBRANCH   1   2
BRANCH   1  13
ATOM     13  N   UNL d   1      27.392 -14.913  -1.678  0.00  0.00    -0.373 N 
ATOM     14  H   UNL d   1      27.097 -13.950  -1.553  0.00  0.00     0.161 HD
BRANCH  13  15
ATOM     15  C   UNL d   1      28.090 -15.193  -2.843  0.00  0.00     0.029 C 
ATOM     16  C   UNL d   1      28.017 -14.351  -3.972  0.00  0.00     0.030 C 
ATOM     17  C   UNL d   1      28.461 -14.678  -5.255  0.00  0.00     0.012 C 
ATOM     18  C   UNL d   1      29.248 -15.789  -5.353  0.00  0.00    -0.025 A 
ATOM     19  C   UNL d   1      29.490 -16.548  -4.207  0.00  0.00     0.042 A 
ATOM     20  C   UNL d   1      30.011 -16.316  -6.513  0.00  0.00     0.162 A 
ATOM     21  C   UNL d   1      28.910 -16.305  -2.966  0.00  0.00     0.046 C 
ATOM     22  C   UNL d   1      30.455 -17.572  -4.571  0.00  0.00     0.252 A 
ATOM     23  O   UNL d   1      30.909 -18.410  -3.805  0.00  0.00    -0.268 OA
ATOM     24  N   UNL d   1      30.753 -17.399  -5.903  0.00  0.00    -0.353 N 
ATOM     25  H   UNL d   1      31.423 -18.005  -6.357  0.00  0.00     0.163 HD
ENDBRANCH  13  15
ENDBRANCH   1  13
BRANCH   1  26
ATOM     26  C   UNL d   1      25.929 -16.691  -0.542  0.00  0.00    -0.026 C 
ATOM     27  C   UNL d   1      24.812 -16.258  -1.264  0.00  0.00     0.010 C 
ATOM     28  C   UNL d   1      23.538 -16.804  -1.017  0.00  0.00     0.001 C 
ATOM     29  C   UNL d   1      23.394 -17.972  -0.283  0.00  0.00     0.000 C 
ATOM     30  C   UNL d   1      24.518 -18.574   0.227  0.00  0.00     0.001 C 
ATOM     31  C   UNL d   1      25.735 -17.911   0.144  0.00  0.00     0.010 C 
ENDBRANCH   1  26
TORSDOF 5
ENDMDL
