MODEL 1
REMARK VINA RESULT:    -9.336      0.000      0.000
REMARK INTER + INTRA:         -14.837
REMARK INTER:                 -12.021
REMARK INTRA:                  -2.816
REMARK CONF_INDEPENDENT:        2.685
REMARK UNBOUND:                -2.816
REMARK  9 active torsions:
REMARK  status: ('A' for Active; 'I' for Inactive)
REMARK    1  A    between atoms: C_2  and  O_5 
REMARK    2  A    between atoms: O_5  and  C_6 
REMARK       I    between atoms: C_6  and  N_8 
REMARK    3  A    between atoms: N_8  and  C_9 
REMARK    4  A    between atoms: C_9  and  C_10 
REMARK    5  A    between atoms: C_20  and  C_9 
REMARK    6  A    between atoms: C_10  and  C_11 
REMARK    7  A    between atoms: C_23  and  S_24 
REMARK    8  A    between atoms: S_24  and  C_25 
REMARK    9  A    between atoms: C_25  and  C_26 
ROOT
ATOM      1  C   UNL d   1      25.499 -14.549  -2.482  0.00  0.00     0.135 C 
ENDROOT
BRANCH   1   2
ATOM      2  N   UNL d   1      25.894 -13.144  -2.806  0.00  0.00    -0.328 N 
ATOM      3  C   UNL d   1      25.532 -12.573  -4.014  0.00  0.00     0.361 C 
ATOM      4  O   UNL d   1      25.024 -13.207  -4.898  0.00  0.00    -0.238 OA
ATOM      5  H   UNL d   1      26.121 -12.519  -2.045  0.00  0.00     0.165 HD
BRANCH   3   6
ATOM      6  O   UNL d   1      25.744 -11.230  -4.138  0.00  0.00    -0.294 OA
BRANCH   6   7
ATOM      7  C   UNL d   1      26.513 -10.844  -5.332  0.00  0.00     0.061 C 
ATOM      8  C   UNL d   1      25.585 -10.703  -6.517  0.00  0.00     0.046 C 
ATOM      9  C   UNL d   1      27.468 -11.913  -5.773  0.00  0.00     0.046 C 
ATOM     10  C   UNL d   1      27.346  -9.560  -5.135  0.00  0.00     0.046 C 
ENDBRANCH   6   7
ENDBRANCH   3   6
ENDBRANCH   1   2
BRANCH   1  11
ATOM     11  C   UNL d   1      25.872 -14.949  -0.984  0.00  0.00     0.066 C 
BRANCH  11  12
ATOM     12  C   UNL d   1      25.511 -16.327  -0.450  0.00  0.00    -0.048 C 
ATOM     13  C   UNL d   1      24.303 -16.923  -0.337  0.00  0.00    -0.006 C 
ATOM     14  C   UNL d   1      22.947 -16.515  -0.526  0.00  0.00     0.014 C 
ATOM     15  C   UNL d   1      24.599 -18.374  -0.279  0.00  0.00     0.038 C 
ATOM     16  C   UNL d   1      22.021 -17.403  -0.895  0.00  0.00     0.001 C 
ATOM     17  C   UNL d   1      22.266 -18.818  -0.791  0.00  0.00     0.002 C 
ATOM     18  C   UNL d   1      23.474 -19.325  -0.481  0.00  0.00     0.030 C 
ATOM     19  N   UNL d   1      25.849 -18.603  -0.129  0.00  0.00    -0.385 N 
ATOM     20  C   UNL d   1      26.615 -17.343  -0.245  0.00  0.00     0.155 C 
ATOM     21  H   UNL d   1      26.238 -19.538  -0.040  0.00  0.00     0.160 HD
ENDBRANCH  11  12
ENDBRANCH   1  11
BRANCH   1  22
ATOM     22  C   UNL d   1      26.020 -15.615  -3.509  0.00  0.00     0.233 C 
ATOM     23  N   UNL d   1      25.648 -15.606  -4.907  0.00  0.00    -0.228 NA
ATOM     24  N   UNL d   1      26.825 -15.180  -5.643  0.00  0.00    -0.222 NA
ATOM     25  H   UNL d   1      24.755 -15.174  -5.117  0.00  0.00     0.143 HD
ATOM     26  C   UNL d   1      27.834 -14.891  -4.624  0.00  0.00     0.275 C 
ATOM     27  H   UNL d   1      26.660 -14.327  -6.171  0.00  0.00     0.144 HD
ATOM     28  O   UNL d   1      27.455 -15.645  -3.507  0.00  0.00    -0.338 OA
BRANCH  26  29
ATOM     29  S   UNL d   1      29.537 -14.946  -5.182  0.00  0.00    -0.116 SA
BRANCH  29  30
ATOM     30  C   UNL d   1      29.656 -15.882  -6.780  0.00  0.00     0.120 C 
BRANCH  30  31
ATOM     31  C   UNL d   1      31.076 -16.194  -7.214  0.00  0.00    -0.005 C 
ATOM     32  C   UNL d   1      31.632 -17.506  -7.265  0.00  0.00     0.042 C 
ATOM     33 CL   UNL d   1      30.784 -18.983  -6.921  0.00  0.00    -0.084 Cl
ATOM     34  C   UNL d   1      32.895 -17.727  -7.818  0.00  0.00     0.024 C 
ATOM     35  C   UNL d   1      33.499 -16.714  -8.540  0.00  0.00     0.003 C 
ATOM     36  C   UNL d   1      33.005 -15.424  -8.464  0.00  0.00     0.024 C 
ATOM     37  C   UNL d   1      31.834 -15.151  -7.777  0.00  0.00     0.042 C 
ATOM     38 CL   UNL d   1      31.357 -13.486  -7.835  0.00  0.00    -0.084 Cl
ENDBRANCH  30  31
ENDBRANCH  29  30
ENDBRANCH  26  29
ENDBRANCH   1  22
TORSDOF 9
ENDMDL
MODEL 2
REMARK VINA RESULT:    -9.156      1.754      2.282
REMARK INTER + INTRA:         -15.159
REMARK INTER:                 -11.840
REMARK INTRA:                  -3.319
REMARK CONF_INDEPENDENT:        2.685
REMARK UNBOUND:                -3.319
REMARK  9 active torsions:
REMARK  status: ('A' for Active; 'I' for Inactive)
REMARK    1  A    between atoms: C_2  and  O_5 
REMARK    2  A    between atoms: O_5  and  C_6 
REMARK       I    between atoms: C_6  and  N_8 
REMARK    3  A    between atoms: N_8  and  C_9 
REMARK    4  A    between atoms: C_9  and  C_10 
REMARK    5  A    between atoms: C_20  and  C_9 
REMARK    6  A    between atoms: C_10  and  C_11 
REMARK    7  A    between atoms: C_23  and  S_24 
REMARK    8  A    between atoms: S_24  and  C_25 
REMARK    9  A    between atoms: C_25  and  C_26 
ROOT
ATOM      1  C   UNL d   1      25.252 -14.117  -3.524  0.00  0.00     0.135 C 
ENDROOT
BRANCH   1   2
ATOM      2  N   UNL d   1      25.095 -12.913  -4.397  0.00  0.00    -0.328 N 
ATOM      3  C   UNL d   1      26.175 -12.411  -5.103  0.00  0.00     0.361 C 
ATOM      4  O   UNL d   1      27.293 -12.815  -4.940  0.00  0.00    -0.238 OA
ATOM      5  H   UNL d   1      24.171 -12.676  -4.729  0.00  0.00     0.165 HD
BRANCH   3   6
ATOM      6  O   UNL d   1      25.898 -11.451  -6.034  0.00  0.00    -0.294 OA
BRANCH   6   7
ATOM      7  C   UNL d   1      26.007 -10.071  -5.535  0.00  0.00     0.061 C 
ATOM      8  C   UNL d   1      27.279  -9.438  -6.050  0.00  0.00     0.046 C 
ATOM      9  C   UNL d   1      26.176 -10.008  -4.045  0.00  0.00     0.046 C 
ATOM     10  C   UNL d   1      24.784  -9.195  -5.879  0.00  0.00     0.046 C 
ENDBRANCH   6   7
ENDBRANCH   3   6
ENDBRANCH   1   2
BRANCH   1  11
ATOM     11  C   UNL d   1      25.981 -13.772  -2.148  0.00  0.00     0.066 C 
BRANCH  11  12
ATOM     12  C   UNL d   1      26.075 -14.823  -1.052  0.00  0.00    -0.048 C 
ATOM     13  C   UNL d   1      25.260 -15.866  -0.779  0.00  0.00    -0.006 C 
ATOM     14  C   UNL d   1      23.999 -16.325  -1.268  0.00  0.00     0.014 C 
ATOM     15  C   UNL d   1      26.097 -16.807   0.001  0.00  0.00     0.038 C 
ATOM     16  C   UNL d   1      23.702 -17.627  -1.248  0.00  0.00     0.001 C 
ATOM     17  C   UNL d   1      24.466 -18.550  -0.449  0.00  0.00     0.002 C 
ATOM     18  C   UNL d   1      25.602 -18.199   0.178  0.00  0.00     0.030 C 
ATOM     19  N   UNL d   1      27.206 -16.280   0.360  0.00  0.00    -0.385 N 
ATOM     20  C   UNL d   1      27.370 -14.955  -0.278  0.00  0.00     0.155 C 
ATOM     21  H   UNL d   1      27.897 -16.765   0.925  0.00  0.00     0.160 HD
ENDBRANCH  11  12
ENDBRANCH   1  11
BRANCH   1  22
ATOM     22  C   UNL d   1      25.920 -15.344  -4.238  0.00  0.00     0.233 C 
ATOM     23  N   UNL d   1      26.645 -15.228  -5.485  0.00  0.00    -0.228 NA
ATOM     24  N   UNL d   1      28.050 -15.397  -5.161  0.00  0.00    -0.222 NA
ATOM     25  H   UNL d   1      26.369 -14.454  -6.080  0.00  0.00     0.143 HD
ATOM     26  C   UNL d   1      28.096 -15.544  -3.706  0.00  0.00     0.275 C 
ATOM     27  H   UNL d   1      28.604 -14.581  -5.410  0.00  0.00     0.144 HD
ATOM     28  O   UNL d   1      26.825 -16.006  -3.343  0.00  0.00    -0.338 OA
BRANCH  26  29
ATOM     29  S   UNL d   1      29.549 -16.369  -3.055  0.00  0.00    -0.116 SA
BRANCH  29  30
ATOM     30  C   UNL d   1      30.971 -16.183  -4.232  0.00  0.00     0.120 C 
BRANCH  30  31
ATOM     31  C   UNL d   1      31.124 -17.335  -5.209  0.00  0.00    -0.005 C 
ATOM     32  C   UNL d   1      31.241 -18.704  -4.827  0.00  0.00     0.042 C 
ATOM     33 CL   UNL d   1      31.156 -19.315  -3.203  0.00  0.00    -0.084 Cl
ATOM     34  C   UNL d   1      31.227 -19.718  -5.786  0.00  0.00     0.024 C 
ATOM     35  C   UNL d   1      30.850 -19.413  -7.080  0.00  0.00     0.003 C 
ATOM     36  C   UNL d   1      30.780 -18.092  -7.485  0.00  0.00     0.024 C 
ATOM     37  C   UNL d   1      30.955 -17.061  -6.578  0.00  0.00     0.042 C 
ATOM     38 CL   UNL d   1      30.784 -15.480  -7.269  0.00  0.00    -0.084 Cl
ENDBRANCH  30  31
ENDBRANCH  29  30
ENDBRANCH  26  29
ENDBRANCH   1  22
TORSDOF 9
ENDMDL
MODEL 3
REMARK VINA RESULT:    -9.077      1.399      2.199
REMARK INTER + INTRA:         -15.260
REMARK INTER:                 -11.761
REMARK INTRA:                  -3.499
REMARK CONF_INDEPENDENT:        2.685
REMARK UNBOUND:                -3.499
REMARK  9 active torsions:
REMARK  status: ('A' for Active; 'I' for Inactive)
REMARK    1  A    between atoms: C_2  and  O_5 
REMARK    2  A    between atoms: O_5  and  C_6 
REMARK       I    between atoms: C_6  and  N_8 
REMARK    3  A    between atoms: N_8  and  C_9 
REMARK    4  A    between atoms: C_9  and  C_10 
REMARK    5  A    between atoms: C_20  and  C_9 
REMARK    6  A    between atoms: C_10  and  C_11 
REMARK    7  A    between atoms: C_23  and  S_24 
REMARK    8  A    between atoms: S_24  and  C_25 
REMARK    9  A    between atoms: C_25  and  C_26 
ROOT
ATOM      1  C   UNL d   1      25.923 -14.694  -2.631  0.00  0.00     0.135 C 
ENDROOT
BRANCH   1   2
ATOM      2  N   UNL d   1      25.981 -13.222  -2.881  0.00  0.00    -0.328 N 
ATOM      3  C   UNL d   1      25.550 -12.696  -4.087  0.00  0.00     0.361 C 
ATOM      4  O   UNL d   1      25.253 -13.389  -5.021  0.00  0.00    -0.238 OA
ATOM      5  H   UNL d   1      26.013 -12.598  -2.087  0.00  0.00     0.165 HD
BRANCH   3   6
ATOM      6  O   UNL d   1      25.436 -11.337  -4.151  0.00  0.00    -0.294 OA
BRANCH   6   7
ATOM      7  C   UNL d   1      26.350 -10.695  -5.110  0.00  0.00     0.061 C 
ATOM      8  C   UNL d   1      27.761 -11.184  -4.880  0.00  0.00     0.046 C 
ATOM      9  C   UNL d   1      26.463  -9.214  -4.895  0.00  0.00     0.046 C 
ATOM     10  C   UNL d   1      25.935 -10.898  -6.582  0.00  0.00     0.046 C 
ENDBRANCH   6   7
ENDBRANCH   3   6
ENDBRANCH   1   2
BRANCH   1  11
ATOM     11  C   UNL d   1      26.293 -15.064  -1.124  0.00  0.00     0.066 C 
BRANCH  11  12
ATOM     12  C   UNL d   1      25.811 -16.375  -0.521  0.00  0.00    -0.048 C 
ATOM     13  C   UNL d   1      24.555 -16.850  -0.372  0.00  0.00    -0.006 C 
ATOM     14  C   UNL d   1      23.241 -16.328  -0.576  0.00  0.00     0.014 C 
ATOM     15  C   UNL d   1      24.717 -18.317  -0.243  0.00  0.00     0.038 C 
ATOM     16  C   UNL d   1      22.233 -17.145  -0.897  0.00  0.00     0.001 C 
ATOM     17  C   UNL d   1      22.348 -18.569  -0.722  0.00  0.00     0.002 C 
ATOM     18  C   UNL d   1      23.507 -19.169  -0.392  0.00  0.00     0.030 C 
ATOM     19  N   UNL d   1      25.942 -18.653  -0.087  0.00  0.00    -0.385 N 
ATOM     20  C   UNL d   1      26.820 -17.476  -0.269  0.00  0.00     0.155 C 
ATOM     21  H   UNL d   1      26.243 -19.614   0.047  0.00  0.00     0.160 HD
ENDBRANCH  11  12
ENDBRANCH   1  11
BRANCH   1  22
ATOM     22  C   UNL d   1      26.749 -15.551  -3.653  0.00  0.00     0.233 C 
ATOM     23  N   UNL d   1      26.408 -15.643  -5.056  0.00  0.00    -0.228 NA
ATOM     24  N   UNL d   1      27.417 -14.884  -5.774  0.00  0.00    -0.222 NA
ATOM     25  H   UNL d   1      25.430 -15.493  -5.278  0.00  0.00     0.143 HD
ATOM     26  C   UNL d   1      28.282 -14.317  -4.740  0.00  0.00     0.275 C 
ATOM     27  H   UNL d   1      27.014 -14.113  -6.303  0.00  0.00     0.144 HD
ATOM     28  O   UNL d   1      28.128 -15.157  -3.631  0.00  0.00    -0.338 OA
BRANCH  26  29
ATOM     29  S   UNL d   1      29.933 -13.863  -5.274  0.00  0.00    -0.116 SA
BRANCH  29  30
ATOM     30  C   UNL d   1      31.140 -15.199  -4.826  0.00  0.00     0.120 C 
BRANCH  30  31
ATOM     31  C   UNL d   1      30.827 -16.551  -5.440  0.00  0.00    -0.005 C 
ATOM     32  C   UNL d   1      31.107 -16.904  -6.793  0.00  0.00     0.042 C 
ATOM     33 CL   UNL d   1      31.915 -15.900  -7.959  0.00  0.00    -0.084 Cl
ATOM     34  C   UNL d   1      30.930 -18.214  -7.242  0.00  0.00     0.024 C 
ATOM     35  C   UNL d   1      30.722 -19.220  -6.316  0.00  0.00     0.003 C 
ATOM     36  C   UNL d   1      30.399 -18.897  -5.009  0.00  0.00     0.024 C 
ATOM     37  C   UNL d   1      30.408 -17.581  -4.580  0.00  0.00     0.042 C 
ATOM     38 CL   UNL d   1      30.021 -17.388  -2.901  0.00  0.00    -0.084 Cl
ENDBRANCH  30  31
ENDBRANCH  29  30
ENDBRANCH  26  29
ENDBRANCH   1  22
TORSDOF 9
ENDMDL
MODEL 4
REMARK VINA RESULT:    -8.421      2.417      3.543
REMARK INTER + INTRA:         -15.646
REMARK INTER:                 -11.106
REMARK INTRA:                  -4.540
REMARK CONF_INDEPENDENT:        2.685
REMARK UNBOUND:                -4.540
REMARK  9 active torsions:
REMARK  status: ('A' for Active; 'I' for Inactive)
REMARK    1  A    between atoms: C_2  and  O_5 
REMARK    2  A    between atoms: O_5  and  C_6 
REMARK       I    between atoms: C_6  and  N_8 
REMARK    3  A    between atoms: N_8  and  C_9 
REMARK    4  A    between atoms: C_9  and  C_10 
REMARK    5  A    between atoms: C_20  and  C_9 
REMARK    6  A    between atoms: C_10  and  C_11 
REMARK    7  A    between atoms: C_23  and  S_24 
REMARK    8  A    between atoms: S_24  and  C_25 
REMARK    9  A    between atoms: C_25  and  C_26 
ROOT
ATOM      1  C   UNL d   1      25.495 -14.564  -2.436  0.00  0.00     0.135 C 
ENDROOT
BRANCH   1   2
ATOM      2  N   UNL d   1      25.965 -13.180  -2.746  0.00  0.00    -0.328 N 
ATOM      3  C   UNL d   1      25.604 -12.563  -3.932  0.00  0.00     0.361 C 
ATOM      4  O   UNL d   1      25.032 -13.146  -4.811  0.00  0.00    -0.238 OA
ATOM      5  H   UNL d   1      26.253 -12.586  -1.981  0.00  0.00     0.165 HD
BRANCH   3   6
ATOM      6  O   UNL d   1      25.894 -11.233  -4.037  0.00  0.00    -0.294 OA
BRANCH   6   7
ATOM      7  C   UNL d   1      26.580 -10.858  -5.284  0.00  0.00     0.061 C 
ATOM      8  C   UNL d   1      27.180  -9.478  -5.146  0.00  0.00     0.046 C 
ATOM      9  C   UNL d   1      25.633 -10.703  -6.438  0.00  0.00     0.046 C 
ATOM     10  C   UNL d   1      27.652 -11.877  -5.725  0.00  0.00     0.046 C 
ENDBRANCH   6   7
ENDBRANCH   3   6
ENDBRANCH   1   2
BRANCH   1  11
ATOM     11  C   UNL d   1      25.904 -15.024  -0.965  0.00  0.00     0.066 C 
BRANCH  11  12
ATOM     12  C   UNL d   1      25.472 -16.387  -0.444  0.00  0.00    -0.048 C 
ATOM     13  C   UNL d   1      24.235 -16.920  -0.335  0.00  0.00    -0.006 C 
ATOM     14  C   UNL d   1      22.902 -16.440  -0.518  0.00  0.00     0.014 C 
ATOM     15  C   UNL d   1      24.455 -18.385  -0.291  0.00  0.00     0.038 C 
ATOM     16  C   UNL d   1      21.930 -17.276  -0.895  0.00  0.00     0.001 C 
ATOM     17  C   UNL d   1      22.102 -18.703  -0.804  0.00  0.00     0.002 C 
ATOM     18  C   UNL d   1      23.282 -19.274  -0.502  0.00  0.00     0.030 C 
ATOM     19  N   UNL d   1      25.692 -18.680  -0.146  0.00  0.00    -0.385 N 
ATOM     20  C   UNL d   1      26.522 -17.460  -0.250  0.00  0.00     0.155 C 
ATOM     21  H   UNL d   1      26.031 -19.634  -0.067  0.00  0.00     0.160 HD
ENDBRANCH  11  12
ENDBRANCH   1  11
BRANCH   1  22
ATOM     22  C   UNL d   1      25.903 -15.635  -3.507  0.00  0.00     0.233 C 
ATOM     23  N   UNL d   1      25.485 -15.560  -4.891  0.00  0.00    -0.228 NA
ATOM     24  N   UNL d   1      26.665 -15.200  -5.657  0.00  0.00    -0.222 NA
ATOM     25  H   UNL d   1      24.620 -15.060  -5.059  0.00  0.00     0.143 HD
ATOM     26  C   UNL d   1      27.726 -15.013  -4.667  0.00  0.00     0.275 C 
ATOM     27  H   UNL d   1      26.546 -14.322  -6.157  0.00  0.00     0.144 HD
ATOM     28  O   UNL d   1      27.330 -15.769  -3.557  0.00  0.00    -0.338 OA
BRANCH  26  29
ATOM     29  S   UNL d   1      29.401 -15.174  -5.286  0.00  0.00    -0.116 SA
BRANCH  29  30
ATOM     30  C   UNL d   1      30.606 -15.188  -3.875  0.00  0.00     0.120 C 
BRANCH  30  31
ATOM     31  C   UNL d   1      29.960 -15.308  -2.507  0.00  0.00    -0.005 C 
ATOM     32  C   UNL d   1      29.978 -16.491  -1.710  0.00  0.00     0.042 C 
ATOM     33 CL   UNL d   1      30.794 -17.972  -2.110  0.00  0.00    -0.084 Cl
ATOM     34  C   UNL d   1      29.495 -16.479  -0.401  0.00  0.00     0.024 C 
ATOM     35  C   UNL d   1      29.229 -15.266   0.207  0.00  0.00     0.003 C 
ATOM     36  C   UNL d   1      29.157 -14.114  -0.557  0.00  0.00     0.024 C 
ATOM     37  C   UNL d   1      29.475 -14.134  -1.904  0.00  0.00     0.042 C 
ATOM     38 CL   UNL d   1      29.368 -12.585  -2.675  0.00  0.00    -0.084 Cl
ENDBRANCH  30  31
ENDBRANCH  29  30
ENDBRANCH  26  29
ENDBRANCH   1  22
TORSDOF 9
ENDMDL
MODEL 5
REMARK VINA RESULT:    -8.273      2.416      3.747
REMARK INTER + INTRA:         -15.584
REMARK INTER:                 -10.958
REMARK INTRA:                  -4.626
REMARK CONF_INDEPENDENT:        2.685
REMARK UNBOUND:                -4.626
REMARK  9 active torsions:
REMARK  status: ('A' for Active; 'I' for Inactive)
REMARK    1  A    between atoms: C_2  and  O_5 
REMARK    2  A    between atoms: O_5  and  C_6 
REMARK       I    between atoms: C_6  and  N_8 
REMARK    3  A    between atoms: N_8  and  C_9 
REMARK    4  A    between atoms: C_9  and  C_10 
REMARK    5  A    between atoms: C_20  and  C_9 
REMARK    6  A    between atoms: C_10  and  C_11 
REMARK    7  A    between atoms: C_23  and  S_24 
REMARK    8  A    between atoms: S_24  and  C_25 
REMARK    9  A    between atoms: C_25  and  C_26 
ROOT
ATOM      1  C   UNL d   1      25.533 -14.495  -2.457  0.00  0.00     0.135 C 
ENDROOT
BRANCH   1   2
ATOM      2  N   UNL d   1      26.045 -13.128  -2.780  0.00  0.00    -0.328 N 
ATOM      3  C   UNL d   1      25.720 -12.521  -3.981  0.00  0.00     0.361 C 
ATOM      4  O   UNL d   1      25.150 -13.103  -4.862  0.00  0.00    -0.238 OA
ATOM      5  H   UNL d   1      26.334 -12.530  -2.019  0.00  0.00     0.165 HD
BRANCH   3   6
ATOM      6  O   UNL d   1      26.047 -11.200  -4.101  0.00  0.00    -0.294 OA
BRANCH   6   7
ATOM      7  C   UNL d   1      26.703 -10.850  -5.372  0.00  0.00     0.061 C 
ATOM      8  C   UNL d   1      27.321  -9.475  -5.268  0.00  0.00     0.046 C 
ATOM      9  C   UNL d   1      25.727 -10.700  -6.501  0.00  0.00     0.046 C 
ATOM     10  C   UNL d   1      27.751 -11.887  -5.827  0.00  0.00     0.046 C 
ENDBRANCH   6   7
ENDBRANCH   3   6
ENDBRANCH   1   2
BRANCH   1  11
ATOM     11  C   UNL d   1      25.905 -14.944  -0.973  0.00  0.00     0.066 C 
BRANCH  11  12
ATOM     12  C   UNL d   1      25.473 -16.308  -0.458  0.00  0.00    -0.048 C 
ATOM     13  C   UNL d   1      24.236 -16.840  -0.345  0.00  0.00    -0.006 C 
ATOM     14  C   UNL d   1      22.903 -16.356  -0.519  0.00  0.00     0.014 C 
ATOM     15  C   UNL d   1      24.454 -18.305  -0.311  0.00  0.00     0.038 C 
ATOM     16  C   UNL d   1      21.928 -17.188  -0.895  0.00  0.00     0.001 C 
ATOM     17  C   UNL d   1      22.097 -18.615  -0.813  0.00  0.00     0.002 C 
ATOM     18  C   UNL d   1      23.278 -19.191  -0.520  0.00  0.00     0.030 C 
ATOM     19  N   UNL d   1      25.690 -18.604  -0.173  0.00  0.00    -0.385 N 
ATOM     20  C   UNL d   1      26.523 -17.385  -0.275  0.00  0.00     0.155 C 
ATOM     21  H   UNL d   1      26.028 -19.559  -0.101  0.00  0.00     0.160 HD
ENDBRANCH  11  12
ENDBRANCH   1  11
BRANCH   1  22
ATOM     22  C   UNL d   1      25.929 -15.592  -3.507  0.00  0.00     0.233 C 
ATOM     23  N   UNL d   1      25.488 -15.557  -4.884  0.00  0.00    -0.228 NA
ATOM     24  N   UNL d   1      26.653 -15.210  -5.679  0.00  0.00    -0.222 NA
ATOM     25  H   UNL d   1      24.617 -15.065  -5.051  0.00  0.00     0.143 HD
ATOM     26  C   UNL d   1      27.729 -14.991  -4.712  0.00  0.00     0.275 C 
ATOM     27  H   UNL d   1      26.520 -14.347  -6.201  0.00  0.00     0.144 HD
ATOM     28  O   UNL d   1      27.356 -15.719  -3.577  0.00  0.00    -0.338 OA
BRANCH  26  29
ATOM     29  S   UNL d   1      29.395 -15.160  -5.355  0.00  0.00    -0.116 SA
BRANCH  29  30
ATOM     30  C   UNL d   1      30.626 -14.552  -4.107  0.00  0.00     0.120 C 
BRANCH  30  31
ATOM     31  C   UNL d   1      30.245 -14.839  -2.666  0.00  0.00    -0.005 C 
ATOM     32  C   UNL d   1      29.699 -13.872  -1.771  0.00  0.00     0.042 C 
ATOM     33 CL   UNL d   1      29.298 -12.229  -2.171  0.00  0.00    -0.084 Cl
ATOM     34  C   UNL d   1      29.233 -14.248  -0.510  0.00  0.00     0.024 C 
ATOM     35  C   UNL d   1      29.073 -15.592  -0.226  0.00  0.00     0.003 C 
ATOM     36  C   UNL d   1      29.639 -16.544  -1.055  0.00  0.00     0.024 C 
ATOM     37  C   UNL d   1      30.256 -16.178  -2.239  0.00  0.00     0.042 C 
ATOM     38 CL   UNL d   1      30.861 -17.517  -3.159  0.00  0.00    -0.084 Cl
ENDBRANCH  30  31
ENDBRANCH  29  30
ENDBRANCH  26  29
ENDBRANCH   1  22
TORSDOF 9
ENDMDL
MODEL 6
REMARK VINA RESULT:    -8.037      1.946      2.760
REMARK INTER + INTRA:         -15.228
REMARK INTER:                 -10.722
REMARK INTRA:                  -4.506
REMARK CONF_INDEPENDENT:        2.685
REMARK UNBOUND:                -4.506
REMARK  9 active torsions:
REMARK  status: ('A' for Active; 'I' for Inactive)
REMARK    1  A    between atoms: C_2  and  O_5 
REMARK    2  A    between atoms: O_5  and  C_6 
REMARK       I    between atoms: C_6  and  N_8 
REMARK    3  A    between atoms: N_8  and  C_9 
REMARK    4  A    between atoms: C_9  and  C_10 
REMARK    5  A    between atoms: C_20  and  C_9 
REMARK    6  A    between atoms: C_10  and  C_11 
REMARK    7  A    between atoms: C_23  and  S_24 
REMARK    8  A    between atoms: S_24  and  C_25 
REMARK    9  A    between atoms: C_25  and  C_26 
ROOT
ATOM      1  C   UNL d   1      25.336 -14.107  -3.267  0.00  0.00     0.135 C 
ENDROOT
BRANCH   1   2
ATOM      2  N   UNL d   1      25.037 -12.905  -4.105  0.00  0.00    -0.328 N 
ATOM      3  C   UNL d   1      25.973 -12.426  -5.006  0.00  0.00     0.361 C 
ATOM      4  O   UNL d   1      27.095 -12.850  -5.054  0.00  0.00    -0.238 OA
ATOM      5  H   UNL d   1      24.072 -12.652  -4.258  0.00  0.00     0.165 HD
BRANCH   3   6
ATOM      6  O   UNL d   1      25.541 -11.467  -5.877  0.00  0.00    -0.294 OA
BRANCH   6   7
ATOM      7  C   UNL d   1      25.900 -10.092  -5.492  0.00  0.00     0.061 C 
ATOM      8  C   UNL d   1      27.182  -9.684  -6.180  0.00  0.00     0.046 C 
ATOM      9  C   UNL d   1      26.242  -9.971  -4.036  0.00  0.00     0.046 C 
ATOM     10  C   UNL d   1      24.781  -9.066  -5.770  0.00  0.00     0.046 C 
ENDBRANCH   6   7
ENDBRANCH   3   6
ENDBRANCH   1   2
BRANCH   1  11
ATOM     11  C   UNL d   1      26.277 -13.759  -2.028  0.00  0.00     0.066 C 
BRANCH  11  12
ATOM     12  C   UNL d   1      26.485 -14.779  -0.919  0.00  0.00    -0.048 C 
ATOM     13  C   UNL d   1      25.735 -15.849  -0.574  0.00  0.00    -0.006 C 
ATOM     14  C   UNL d   1      24.468 -16.372  -0.973  0.00  0.00     0.014 C 
ATOM     15  C   UNL d   1      26.660 -16.736   0.170  0.00  0.00     0.038 C 
ATOM     16  C   UNL d   1      24.229 -17.685  -0.908  0.00  0.00     0.001 C 
ATOM     17  C   UNL d   1      25.081 -18.557  -0.141  0.00  0.00     0.002 C 
ATOM     18  C   UNL d   1      26.239 -18.143   0.406  0.00  0.00     0.030 C 
ATOM     19  N   UNL d   1      27.765 -16.154   0.448  0.00  0.00    -0.385 N 
ATOM     20  C   UNL d   1      27.831 -14.839  -0.226  0.00  0.00     0.155 C 
ATOM     21  H   UNL d   1      28.510 -16.597   0.978  0.00  0.00     0.160 HD
ENDBRANCH  11  12
ENDBRANCH   1  11
BRANCH   1  22
ATOM     22  C   UNL d   1      25.882 -15.334  -4.078  0.00  0.00     0.233 C 
ATOM     23  N   UNL d   1      26.335 -15.231  -5.448  0.00  0.00    -0.228 NA
ATOM     24  N   UNL d   1      27.782 -15.356  -5.413  0.00  0.00    -0.222 NA
ATOM     25  H   UNL d   1      25.921 -14.480  -5.989  0.00  0.00     0.143 HD
ATOM     26  C   UNL d   1      28.126 -15.465  -3.995  0.00  0.00     0.275 C 
ATOM     27  H   UNL d   1      28.248 -14.533  -5.786  0.00  0.00     0.144 HD
ATOM     28  O   UNL d   1      26.970 -15.950  -3.373  0.00  0.00    -0.338 OA
BRANCH  26  29
ATOM     29  S   UNL d   1      29.705 -16.236  -3.637  0.00  0.00    -0.116 SA
BRANCH  29  30
ATOM     30  C   UNL d   1      31.093 -15.106  -4.125  0.00  0.00     0.120 C 
BRANCH  30  31
ATOM     31  C   UNL d   1      30.763 -14.177  -5.279  0.00  0.00    -0.005 C 
ATOM     32  C   UNL d   1      30.746 -14.571  -6.649  0.00  0.00     0.042 C 
ATOM     33 CL   UNL d   1      31.019 -16.180  -7.247  0.00  0.00    -0.084 Cl
ATOM     34  C   UNL d   1      30.287 -13.700  -7.639  0.00  0.00     0.024 C 
ATOM     35  C   UNL d   1      29.617 -12.550  -7.264  0.00  0.00     0.003 C 
ATOM     36  C   UNL d   1      29.664 -12.123  -5.948  0.00  0.00     0.024 C 
ATOM     37  C   UNL d   1      30.264 -12.899  -4.971  0.00  0.00     0.042 C 
ATOM     38 CL   UNL d   1      30.180 -12.214  -3.381  0.00  0.00    -0.084 Cl
ENDBRANCH  30  31
ENDBRANCH  29  30
ENDBRANCH  26  29
ENDBRANCH   1  22
TORSDOF 9
ENDMDL
MODEL 7
REMARK VINA RESULT:    -7.871      3.173      4.507
REMARK INTER + INTRA:         -15.061
REMARK INTER:                 -10.556
REMARK INTRA:                  -4.505
REMARK CONF_INDEPENDENT:        2.685
REMARK UNBOUND:                -4.505
REMARK  9 active torsions:
REMARK  status: ('A' for Active; 'I' for Inactive)
REMARK    1  A    between atoms: C_2  and  O_5 
REMARK    2  A    between atoms: O_5  and  C_6 
REMARK       I    between atoms: C_6  and  N_8 
REMARK    3  A    between atoms: N_8  and  C_9 
REMARK    4  A    between atoms: C_9  and  C_10 
REMARK    5  A    between atoms: C_20  and  C_9 
REMARK    6  A    between atoms: C_10  and  C_11 
REMARK    7  A    between atoms: C_23  and  S_24 
REMARK    8  A    between atoms: S_24  and  C_25 
REMARK    9  A    between atoms: C_25  and  C_26 
ROOT
ATOM      1  C   UNL d   1      25.155 -14.675  -3.792  0.00  0.00     0.135 C 
ENDROOT
BRANCH   1   2
ATOM      2  N   UNL d   1      24.871 -13.381  -4.484  0.00  0.00    -0.328 N 
ATOM      3  C   UNL d   1      25.905 -12.533  -4.843  0.00  0.00     0.361 C 
ATOM      4  O   UNL d   1      27.038 -12.719  -4.494  0.00  0.00    -0.238 OA
ATOM      5  H   UNL d   1      23.995 -13.280  -4.977  0.00  0.00     0.165 HD
BRANCH   3   6
ATOM      6  O   UNL d   1      25.577 -11.486  -5.656  0.00  0.00    -0.294 OA
BRANCH   6   7
ATOM      7  C   UNL d   1      25.796 -10.160  -5.056  0.00  0.00     0.061 C 
ATOM      8  C   UNL d   1      24.953  -9.128  -5.771  0.00  0.00     0.046 C 
ATOM      9  C   UNL d   1      27.195  -9.658  -5.261  0.00  0.00     0.046 C 
ATOM     10  C   UNL d   1      25.530 -10.123  -3.536  0.00  0.00     0.046 C 
ENDBRANCH   6   7
ENDBRANCH   3   6
ENDBRANCH   1   2
BRANCH   1  11
ATOM     11  C   UNL d   1      25.526 -14.467  -2.255  0.00  0.00     0.066 C 
BRANCH  11  12
ATOM     12  C   UNL d   1      25.483 -15.645  -1.294  0.00  0.00    -0.048 C 
ATOM     13  C   UNL d   1      24.425 -16.350  -0.834  0.00  0.00    -0.006 C 
ATOM     14  C   UNL d   1      23.005 -16.232  -0.934  0.00  0.00     0.014 C 
ATOM     15  C   UNL d   1      24.994 -17.647  -0.397  0.00  0.00     0.038 C 
ATOM     16  C   UNL d   1      22.233 -17.320  -0.886  0.00  0.00     0.001 C 
ATOM     17  C   UNL d   1      22.750 -18.577  -0.408  0.00  0.00     0.002 C 
ATOM     18  C   UNL d   1      24.055 -18.772  -0.145  0.00  0.00     0.030 C 
ATOM     19  N   UNL d   1      26.273 -17.626  -0.372  0.00  0.00    -0.385 N 
ATOM     20  C   UNL d   1      26.774 -16.365  -0.964  0.00  0.00     0.155 C 
ATOM     21  H   UNL d   1      26.838 -18.415  -0.071  0.00  0.00     0.160 HD
ENDBRANCH  11  12
ENDBRANCH   1  11
BRANCH   1  22
ATOM     22  C   UNL d   1      26.213 -15.575  -4.522  0.00  0.00     0.233 C 
ATOM     23  N   UNL d   1      26.896 -15.161  -5.728  0.00  0.00    -0.228 NA
ATOM     24  N   UNL d   1      28.268 -14.877  -5.346  0.00  0.00    -0.222 NA
ATOM     25  H   UNL d   1      26.399 -14.491  -6.304  0.00  0.00     0.143 HD
ATOM     26  C   UNL d   1      28.315 -15.078  -3.897  0.00  0.00     0.275 C 
ATOM     27  H   UNL d   1      28.529 -13.912  -5.537  0.00  0.00     0.144 HD
ATOM     28  O   UNL d   1      27.257 -15.950  -3.613  0.00  0.00    -0.338 OA
BRANCH  26  29
ATOM     29  S   UNL d   1      29.938 -15.414  -3.213  0.00  0.00    -0.116 SA
BRANCH  29  30
ATOM     30  C   UNL d   1      30.281 -14.273  -1.791  0.00  0.00     0.120 C 
BRANCH  30  31
ATOM     31  C   UNL d   1      29.130 -13.347  -1.444  0.00  0.00    -0.005 C 
ATOM     32  C   UNL d   1      28.337 -13.456  -0.263  0.00  0.00     0.042 C 
ATOM     33 CL   UNL d   1      28.580 -14.601   1.021  0.00  0.00    -0.084 Cl
ATOM     34  C   UNL d   1      27.395 -12.478   0.059  0.00  0.00     0.024 C 
ATOM     35  C   UNL d   1      27.405 -11.281  -0.633  0.00  0.00     0.003 C 
ATOM     36  C   UNL d   1      28.127 -11.171  -1.808  0.00  0.00     0.024 C 
ATOM     37  C   UNL d   1      28.947 -12.201  -2.238  0.00  0.00     0.042 C 
ATOM     38 CL   UNL d   1      29.802 -11.853  -3.705  0.00  0.00    -0.084 Cl
ENDBRANCH  30  31
ENDBRANCH  29  30
ENDBRANCH  26  29
ENDBRANCH   1  22
TORSDOF 9
ENDMDL
MODEL 8
REMARK VINA RESULT:    -7.860      3.876      7.146
REMARK INTER + INTRA:         -14.872
REMARK INTER:                 -10.545
REMARK INTRA:                  -4.328
REMARK CONF_INDEPENDENT:        2.685
REMARK UNBOUND:                -4.328
REMARK  9 active torsions:
REMARK  status: ('A' for Active; 'I' for Inactive)
REMARK    1  A    between atoms: C_2  and  O_5 
REMARK    2  A    between atoms: O_5  and  C_6 
REMARK       I    between atoms: C_6  and  N_8 
REMARK    3  A    between atoms: N_8  and  C_9 
REMARK    4  A    between atoms: C_9  and  C_10 
REMARK    5  A    between atoms: C_20  and  C_9 
REMARK    6  A    between atoms: C_10  and  C_11 
REMARK    7  A    between atoms: C_23  and  S_24 
REMARK    8  A    between atoms: S_24  and  C_25 
REMARK    9  A    between atoms: C_25  and  C_26 
ROOT
ATOM      1  C   UNL d   1      27.178 -14.906   0.432  0.00  0.00     0.135 C 
ENDROOT
BRANCH   1   2
ATOM      2  N   UNL d   1      26.232 -15.523  -0.547  0.00  0.00    -0.328 N 
ATOM      3  C   UNL d   1      26.251 -16.888  -0.779  0.00  0.00     0.361 C 
ATOM      4  O   UNL d   1      27.101 -17.605  -0.328  0.00  0.00    -0.238 OA
ATOM      5  H   UNL d   1      25.386 -15.023  -0.781  0.00  0.00     0.165 HD
BRANCH   3   6
ATOM      6  O   UNL d   1      25.219 -17.392  -1.519  0.00  0.00    -0.294 OA
BRANCH   6   7
ATOM      7  C   UNL d   1      23.985 -17.634  -0.755  0.00  0.00     0.061 C 
ATOM      8  C   UNL d   1      24.326 -18.200   0.605  0.00  0.00     0.046 C 
ATOM      9  C   UNL d   1      23.131 -18.706  -1.364  0.00  0.00     0.046 C 
ATOM     10  C   UNL d   1      23.094 -16.382  -0.617  0.00  0.00     0.046 C 
ENDBRANCH   6   7
ENDBRANCH   3   6
ENDBRANCH   1   2
BRANCH   1  11
ATOM     11  C   UNL d   1      26.875 -13.358   0.669  0.00  0.00     0.066 C 
BRANCH  11  12
ATOM     12  C   UNL d   1      26.978 -12.768   2.067  0.00  0.00    -0.048 C 
ATOM     13  C   UNL d   1      27.401 -13.334   3.219  0.00  0.00    -0.006 C 
ATOM     14  C   UNL d   1      27.780 -14.651   3.624  0.00  0.00     0.014 C 
ATOM     15  C   UNL d   1      27.785 -12.194   4.084  0.00  0.00     0.038 C 
ATOM     16  C   UNL d   1      28.667 -14.825   4.606  0.00  0.00     0.001 C 
ATOM     17  C   UNL d   1      29.010 -13.746   5.497  0.00  0.00     0.002 C 
ATOM     18  C   UNL d   1      28.596 -12.481   5.297  0.00  0.00     0.030 C 
ATOM     19  N   UNL d   1      27.405 -11.073   3.598  0.00  0.00    -0.385 N 
ATOM     20  C   UNL d   1      26.864 -11.267   2.235  0.00  0.00     0.155 C 
ATOM     21  H   UNL d   1      27.555 -10.184   4.066  0.00  0.00     0.160 HD
ENDBRANCH  11  12
ENDBRANCH   1  11
BRANCH   1  22
ATOM     22  C   UNL d   1      28.692 -15.152   0.103  0.00  0.00     0.233 C 
ATOM     23  N   UNL d   1      29.325 -16.446   0.239  0.00  0.00    -0.228 NA
ATOM     24  N   UNL d   1      29.558 -16.933  -1.109  0.00  0.00    -0.222 NA
ATOM     25  H   UNL d   1      28.904 -17.068   0.919  0.00  0.00     0.143 HD
ATOM     26  C   UNL d   1      28.984 -15.917  -1.992  0.00  0.00     0.275 C 
ATOM     27  H   UNL d   1      29.077 -17.811  -1.289  0.00  0.00     0.144 HD
ATOM     28  O   UNL d   1      28.982 -14.736  -1.239  0.00  0.00    -0.338 OA
BRANCH  26  29
ATOM     29  S   UNL d   1      29.628 -15.890  -3.665  0.00  0.00    -0.116 SA
BRANCH  29  30
ATOM     30  C   UNL d   1      28.819 -14.534  -4.640  0.00  0.00     0.120 C 
BRANCH  30  31
ATOM     31  C   UNL d   1      27.721 -13.801  -3.892  0.00  0.00    -0.005 C 
ATOM     32  C   UNL d   1      27.925 -12.625  -3.112  0.00  0.00     0.042 C 
ATOM     33 CL   UNL d   1      29.430 -11.776  -2.930  0.00  0.00    -0.084 Cl
ATOM     34  C   UNL d   1      26.843 -11.923  -2.579  0.00  0.00     0.024 C 
ATOM     35  C   UNL d   1      25.566 -12.224  -3.015  0.00  0.00     0.003 C 
ATOM     36  C   UNL d   1      25.338 -13.387  -3.730  0.00  0.00     0.024 C 
ATOM     37  C   UNL d   1      26.391 -14.192  -4.130  0.00  0.00     0.042 C 
ATOM     38 CL   UNL d   1      25.905 -15.576  -5.054  0.00  0.00    -0.084 Cl
ENDBRANCH  30  31
ENDBRANCH  29  30
ENDBRANCH  26  29
ENDBRANCH   1  22
TORSDOF 9
ENDMDL
MODEL 9
REMARK VINA RESULT:    -7.709      4.145      6.981
REMARK INTER + INTRA:         -14.815
REMARK INTER:                 -10.394
REMARK INTRA:                  -4.421
REMARK CONF_INDEPENDENT:        2.685
REMARK UNBOUND:                -4.421
REMARK  9 active torsions:
REMARK  status: ('A' for Active; 'I' for Inactive)
REMARK    1  A    between atoms: C_2  and  O_5 
REMARK    2  A    between atoms: O_5  and  C_6 
REMARK       I    between atoms: C_6  and  N_8 
REMARK    3  A    between atoms: N_8  and  C_9 
REMARK    4  A    between atoms: C_9  and  C_10 
REMARK    5  A    between atoms: C_20  and  C_9 
REMARK    6  A    between atoms: C_10  and  C_11 
REMARK    7  A    between atoms: C_23  and  S_24 
REMARK    8  A    between atoms: S_24  and  C_25 
REMARK    9  A    between atoms: C_25  and  C_26 
ROOT
ATOM      1  C   UNL d   1      28.076 -15.471   0.361  0.00  0.00     0.135 C 
ENDROOT
BRANCH   1   2
ATOM      2  N   UNL d   1      26.893 -15.623  -0.540  0.00  0.00    -0.328 N 
ATOM      3  C   UNL d   1      26.548 -16.865  -1.044  0.00  0.00     0.361 C 
ATOM      4  O   UNL d   1      27.246 -17.832  -0.905  0.00  0.00    -0.238 OA
ATOM      5  H   UNL d   1      26.174 -14.915  -0.514  0.00  0.00     0.165 HD
BRANCH   3   6
ATOM      6  O   UNL d   1      25.341 -16.949  -1.676  0.00  0.00    -0.294 OA
BRANCH   6   7
ATOM      7  C   UNL d   1      24.253 -17.484  -0.841  0.00  0.00     0.061 C 
ATOM      8  C   UNL d   1      23.475 -18.523  -1.615  0.00  0.00     0.046 C 
ATOM      9  C   UNL d   1      23.214 -16.452  -0.518  0.00  0.00     0.046 C 
ATOM     10  C   UNL d   1      24.741 -18.059   0.506  0.00  0.00     0.046 C 
ENDBRANCH   6   7
ENDBRANCH   3   6
ENDBRANCH   1   2
BRANCH   1  11
ATOM     11  C   UNL d   1      28.183 -14.002   0.974  0.00  0.00     0.066 C 
BRANCH  11  12
ATOM     12  C   UNL d   1      29.049 -13.748   2.198  0.00  0.00    -0.048 C 
ATOM     13  C   UNL d   1      28.701 -13.650   3.500  0.00  0.00    -0.006 C 
ATOM     14  C   UNL d   1      27.469 -13.613   4.223  0.00  0.00     0.014 C 
ATOM     15  C   UNL d   1      29.947 -13.937   4.249  0.00  0.00     0.038 C 
ATOM     16  C   UNL d   1      27.407 -14.075   5.474  0.00  0.00     0.001 C 
ATOM     17  C   UNL d   1      28.605 -14.304   6.241  0.00  0.00     0.002 C 
ATOM     18  C   UNL d   1      29.836 -14.231   5.703  0.00  0.00     0.030 C 
ATOM     19  N   UNL d   1      30.972 -13.962   3.484  0.00  0.00    -0.385 N 
ATOM     20  C   UNL d   1      30.552 -13.876   2.068  0.00  0.00     0.155 C 
ATOM     21  H   UNL d   1      31.917 -14.117   3.823  0.00  0.00     0.160 HD
ENDBRANCH  11  12
ENDBRANCH   1  11
BRANCH   1  22
ATOM     22  C   UNL d   1      29.434 -15.926  -0.280  0.00  0.00     0.233 C 
ATOM     23  N   UNL d   1      29.759 -17.314  -0.528  0.00  0.00    -0.228 NA
ATOM     24  N   UNL d   1      29.691 -17.502  -1.966  0.00  0.00    -0.222 NA
ATOM     25  H   UNL d   1      29.297 -17.985   0.076  0.00  0.00     0.143 HD
ATOM     26  C   UNL d   1      29.259 -16.211  -2.504  0.00  0.00     0.275 C 
ATOM     27  H   UNL d   1      28.999 -18.198  -2.232  0.00  0.00     0.144 HD
ATOM     28  O   UNL d   1      29.633 -15.268  -1.539  0.00  0.00    -0.338 OA
BRANCH  26  29
ATOM     29  S   UNL d   1      29.665 -15.914  -4.225  0.00  0.00    -0.116 SA
BRANCH  29  30
ATOM     30  C   UNL d   1      28.983 -14.276  -4.769  0.00  0.00     0.120 C 
BRANCH  30  31
ATOM     31  C   UNL d   1      27.828 -13.772  -3.924  0.00  0.00    -0.005 C 
ATOM     32  C   UNL d   1      26.493 -14.266  -4.009  0.00  0.00     0.042 C 
ATOM     33 CL   UNL d   1      25.955 -15.571  -5.023  0.00  0.00    -0.084 Cl
ATOM     34  C   UNL d   1      25.520 -13.859  -3.095  0.00  0.00     0.024 C 
ATOM     35  C   UNL d   1      25.909 -13.172  -1.960  0.00  0.00     0.003 C 
ATOM     36  C   UNL d   1      27.184 -12.640  -1.880  0.00  0.00     0.024 C 
ATOM     37  C   UNL d   1      28.123 -12.896  -2.864  0.00  0.00     0.042 C 
ATOM     38 CL   UNL d   1      29.672 -12.181  -2.560  0.00  0.00    -0.084 Cl
ENDBRANCH  30  31
ENDBRANCH  29  30
ENDBRANCH  26  29
ENDBRANCH   1  22
TORSDOF 9
ENDMDL
