MODEL 1
REMARK VINA RESULT:    -8.384      0.000      0.000
REMARK INTER + INTRA:         -11.538
REMARK INTER:                  -9.577
REMARK INTRA:                  -1.961
REMARK CONF_INDEPENDENT:        1.193
REMARK UNBOUND:                -1.961
REMARK  4 active torsions:
REMARK  status: ('A' for Active; 'I' for Inactive)
REMARK       I    between atoms: C_2  and  N_3 
REMARK    1  A    between atoms: C_2  and  C_12 
REMARK    2  A    between atoms: N_3  and  N_4 
REMARK       I    between atoms: N_4  and  C_5 
REMARK    3  A    between atoms: C_5  and  C_7 
REMARK    4  A    between atoms: C_15  and  C_16 
ROOT
ATOM      1  O   UNL d   1      26.563 -15.827  -0.830  0.00  0.00    -0.266 OA
ATOM      2  C   UNL d   1      25.763 -16.319  -1.624  0.00  0.00     0.270 C 
ATOM      3  N   UNL d   1      25.912 -16.220  -3.003  0.00  0.00    -0.263 N 
ATOM      4  H   UNL d   1      25.195 -16.501  -3.670  0.00  0.00     0.190 HD
ENDROOT
BRANCH   2   5
ATOM      5  C   UNL d   1      24.532 -17.009  -1.119  0.00  0.00     0.033 A 
ATOM      6  C   UNL d   1      24.530 -18.355  -0.746  0.00  0.00     0.018 A 
ATOM      7  C   UNL d   1      23.325 -18.982  -0.384  0.00  0.00     0.013 A 
ATOM      8  C   UNL d   1      22.116 -18.267  -0.301  0.00  0.00    -0.026 A 
ATOM      9  C   UNL d   1      22.138 -16.909  -0.647  0.00  0.00     0.013 A 
ATOM     10  C   UNL d   1      23.334 -16.284  -1.039  0.00  0.00     0.018 A 
BRANCH   8  11
ATOM     11  C   UNL d   1      20.875 -18.949   0.108  0.00  0.00    -0.026 A 
ATOM     12  C   UNL d   1      20.654 -19.327   1.445  0.00  0.00     0.012 A 
ATOM     13  C   UNL d   1      19.564 -20.127   1.798  0.00  0.00     0.001 A 
ATOM     14  C   UNL d   1      18.628 -20.493   0.833  0.00  0.00     0.000 A 
ATOM     15  C   UNL d   1      18.796 -20.077  -0.485  0.00  0.00     0.001 A 
ATOM     16  C   UNL d   1      19.911 -19.313  -0.844  0.00  0.00     0.012 A 
ENDBRANCH   8  11
ENDBRANCH   2   5
BRANCH   3  17
ATOM     17  N   UNL d   1      27.007 -15.477  -3.525  0.00  0.00    -0.261 N 
ATOM     18  C   UNL d   1      27.113 -15.211  -4.890  0.00  0.00     0.293 C 
ATOM     19  O   UNL d   1      26.224 -15.557  -5.679  0.00  0.00    -0.264 OA
ATOM     20  H   UNL d   1      27.671 -15.112  -2.844  0.00  0.00     0.190 HD
BRANCH  18  21
ATOM     21  C   UNL d   1      28.348 -14.547  -5.287  0.00  0.00     0.144 A 
ATOM     22  C   UNL d   1      28.746 -14.047  -6.517  0.00  0.00     0.045 A 
ATOM     23  C   UNL d   1      30.042 -13.503  -6.354  0.00  0.00     0.027 A 
ATOM     24  C   UNL d   1      30.367 -13.684  -5.031  0.00  0.00     0.143 A 
ATOM     25  O   UNL d   1      29.342 -14.294  -4.369  0.00  0.00    -0.317 OA
ENDBRANCH  18  21
ENDBRANCH   3  17
TORSDOF 4
ENDMDL
MODEL 2
REMARK VINA RESULT:    -8.289      3.046      9.683
REMARK INTER + INTRA:         -11.408
REMARK INTER:                  -9.482
REMARK INTRA:                  -1.926
REMARK CONF_INDEPENDENT:        1.193
REMARK UNBOUND:                -1.926
REMARK  4 active torsions:
REMARK  status: ('A' for Active; 'I' for Inactive)
REMARK       I    between atoms: C_2  and  N_3 
REMARK    1  A    between atoms: C_2  and  C_12 
REMARK    2  A    between atoms: N_3  and  N_4 
REMARK       I    between atoms: N_4  and  C_5 
REMARK    3  A    between atoms: C_5  and  C_7 
REMARK    4  A    between atoms: C_15  and  C_16 
ROOT
ATOM      1  O   UNL d   1      24.380 -18.190   0.979  0.00  0.00    -0.266 OA
ATOM      2  C   UNL d   1      24.025 -17.797  -0.130  0.00  0.00     0.270 C 
ATOM      3  N   UNL d   1      22.754 -18.037  -0.642  0.00  0.00    -0.263 N 
ATOM      4  H   UNL d   1      22.488 -17.841  -1.606  0.00  0.00     0.190 HD
ENDROOT
BRANCH   2   5
ATOM      5  C   UNL d   1      24.994 -17.080  -1.020  0.00  0.00     0.033 A 
ATOM      6  C   UNL d   1      24.576 -16.217  -2.036  0.00  0.00     0.018 A 
ATOM      7  C   UNL d   1      25.522 -15.656  -2.913  0.00  0.00     0.013 A 
ATOM      8  C   UNL d   1      26.902 -15.869  -2.746  0.00  0.00    -0.026 A 
ATOM      9  C   UNL d   1      27.310 -16.711  -1.702  0.00  0.00     0.013 A 
ATOM     10  C   UNL d   1      26.368 -17.299  -0.841  0.00  0.00     0.018 A 
BRANCH   8  11
ATOM     11  C   UNL d   1      27.868 -15.243  -3.667  0.00  0.00    -0.026 A 
ATOM     12  C   UNL d   1      27.485 -14.821  -4.953  0.00  0.00     0.012 A 
ATOM     13  C   UNL d   1      28.435 -14.395  -5.885  0.00  0.00     0.001 A 
ATOM     14  C   UNL d   1      29.776 -14.301  -5.518  0.00  0.00     0.000 A 
ATOM     15  C   UNL d   1      30.167 -14.654  -4.229  0.00  0.00     0.001 A 
ATOM     16  C   UNL d   1      29.221 -15.124  -3.313  0.00  0.00     0.012 A 
ENDBRANCH   8  11
ENDBRANCH   2   5
BRANCH   3  17
ATOM     17  N   UNL d   1      21.838 -18.812   0.123  0.00  0.00    -0.261 N 
ATOM     18  C   UNL d   1      20.722 -19.402  -0.469  0.00  0.00     0.293 C 
ATOM     19  O   UNL d   1      20.531 -19.324  -1.690  0.00  0.00    -0.264 OA
ATOM     20  H   UNL d   1      22.074 -18.950   1.105  0.00  0.00     0.190 HD
BRANCH  18  21
ATOM     21  C   UNL d   1      19.815 -20.060   0.463  0.00  0.00     0.144 A 
ATOM     22  C   UNL d   1      18.684 -20.825   0.229  0.00  0.00     0.045 A 
ATOM     23  C   UNL d   1      18.173 -21.222   1.488  0.00  0.00     0.027 A 
ATOM     24  C   UNL d   1      19.024 -20.691   2.428  0.00  0.00     0.143 A 
ATOM     25  O   UNL d   1      20.035 -20.006   1.821  0.00  0.00    -0.317 OA
ENDBRANCH  18  21
ENDBRANCH   3  17
TORSDOF 4
ENDMDL
MODEL 3
REMARK VINA RESULT:    -8.217      3.077      9.638
REMARK INTER + INTRA:         -11.357
REMARK INTER:                  -9.410
REMARK INTRA:                  -1.947
REMARK CONF_INDEPENDENT:        1.193
REMARK UNBOUND:                -1.947
REMARK  4 active torsions:
REMARK  status: ('A' for Active; 'I' for Inactive)
REMARK       I    between atoms: C_2  and  N_3 
REMARK    1  A    between atoms: C_2  and  C_12 
REMARK    2  A    between atoms: N_3  and  N_4 
REMARK       I    between atoms: N_4  and  C_5 
REMARK    3  A    between atoms: C_5  and  C_7 
REMARK    4  A    between atoms: C_15  and  C_16 
ROOT
ATOM      1  O   UNL d   1      24.239 -18.203   0.977  0.00  0.00    -0.266 OA
ATOM      2  C   UNL d   1      23.902 -17.814  -0.140  0.00  0.00     0.270 C 
ATOM      3  N   UNL d   1      22.644 -18.070  -0.678  0.00  0.00    -0.263 N 
ATOM      4  H   UNL d   1      22.396 -17.876  -1.647  0.00  0.00     0.190 HD
ENDROOT
BRANCH   2   5
ATOM      5  C   UNL d   1      24.880 -17.085  -1.009  0.00  0.00     0.033 A 
ATOM      6  C   UNL d   1      24.472 -16.210  -2.020  0.00  0.00     0.018 A 
ATOM      7  C   UNL d   1      25.427 -15.637  -2.879  0.00  0.00     0.013 A 
ATOM      8  C   UNL d   1      26.806 -15.848  -2.697  0.00  0.00    -0.026 A 
ATOM      9  C   UNL d   1      27.202 -16.701  -1.658  0.00  0.00     0.013 A 
ATOM     10  C   UNL d   1      26.252 -17.302  -0.816  0.00  0.00     0.018 A 
BRANCH   8  11
ATOM     11  C   UNL d   1      27.781 -15.209  -3.598  0.00  0.00    -0.026 A 
ATOM     12  C   UNL d   1      28.910 -14.534  -3.096  0.00  0.00     0.012 A 
ATOM     13  C   UNL d   1      29.733 -13.781  -3.937  0.00  0.00     0.001 A 
ATOM     14  C   UNL d   1      29.492 -13.758  -5.309  0.00  0.00     0.000 A 
ATOM     15  C   UNL d   1      28.416 -14.471  -5.834  0.00  0.00     0.001 A 
ATOM     16  C   UNL d   1      27.567 -15.188  -4.985  0.00  0.00     0.012 A 
ENDBRANCH   8  11
ENDBRANCH   2   5
BRANCH   3  17
ATOM     17  N   UNL d   1      21.723 -18.856   0.068  0.00  0.00    -0.261 N 
ATOM     18  C   UNL d   1      20.606 -19.429  -0.540  0.00  0.00     0.293 C 
ATOM     19  O   UNL d   1      20.419 -19.325  -1.759  0.00  0.00    -0.264 OA
ATOM     20  H   UNL d   1      21.955 -19.017   1.047  0.00  0.00     0.190 HD
BRANCH  18  21
ATOM     21  C   UNL d   1      19.694 -20.103   0.375  0.00  0.00     0.144 A 
ATOM     22  C   UNL d   1      18.538 -20.825   0.125  0.00  0.00     0.045 A 
ATOM     23  C   UNL d   1      18.033 -21.263   1.372  0.00  0.00     0.027 A 
ATOM     24  C   UNL d   1      18.911 -20.800   2.321  0.00  0.00     0.143 A 
ATOM     25  O   UNL d   1      19.933 -20.116   1.731  0.00  0.00    -0.317 OA
ENDBRANCH  18  21
ENDBRANCH   3  17
TORSDOF 4
ENDMDL
MODEL 4
REMARK VINA RESULT:    -8.210      3.020      9.652
REMARK INTER + INTRA:         -11.348
REMARK INTER:                  -9.404
REMARK INTRA:                  -1.945
REMARK CONF_INDEPENDENT:        1.193
REMARK UNBOUND:                -1.945
REMARK  4 active torsions:
REMARK  status: ('A' for Active; 'I' for Inactive)
REMARK       I    between atoms: C_2  and  N_3 
REMARK    1  A    between atoms: C_2  and  C_12 
REMARK    2  A    between atoms: N_3  and  N_4 
REMARK       I    between atoms: N_4  and  C_5 
REMARK    3  A    between atoms: C_5  and  C_7 
REMARK    4  A    between atoms: C_15  and  C_16 
ROOT
ATOM      1  O   UNL d   1      24.501 -18.200   0.980  0.00  0.00    -0.266 OA
ATOM      2  C   UNL d   1      24.199 -17.896  -0.173  0.00  0.00     0.270 C 
ATOM      3  N   UNL d   1      22.948 -18.165  -0.719  0.00  0.00    -0.263 N 
ATOM      4  H   UNL d   1      22.726 -18.045  -1.706  0.00  0.00     0.190 HD
ENDROOT
BRANCH   2   5
ATOM      5  C   UNL d   1      25.216 -17.266  -1.075  0.00  0.00     0.033 A 
ATOM      6  C   UNL d   1      26.584 -17.293  -0.791  0.00  0.00     0.018 A 
ATOM      7  C   UNL d   1      27.485 -16.592  -1.612  0.00  0.00     0.013 A 
ATOM      8  C   UNL d   1      27.059 -15.926  -2.776  0.00  0.00    -0.026 A 
ATOM      9  C   UNL d   1      25.689 -15.934  -3.066  0.00  0.00     0.013 A 
ATOM     10  C   UNL d   1      24.779 -16.607  -2.233  0.00  0.00     0.018 A 
BRANCH   8  11
ATOM     11  C   UNL d   1      28.034 -15.224  -3.629  0.00  0.00    -0.026 A 
ATOM     12  C   UNL d   1      27.700 -14.806  -4.931  0.00  0.00     0.012 A 
ATOM     13  C   UNL d   1      28.674 -14.303  -5.799  0.00  0.00     0.001 A 
ATOM     14  C   UNL d   1      29.981 -14.129  -5.352  0.00  0.00     0.000 A 
ATOM     15  C   UNL d   1      30.318 -14.478  -4.047  0.00  0.00     0.001 A 
ATOM     16  C   UNL d   1      29.353 -15.023  -3.194  0.00  0.00     0.012 A 
ENDBRANCH   8  11
ENDBRANCH   2   5
BRANCH   3  17
ATOM     17  N   UNL d   1      21.989 -18.863   0.066  0.00  0.00    -0.261 N 
ATOM     18  C   UNL d   1      20.834 -19.391  -0.508  0.00  0.00     0.293 C 
ATOM     19  O   UNL d   1      20.640 -19.325  -1.729  0.00  0.00    -0.264 OA
ATOM     20  H   UNL d   1      22.222 -18.997   1.049  0.00  0.00     0.190 HD
BRANCH  18  21
ATOM     21  C   UNL d   1      19.893 -19.971   0.441  0.00  0.00     0.144 A 
ATOM     22  C   UNL d   1      18.760 -20.742   0.230  0.00  0.00     0.045 A 
ATOM     23  C   UNL d   1      18.208 -21.041   1.498  0.00  0.00     0.027 A 
ATOM     24  C   UNL d   1      19.036 -20.450   2.422  0.00  0.00     0.143 A 
ATOM     25  O   UNL d   1      20.072 -19.819   1.798  0.00  0.00    -0.317 OA
ENDBRANCH  18  21
ENDBRANCH   3  17
TORSDOF 4
ENDMDL
MODEL 5
REMARK VINA RESULT:    -7.630      3.427      9.652
REMARK INTER + INTRA:         -10.140
REMARK INTER:                  -8.823
REMARK INTRA:                  -1.317
REMARK CONF_INDEPENDENT:        1.193
REMARK UNBOUND:                -1.317
REMARK  4 active torsions:
REMARK  status: ('A' for Active; 'I' for Inactive)
REMARK       I    between atoms: C_2  and  N_3 
REMARK    1  A    between atoms: C_2  and  C_12 
REMARK    2  A    between atoms: N_3  and  N_4 
REMARK       I    between atoms: N_4  and  C_5 
REMARK    3  A    between atoms: C_5  and  C_7 
REMARK    4  A    between atoms: C_15  and  C_16 
ROOT
ATOM      1  O   UNL d   1      23.408 -19.263  -1.481  0.00  0.00    -0.266 OA
ATOM      2  C   UNL d   1      23.493 -18.253  -0.784  0.00  0.00     0.270 C 
ATOM      3  N   UNL d   1      22.648 -18.009   0.293  0.00  0.00    -0.263 N 
ATOM      4  H   UNL d   1      22.613 -17.123   0.794  0.00  0.00     0.190 HD
ENDROOT
BRANCH   2   5
ATOM      5  C   UNL d   1      24.496 -17.192  -1.118  0.00  0.00     0.033 A 
ATOM      6  C   UNL d   1      24.126 -15.961  -1.665  0.00  0.00     0.018 A 
ATOM      7  C   UNL d   1      25.115 -15.043  -2.062  0.00  0.00     0.013 A 
ATOM      8  C   UNL d   1      26.482 -15.291  -1.844  0.00  0.00    -0.026 A 
ATOM      9  C   UNL d   1      26.838 -16.516  -1.264  0.00  0.00     0.013 A 
ATOM     10  C   UNL d   1      25.856 -17.450  -0.894  0.00  0.00     0.018 A 
BRANCH   8  11
ATOM     11  C   UNL d   1      27.492 -14.295  -2.248  0.00  0.00    -0.026 A 
ATOM     12  C   UNL d   1      27.225 -12.915  -2.184  0.00  0.00     0.012 A 
ATOM     13  C   UNL d   1      28.111 -11.983  -2.732  0.00  0.00     0.001 A 
ATOM     14  C   UNL d   1      29.320 -12.409  -3.276  0.00  0.00     0.000 A 
ATOM     15  C   UNL d   1      29.631 -13.767  -3.292  0.00  0.00     0.001 A 
ATOM     16  C   UNL d   1      28.723 -14.701  -2.784  0.00  0.00     0.012 A 
ENDBRANCH   8  11
ENDBRANCH   2   5
BRANCH   3  17
ATOM     17  N   UNL d   1      21.607 -18.937   0.576  0.00  0.00    -0.261 N 
ATOM     18  C   UNL d   1      20.454 -18.990  -0.206  0.00  0.00     0.293 C 
ATOM     19  O   UNL d   1      20.331 -18.275  -1.210  0.00  0.00    -0.264 OA
ATOM     20  H   UNL d   1      21.778 -19.587   1.343  0.00  0.00     0.190 HD
BRANCH  18  21
ATOM     21  C   UNL d   1      19.430 -19.905   0.279  0.00  0.00     0.144 A 
ATOM     22  C   UNL d   1      18.331 -20.450  -0.365  0.00  0.00     0.045 A 
ATOM     23  C   UNL d   1      17.660 -21.277   0.566  0.00  0.00     0.027 A 
ATOM     24  C   UNL d   1      18.388 -21.207   1.730  0.00  0.00     0.143 A 
ATOM     25  O   UNL d   1      19.474 -20.399   1.563  0.00  0.00    -0.317 OA
ENDBRANCH  18  21
ENDBRANCH   3  17
TORSDOF 4
ENDMDL
MODEL 6
REMARK VINA RESULT:    -7.013      3.651      9.624
REMARK INTER + INTRA:          -9.120
REMARK INTER:                  -8.206
REMARK INTRA:                  -0.914
REMARK CONF_INDEPENDENT:        1.193
REMARK UNBOUND:                -0.914
REMARK  4 active torsions:
REMARK  status: ('A' for Active; 'I' for Inactive)
REMARK       I    between atoms: C_2  and  N_3 
REMARK    1  A    between atoms: C_2  and  C_12 
REMARK    2  A    between atoms: N_3  and  N_4 
REMARK       I    between atoms: N_4  and  C_5 
REMARK    3  A    between atoms: C_5  and  C_7 
REMARK    4  A    between atoms: C_15  and  C_16 
ROOT
ATOM      1  O   UNL d   1      23.722 -16.290  -0.209  0.00  0.00    -0.266 OA
ATOM      2  C   UNL d   1      24.642 -17.104  -0.258  0.00  0.00     0.270 C 
ATOM      3  N   UNL d   1      24.448 -18.472  -0.092  0.00  0.00    -0.263 N 
ATOM      4  H   UNL d   1      25.210 -19.141   0.006  0.00  0.00     0.190 HD
ENDROOT
BRANCH   2   5
ATOM      5  C   UNL d   1      26.053 -16.633  -0.442  0.00  0.00     0.033 A 
ATOM      6  C   UNL d   1      27.138 -17.513  -0.449  0.00  0.00     0.018 A 
ATOM      7  C   UNL d   1      28.450 -17.009  -0.514  0.00  0.00     0.013 A 
ATOM      8  C   UNL d   1      28.706 -15.633  -0.662  0.00  0.00    -0.026 A 
ATOM      9  C   UNL d   1      27.607 -14.765  -0.687  0.00  0.00     0.013 A 
ATOM     10  C   UNL d   1      26.295 -15.260  -0.591  0.00  0.00     0.018 A 
BRANCH   8  11
ATOM     11  C   UNL d   1      30.092 -15.141  -0.755  0.00  0.00    -0.026 A 
ATOM     12  C   UNL d   1      30.686 -14.856  -1.999  0.00  0.00     0.012 A 
ATOM     13  C   UNL d   1      32.049 -14.563  -2.098  0.00  0.00     0.001 A 
ATOM     14  C   UNL d   1      32.824 -14.464  -0.945  0.00  0.00     0.000 A 
ATOM     15  C   UNL d   1      32.241 -14.682   0.301  0.00  0.00     0.001 A 
ATOM     16  C   UNL d   1      30.887 -15.019   0.394  0.00  0.00     0.012 A 
ENDBRANCH   8  11
ENDBRANCH   2   5
BRANCH   3  17
ATOM     17  N   UNL d   1      23.141 -18.951   0.197  0.00  0.00    -0.261 N 
ATOM     18  C   UNL d   1      22.200 -19.136  -0.816  0.00  0.00     0.293 C 
ATOM     19  O   UNL d   1      22.495 -18.950  -2.004  0.00  0.00    -0.264 OA
ATOM     20  H   UNL d   1      22.954 -19.198   1.168  0.00  0.00     0.190 HD
BRANCH  18  21
ATOM     21  C   UNL d   1      20.872 -19.515  -0.351  0.00  0.00     0.144 A 
ATOM     22  C   UNL d   1      20.387 -19.700   0.934  0.00  0.00     0.045 A 
ATOM     23  C   UNL d   1      19.024 -20.067   0.824  0.00  0.00     0.027 A 
ATOM     24  C   UNL d   1      18.740 -20.075  -0.520  0.00  0.00     0.143 A 
ATOM     25  O   UNL d   1      19.842 -19.720  -1.241  0.00  0.00    -0.317 OA
ENDBRANCH  18  21
ENDBRANCH   3  17
TORSDOF 4
ENDMDL
MODEL 7
REMARK VINA RESULT:    -6.757      2.438      9.630
REMARK INTER + INTRA:          -9.904
REMARK INTER:                  -7.950
REMARK INTRA:                  -1.954
REMARK CONF_INDEPENDENT:        1.193
REMARK UNBOUND:                -1.954
REMARK  4 active torsions:
REMARK  status: ('A' for Active; 'I' for Inactive)
REMARK       I    between atoms: C_2  and  N_3 
REMARK    1  A    between atoms: C_2  and  C_12 
REMARK    2  A    between atoms: N_3  and  N_4 
REMARK       I    between atoms: N_4  and  C_5 
REMARK    3  A    between atoms: C_5  and  C_7 
REMARK    4  A    between atoms: C_15  and  C_16 
ROOT
ATOM      1  O   UNL d   1      24.810 -16.211   0.123  0.00  0.00    -0.266 OA
ATOM      2  C   UNL d   1      24.697 -16.583  -1.044  0.00  0.00     0.270 C 
ATOM      3  N   UNL d   1      23.713 -17.476  -1.457  0.00  0.00    -0.263 N 
ATOM      4  H   UNL d   1      23.689 -17.897  -2.384  0.00  0.00     0.190 HD
ENDROOT
BRANCH   2   5
ATOM      5  C   UNL d   1      25.679 -16.123  -2.077  0.00  0.00     0.033 A 
ATOM      6  C   UNL d   1      27.053 -16.348  -1.954  0.00  0.00     0.018 A 
ATOM      7  C   UNL d   1      27.941 -15.801  -2.896  0.00  0.00     0.013 A 
ATOM      8  C   UNL d   1      27.481 -15.096  -4.023  0.00  0.00    -0.026 A 
ATOM      9  C   UNL d   1      26.099 -14.906  -4.152  0.00  0.00     0.013 A 
ATOM     10  C   UNL d   1      25.207 -15.424  -3.198  0.00  0.00     0.018 A 
BRANCH   8  11
ATOM     11  C   UNL d   1      28.439 -14.559  -5.007  0.00  0.00    -0.026 A 
ATOM     12  C   UNL d   1      29.755 -15.049  -5.089  0.00  0.00     0.012 A 
ATOM     13  C   UNL d   1      30.709 -14.420  -5.894  0.00  0.00     0.001 A 
ATOM     14  C   UNL d   1      30.341 -13.343  -6.697  0.00  0.00     0.000 A 
ATOM     15  C   UNL d   1      29.027 -12.882  -6.677  0.00  0.00     0.001 A 
ATOM     16  C   UNL d   1      28.085 -13.484  -5.836  0.00  0.00     0.012 A 
ENDBRANCH   8  11
ENDBRANCH   2   5
BRANCH   3  17
ATOM     17  N   UNL d   1      22.829 -18.024  -0.487  0.00  0.00    -0.261 N 
ATOM     18  C   UNL d   1      21.829 -18.925  -0.850  0.00  0.00     0.293 C 
ATOM     19  O   UNL d   1      21.722 -19.325  -2.018  0.00  0.00    -0.264 OA
ATOM     20  H   UNL d   1      23.004 -17.763   0.482  0.00  0.00     0.190 HD
BRANCH  18  21
ATOM     21  C   UNL d   1      20.929 -19.304   0.231  0.00  0.00     0.144 A 
ATOM     22  C   UNL d   1      19.756 -20.042   0.209  0.00  0.00     0.045 A 
ATOM     23  C   UNL d   1      19.275 -20.113   1.538  0.00  0.00     0.027 A 
ATOM     24  C   UNL d   1      20.183 -19.427   2.308  0.00  0.00     0.143 A 
ATOM     25  O   UNL d   1      21.201 -18.952   1.534  0.00  0.00    -0.317 OA
ENDBRANCH  18  21
ENDBRANCH   3  17
TORSDOF 4
ENDMDL
MODEL 8
REMARK VINA RESULT:    -6.710      4.002      9.795
REMARK INTER + INTRA:          -9.647
REMARK INTER:                  -7.904
REMARK INTRA:                  -1.743
REMARK CONF_INDEPENDENT:        1.193
REMARK UNBOUND:                -1.743
REMARK  4 active torsions:
REMARK  status: ('A' for Active; 'I' for Inactive)
REMARK       I    between atoms: C_2  and  N_3 
REMARK    1  A    between atoms: C_2  and  C_12 
REMARK    2  A    between atoms: N_3  and  N_4 
REMARK       I    between atoms: N_4  and  C_5 
REMARK    3  A    between atoms: C_5  and  C_7 
REMARK    4  A    between atoms: C_15  and  C_16 
ROOT
ATOM      1  O   UNL d   1      23.078 -18.751  -2.026  0.00  0.00    -0.266 OA
ATOM      2  C   UNL d   1      23.496 -18.538  -0.889  0.00  0.00     0.270 C 
ATOM      3  N   UNL d   1      22.790 -18.899   0.253  0.00  0.00    -0.263 N 
ATOM      4  H   UNL d   1      23.053 -18.611   1.194  0.00  0.00     0.190 HD
ENDROOT
BRANCH   2   5
ATOM      5  C   UNL d   1      24.788 -17.805  -0.689  0.00  0.00     0.033 A 
ATOM      6  C   UNL d   1      25.711 -18.175   0.293  0.00  0.00     0.018 A 
ATOM      7  C   UNL d   1      26.855 -17.388   0.512  0.00  0.00     0.013 A 
ATOM      8  C   UNL d   1      27.150 -16.272  -0.293  0.00  0.00    -0.026 A 
ATOM      9  C   UNL d   1      26.232 -15.932  -1.295  0.00  0.00     0.013 A 
ATOM     10  C   UNL d   1      25.071 -16.696  -1.499  0.00  0.00     0.018 A 
BRANCH   8  11
ATOM     11  C   UNL d   1      28.373 -15.485  -0.054  0.00  0.00    -0.026 A 
ATOM     12  C   UNL d   1      29.478 -15.566  -0.921  0.00  0.00     0.012 A 
ATOM     13  C   UNL d   1      30.695 -14.960  -0.598  0.00  0.00     0.001 A 
ATOM     14  C   UNL d   1      30.803 -14.189   0.557  0.00  0.00     0.000 A 
ATOM     15  C   UNL d   1      29.702 -14.045   1.398  0.00  0.00     0.001 A 
ATOM     16  C   UNL d   1      28.498 -14.689   1.095  0.00  0.00     0.012 A 
ENDBRANCH   8  11
ENDBRANCH   2   5
BRANCH   3  17
ATOM     17  N   UNL d   1      21.507 -19.496   0.109  0.00  0.00    -0.261 N 
ATOM     18  C   UNL d   1      20.596 -19.513   1.165  0.00  0.00     0.293 C 
ATOM     19  O   UNL d   1      20.852 -18.951   2.239  0.00  0.00    -0.264 OA
ATOM     20  H   UNL d   1      21.278 -19.859  -0.815  0.00  0.00     0.190 HD
BRANCH  18  21
ATOM     21  C   UNL d   1      19.375 -20.265   0.905  0.00  0.00     0.144 A 
ATOM     22  C   UNL d   1      18.634 -21.093   1.732  0.00  0.00     0.045 A 
ATOM     23  C   UNL d   1      17.538 -21.575   0.978  0.00  0.00     0.027 A 
ATOM     24  C   UNL d   1      17.656 -21.009  -0.268  0.00  0.00     0.143 A 
ATOM     25  O   UNL d   1      18.749 -20.195  -0.319  0.00  0.00    -0.317 OA
ENDBRANCH  18  21
ENDBRANCH   3  17
TORSDOF 4
ENDMDL
MODEL 9
REMARK VINA RESULT:    -6.154      4.777      6.505
REMARK INTER + INTRA:          -9.328
REMARK INTER:                  -7.347
REMARK INTRA:                  -1.981
REMARK CONF_INDEPENDENT:        1.193
REMARK UNBOUND:                -1.981
REMARK  4 active torsions:
REMARK  status: ('A' for Active; 'I' for Inactive)
REMARK       I    between atoms: C_2  and  N_3 
REMARK    1  A    between atoms: C_2  and  C_12 
REMARK    2  A    between atoms: N_3  and  N_4 
REMARK       I    between atoms: N_4  and  C_5 
REMARK    3  A    between atoms: C_5  and  C_7 
REMARK    4  A    between atoms: C_15  and  C_16 
ROOT
ATOM      1  O   UNL d   1      27.337 -12.336  -6.151  0.00  0.00    -0.266 OA
ATOM      2  C   UNL d   1      26.350 -12.278  -5.419  0.00  0.00     0.270 C 
ATOM      3  N   UNL d   1      25.530 -11.157  -5.347  0.00  0.00    -0.263 N 
ATOM      4  H   UNL d   1      24.795 -11.040  -4.653  0.00  0.00     0.190 HD
ENDROOT
BRANCH   2   5
ATOM      5  C   UNL d   1      26.024 -13.421  -4.508  0.00  0.00     0.033 A 
ATOM      6  C   UNL d   1      24.889 -13.425  -3.692  0.00  0.00     0.018 A 
ATOM      7  C   UNL d   1      24.687 -14.471  -2.775  0.00  0.00     0.013 A 
ATOM      8  C   UNL d   1      25.557 -15.575  -2.710  0.00  0.00    -0.026 A 
ATOM      9  C   UNL d   1      26.674 -15.575  -3.557  0.00  0.00     0.013 A 
ATOM     10  C   UNL d   1      26.898 -14.517  -4.454  0.00  0.00     0.018 A 
BRANCH   8  11
ATOM     11  C   UNL d   1      25.301 -16.669  -1.755  0.00  0.00    -0.026 A 
ATOM     12  C   UNL d   1      24.029 -17.261  -1.645  0.00  0.00     0.012 A 
ATOM     13  C   UNL d   1      23.743 -18.169  -0.622  0.00  0.00     0.001 A 
ATOM     14  C   UNL d   1      24.748 -18.566   0.257  0.00  0.00     0.000 A 
ATOM     15  C   UNL d   1      26.030 -18.039   0.126  0.00  0.00     0.001 A 
ATOM     16  C   UNL d   1      26.303 -17.096  -0.871  0.00  0.00     0.012 A 
ENDBRANCH   8  11
ENDBRANCH   2   5
BRANCH   3  17
ATOM     17  N   UNL d   1      25.868 -10.006  -6.113  0.00  0.00    -0.261 N 
ATOM     18  C   UNL d   1      25.142  -8.822  -5.994  0.00  0.00     0.293 C 
ATOM     19  O   UNL d   1      24.223  -8.716  -5.171  0.00  0.00    -0.264 OA
ATOM     20  H   UNL d   1      26.694 -10.084  -6.705  0.00  0.00     0.190 HD
BRANCH  18  21
ATOM     21  C   UNL d   1      25.531  -7.773  -6.928  0.00  0.00     0.144 A 
ATOM     22  C   UNL d   1      24.985  -6.519  -7.151  0.00  0.00     0.045 A 
ATOM     23  C   UNL d   1      25.744  -5.902  -8.173  0.00  0.00     0.027 A 
ATOM     24  C   UNL d   1      26.724  -6.803  -8.515  0.00  0.00     0.143 A 
ATOM     25  O   UNL d   1      26.621  -7.929  -7.753  0.00  0.00    -0.317 OA
ENDBRANCH  18  21
ENDBRANCH   3  17
TORSDOF 4
ENDMDL
