MODEL 1
REMARK VINA RESULT:    -8.846      0.000      0.000
REMARK INTER + INTRA:         -12.853
REMARK INTER:                 -10.935
REMARK INTRA:                  -1.918
REMARK CONF_INDEPENDENT:        2.088
REMARK UNBOUND:                -1.918
REMARK  7 active torsions:
REMARK  status: ('A' for Active; 'I' for Inactive)
REMARK    1  A    between atoms: C_2  and  O_4 
REMARK    2  A    between atoms: O_4  and  C_5 
REMARK    3  A    between atoms: C_9  and  C_10 
REMARK    4  A    between atoms: C_10  and  C_11 
REMARK       I    between atoms: C_11  and  N_13 
REMARK    5  A    between atoms: N_13  and  N_14 
REMARK       I    between atoms: N_14  and  C_15 
REMARK       I    between atoms: C_15  and  N_17 
REMARK    6  A    between atoms: N_17  and  C_18 
REMARK    7  A    between atoms: C_18  and  C_19 
ROOT
ATOM      1  C   UNL d   1      25.213 -17.556  -0.378  0.00  0.00     0.240 C 
ATOM      2  O   UNL d   1      25.550 -18.619   0.150  0.00  0.00    -0.272 OA
ATOM      3  N   UNL d   1      23.860 -17.416  -0.566  0.00  0.00    -0.266 N 
ATOM      4  H   UNL d   1      23.369 -16.592  -0.901  0.00  0.00     0.190 HD
ENDROOT
BRANCH   1   5
ATOM      5  C   UNL d   1      26.167 -16.398  -0.823  0.00  0.00     0.143 C 
BRANCH   5   6
ATOM      6  C   UNL d   1      25.848 -15.662  -2.137  0.00  0.00    -0.047 C 
ATOM      7  C   UNL d   1      24.798 -14.754  -2.299  0.00  0.00     0.007 C 
ATOM      8  C   UNL d   1      24.635 -14.078  -3.530  0.00  0.00     0.003 C 
ATOM      9  C   UNL d   1      25.446 -14.372  -4.645  0.00  0.00     0.037 C 
ATOM     10  C   UNL d   1      26.483 -15.276  -4.507  0.00  0.00     0.069 C 
ATOM     11  C   UNL d   1      26.682 -15.805  -3.244  0.00  0.00     0.044 C 
BRANCH  10  12
ATOM     12  O   UNL d   1      27.407 -15.466  -5.503  0.00  0.00    -0.347 OA
BRANCH  12  13
ATOM     13  C   UNL d   1      28.470 -14.486  -5.673  0.00  0.00     0.120 C 
ATOM     14  C   UNL d   1      29.566 -15.147  -6.511  0.00  0.00     0.040 C 
ATOM     15  C   UNL d   1      28.154 -13.183  -6.414  0.00  0.00     0.040 C 
ENDBRANCH  12  13
ENDBRANCH  10  12
ENDBRANCH   5   6
ENDBRANCH   1   5
BRANCH   3  16
ATOM     16  N   UNL d   1      23.060 -18.512  -0.115  0.00  0.00    -0.249 N 
ATOM     17  C   UNL d   1      21.751 -18.608  -0.501  0.00  0.00     0.334 C 
ATOM     18  O   UNL d   1      21.223 -17.765  -1.227  0.00  0.00    -0.246 OA
ATOM     19  N   UNL d   1      21.101 -19.713  -0.021  0.00  0.00    -0.341 N 
ATOM     20  H   UNL d   1      21.590 -20.335   0.602  0.00  0.00     0.164 HD
ATOM     21  H   UNL d   1      23.538 -19.185   0.487  0.00  0.00     0.192 HD
BRANCH  19  22
ATOM     22  C   UNL d   1      19.714 -19.970  -0.352  0.00  0.00     0.129 C 
BRANCH  22  23
ATOM     23  C   UNL d   1      18.781 -19.977   0.827  0.00  0.00     0.003 A 
ATOM     24  C   UNL d   1      18.205 -21.228   1.450  0.00  0.00     0.007 A 
ATOM     25  C   UNL d   1      19.255 -20.437   2.185  0.00  0.00     0.007 A 
ENDBRANCH  22  23
ENDBRANCH  19  22
ENDBRANCH   3  16
TORSDOF 7
ENDMDL
MODEL 2
REMARK VINA RESULT:    -8.053      1.337      2.043
REMARK INTER + INTRA:         -12.082
REMARK INTER:                 -10.142
REMARK INTRA:                  -1.940
REMARK CONF_INDEPENDENT:        2.088
REMARK UNBOUND:                -1.940
REMARK  7 active torsions:
REMARK  status: ('A' for Active; 'I' for Inactive)
REMARK    1  A    between atoms: C_2  and  O_4 
REMARK    2  A    between atoms: O_4  and  C_5 
REMARK    3  A    between atoms: C_9  and  C_10 
REMARK    4  A    between atoms: C_10  and  C_11 
REMARK       I    between atoms: C_11  and  N_13 
REMARK    5  A    between atoms: N_13  and  N_14 
REMARK       I    between atoms: N_14  and  C_15 
REMARK       I    between atoms: C_15  and  N_17 
REMARK    6  A    between atoms: N_17  and  C_18 
REMARK    7  A    between atoms: C_18  and  C_19 
ROOT
ATOM      1  C   UNL d   1      25.427 -18.188   0.184  0.00  0.00     0.240 C 
ATOM      2  O   UNL d   1      25.356 -18.574   1.354  0.00  0.00    -0.272 OA
ATOM      3  N   UNL d   1      24.277 -18.367  -0.546  0.00  0.00    -0.266 N 
ATOM      4  H   UNL d   1      24.095 -18.044  -1.492  0.00  0.00     0.190 HD
ENDROOT
BRANCH   1   5
ATOM      5  C   UNL d   1      26.669 -17.528  -0.501  0.00  0.00     0.143 C 
BRANCH   5   6
ATOM      6  C   UNL d   1      26.551 -16.062  -0.955  0.00  0.00    -0.047 C 
ATOM      7  C   UNL d   1      27.141 -14.981  -0.295  0.00  0.00     0.007 C 
ATOM      8  C   UNL d   1      27.031 -13.679  -0.836  0.00  0.00     0.003 C 
ATOM      9  C   UNL d   1      26.247 -13.421  -1.979  0.00  0.00     0.037 C 
ATOM     10  C   UNL d   1      25.647 -14.476  -2.640  0.00  0.00     0.069 C 
ATOM     11  C   UNL d   1      25.901 -15.743  -2.146  0.00  0.00     0.044 C 
BRANCH  10  12
ATOM     12  O   UNL d   1      25.024 -14.305  -3.851  0.00  0.00    -0.347 OA
BRANCH  12  13
ATOM     13  C   UNL d   1      25.833 -13.994  -5.020  0.00  0.00     0.120 C 
ATOM     14  C   UNL d   1      26.029 -12.477  -5.044  0.00  0.00     0.040 C 
ATOM     15  C   UNL d   1      27.251 -14.566  -5.104  0.00  0.00     0.040 C 
ENDBRANCH  12  13
ENDBRANCH  10  12
ENDBRANCH   5   6
ENDBRANCH   1   5
BRANCH   3  16
ATOM     16  N   UNL d   1      23.185 -18.959   0.161  0.00  0.00    -0.249 N 
ATOM     17  C   UNL d   1      22.010 -19.221  -0.489  0.00  0.00     0.334 C 
ATOM     18  O   UNL d   1      21.851 -18.950  -1.680  0.00  0.00    -0.246 OA
ATOM     19  N   UNL d   1      21.052 -19.809   0.292  0.00  0.00    -0.341 N 
ATOM     20  H   UNL d   1      21.244 -19.960   1.269  0.00  0.00     0.164 HD
ATOM     21  H   UNL d   1      23.360 -19.164   1.147  0.00  0.00     0.192 HD
BRANCH  19  22
ATOM     22  C   UNL d   1      19.756 -20.165  -0.250  0.00  0.00     0.129 C 
BRANCH  22  23
ATOM     23  C   UNL d   1      18.638 -20.166   0.753  0.00  0.00     0.003 A 
ATOM     24  C   UNL d   1      18.031 -21.416   1.350  0.00  0.00     0.007 A 
ATOM     25  C   UNL d   1      18.895 -20.521   2.199  0.00  0.00     0.007 A 
ENDBRANCH  22  23
ENDBRANCH  19  22
ENDBRANCH   3  16
TORSDOF 7
ENDMDL
MODEL 3
REMARK VINA RESULT:    -7.767      2.987      9.266
REMARK INTER + INTRA:         -11.751
REMARK INTER:                  -9.855
REMARK INTRA:                  -1.896
REMARK CONF_INDEPENDENT:        2.088
REMARK UNBOUND:                -1.896
REMARK  7 active torsions:
REMARK  status: ('A' for Active; 'I' for Inactive)
REMARK    1  A    between atoms: C_2  and  O_4 
REMARK    2  A    between atoms: O_4  and  C_5 
REMARK    3  A    between atoms: C_9  and  C_10 
REMARK    4  A    between atoms: C_10  and  C_11 
REMARK       I    between atoms: C_11  and  N_13 
REMARK    5  A    between atoms: N_13  and  N_14 
REMARK       I    between atoms: N_14  and  C_15 
REMARK       I    between atoms: C_15  and  N_17 
REMARK    6  A    between atoms: N_17  and  C_18 
REMARK    7  A    between atoms: C_18  and  C_19 
ROOT
ATOM      1  C   UNL d   1      25.756 -15.118  -3.398  0.00  0.00     0.240 C 
ATOM      2  O   UNL d   1      25.155 -14.914  -4.457  0.00  0.00    -0.272 OA
ATOM      3  N   UNL d   1      27.094 -15.393  -3.546  0.00  0.00    -0.266 N 
ATOM      4  H   UNL d   1      27.782 -15.504  -2.807  0.00  0.00     0.190 HD
ENDROOT
BRANCH   1   5
ATOM      5  C   UNL d   1      25.141 -15.080  -1.961  0.00  0.00     0.143 C 
BRANCH   5   6
ATOM      6  C   UNL d   1      24.648 -16.404  -1.349  0.00  0.00    -0.047 C 
ATOM      7  C   UNL d   1      25.482 -17.366  -0.771  0.00  0.00     0.007 C 
ATOM      8  C   UNL d   1      24.921 -18.517  -0.172  0.00  0.00     0.003 C 
ATOM      9  C   UNL d   1      23.536 -18.778  -0.233  0.00  0.00     0.037 C 
ATOM     10  C   UNL d   1      22.697 -17.844  -0.810  0.00  0.00     0.069 C 
ATOM     11  C   UNL d   1      23.284 -16.673  -1.257  0.00  0.00     0.044 C 
BRANCH  10  12
ATOM     12  O   UNL d   1      21.332 -17.963  -0.738  0.00  0.00    -0.347 OA
BRANCH  12  13
ATOM     13  C   UNL d   1      20.755 -19.256  -0.402  0.00  0.00     0.120 C 
ATOM     14  C   UNL d   1      20.655 -19.325   1.123  0.00  0.00     0.040 C 
ATOM     15  C   UNL d   1      19.341 -19.578  -0.895  0.00  0.00     0.040 C 
ENDBRANCH  12  13
ENDBRANCH  10  12
ENDBRANCH   5   6
ENDBRANCH   1   5
BRANCH   3  16
ATOM     16  N   UNL d   1      27.578 -15.390  -4.891  0.00  0.00    -0.249 N 
ATOM     17  C   UNL d   1      28.910 -15.577  -5.139  0.00  0.00     0.334 C 
ATOM     18  O   UNL d   1      29.725 -15.740  -4.230  0.00  0.00    -0.246 OA
ATOM     19  N   UNL d   1      29.241 -15.576  -6.467  0.00  0.00    -0.341 N 
ATOM     20  H   UNL d   1      28.524 -15.394  -7.150  0.00  0.00     0.164 HD
ATOM     21  H   UNL d   1      26.868 -15.248  -5.612  0.00  0.00     0.192 HD
BRANCH  19  22
ATOM     22  C   UNL d   1      30.610 -15.778  -6.899  0.00  0.00     0.129 C 
BRANCH  22  23
ATOM     23  C   UNL d   1      31.024 -17.219  -7.011  0.00  0.00     0.003 A 
ATOM     24  C   UNL d   1      31.869 -17.944  -5.989  0.00  0.00     0.007 A 
ATOM     25  C   UNL d   1      30.405 -18.272  -6.123  0.00  0.00     0.007 A 
ENDBRANCH  22  23
ENDBRANCH  19  22
ENDBRANCH   3  16
TORSDOF 7
ENDMDL
MODEL 4
REMARK VINA RESULT:    -7.643      3.972      9.365
REMARK INTER + INTRA:         -11.523
REMARK INTER:                  -9.731
REMARK INTRA:                  -1.792
REMARK CONF_INDEPENDENT:        2.088
REMARK UNBOUND:                -1.792
REMARK  7 active torsions:
REMARK  status: ('A' for Active; 'I' for Inactive)
REMARK    1  A    between atoms: C_2  and  O_4 
REMARK    2  A    between atoms: O_4  and  C_5 
REMARK    3  A    between atoms: C_9  and  C_10 
REMARK    4  A    between atoms: C_10  and  C_11 
REMARK       I    between atoms: C_11  and  N_13 
REMARK    5  A    between atoms: N_13  and  N_14 
REMARK       I    between atoms: N_14  and  C_15 
REMARK       I    between atoms: C_15  and  N_17 
REMARK    6  A    between atoms: N_17  and  C_18 
REMARK    7  A    between atoms: C_18  and  C_19 
ROOT
ATOM      1  C   UNL d   1      25.175 -14.686  -3.148  0.00  0.00     0.240 C 
ATOM      2  O   UNL d   1      24.008 -14.451  -3.473  0.00  0.00    -0.272 OA
ATOM      3  N   UNL d   1      25.999 -13.587  -3.149  0.00  0.00    -0.266 N 
ATOM      4  H   UNL d   1      26.964 -13.544  -2.834  0.00  0.00     0.190 HD
ENDROOT
BRANCH   1   5
ATOM      5  C   UNL d   1      25.762 -16.077  -2.741  0.00  0.00     0.143 C 
BRANCH   5   6
ATOM      6  C   UNL d   1      25.076 -16.845  -1.596  0.00  0.00    -0.047 C 
ATOM      7  C   UNL d   1      25.724 -17.279  -0.437  0.00  0.00     0.007 C 
ATOM      8  C   UNL d   1      24.985 -17.916   0.588  0.00  0.00     0.003 C 
ATOM      9  C   UNL d   1      23.618 -18.222   0.428  0.00  0.00     0.037 C 
ATOM     10  C   UNL d   1      22.962 -17.810  -0.717  0.00  0.00     0.069 C 
ATOM     11  C   UNL d   1      23.701 -17.072  -1.625  0.00  0.00     0.044 C 
BRANCH  10  12
ATOM     12  O   UNL d   1      21.601 -17.924  -0.846  0.00  0.00    -0.347 OA
BRANCH  12  13
ATOM     13  C   UNL d   1      20.977 -19.217  -0.603  0.00  0.00     0.120 C 
ATOM     14  C   UNL d   1      20.727 -19.322   0.902  0.00  0.00     0.040 C 
ATOM     15  C   UNL d   1      19.614 -19.503  -1.240  0.00  0.00     0.040 C 
ENDBRANCH  12  13
ENDBRANCH  10  12
ENDBRANCH   5   6
ENDBRANCH   1   5
BRANCH   3  16
ATOM     16  N   UNL d   1      25.379 -12.353  -3.517  0.00  0.00    -0.249 N 
ATOM     17  C   UNL d   1      26.119 -11.203  -3.568  0.00  0.00     0.334 C 
ATOM     18  O   UNL d   1      27.319 -11.190  -3.295  0.00  0.00    -0.246 OA
ATOM     19  N   UNL d   1      25.413 -10.095  -3.954  0.00  0.00    -0.341 N 
ATOM     20  H   UNL d   1      24.424 -10.179  -4.119  0.00  0.00     0.164 HD
ATOM     21  H   UNL d   1      24.381 -12.410  -3.731  0.00  0.00     0.192 HD
BRANCH  19  22
ATOM     22  C   UNL d   1      26.055  -8.801  -4.074  0.00  0.00     0.129 C 
BRANCH  22  23
ATOM     23  C   UNL d   1      25.288  -7.796  -4.885  0.00  0.00     0.003 A 
ATOM     24  C   UNL d   1      24.830  -8.021  -6.309  0.00  0.00     0.007 A 
ATOM     25  C   UNL d   1      23.823  -8.004  -5.190  0.00  0.00     0.007 A 
ENDBRANCH  22  23
ENDBRANCH  19  22
ENDBRANCH   3  16
TORSDOF 7
ENDMDL
MODEL 5
REMARK VINA RESULT:    -7.595      1.736      2.278
REMARK INTER + INTRA:         -11.611
REMARK INTER:                  -9.683
REMARK INTRA:                  -1.928
REMARK CONF_INDEPENDENT:        2.088
REMARK UNBOUND:                -1.928
REMARK  7 active torsions:
REMARK  status: ('A' for Active; 'I' for Inactive)
REMARK    1  A    between atoms: C_2  and  O_4 
REMARK    2  A    between atoms: O_4  and  C_5 
REMARK    3  A    between atoms: C_9  and  C_10 
REMARK    4  A    between atoms: C_10  and  C_11 
REMARK       I    between atoms: C_11  and  N_13 
REMARK    5  A    between atoms: N_13  and  N_14 
REMARK       I    between atoms: N_14  and  C_15 
REMARK       I    between atoms: C_15  and  N_17 
REMARK    6  A    between atoms: N_17  and  C_18 
REMARK    7  A    between atoms: C_18  and  C_19 
ROOT
ATOM      1  C   UNL d   1      25.133 -17.016  -0.237  0.00  0.00     0.240 C 
ATOM      2  O   UNL d   1      25.566 -17.996   0.377  0.00  0.00    -0.272 OA
ATOM      3  N   UNL d   1      23.830 -17.137  -0.657  0.00  0.00    -0.266 N 
ATOM      4  H   UNL d   1      23.260 -16.422  -1.098  0.00  0.00     0.190 HD
ENDROOT
BRANCH   1   5
ATOM      5  C   UNL d   1      25.915 -15.698  -0.550  0.00  0.00     0.143 C 
BRANCH   5   6
ATOM      6  C   UNL d   1      25.877 -15.160  -1.991  0.00  0.00    -0.047 C 
ATOM      7  C   UNL d   1      25.820 -15.963  -3.134  0.00  0.00     0.007 C 
ATOM      8  C   UNL d   1      25.717 -15.366  -4.412  0.00  0.00     0.003 C 
ATOM      9  C   UNL d   1      25.776 -13.967  -4.577  0.00  0.00     0.037 C 
ATOM     10  C   UNL d   1      25.843 -13.156  -3.459  0.00  0.00     0.069 C 
ATOM     11  C   UNL d   1      25.803 -13.789  -2.230  0.00  0.00     0.044 C 
BRANCH  10  12
ATOM     12  O   UNL d   1      25.723 -11.792  -3.553  0.00  0.00    -0.347 OA
BRANCH  12  13
ATOM     13  C   UNL d   1      25.908 -11.157  -4.849  0.00  0.00     0.120 C 
ATOM     14  C   UNL d   1      25.638  -9.663  -4.663  0.00  0.00     0.040 C 
ATOM     15  C   UNL d   1      27.290 -11.219  -5.506  0.00  0.00     0.040 C 
ENDBRANCH  12  13
ENDBRANCH  10  12
ENDBRANCH   5   6
ENDBRANCH   1   5
BRANCH   3  16
ATOM     16  N   UNL d   1      23.184 -18.365  -0.314  0.00  0.00    -0.249 N 
ATOM     17  C   UNL d   1      21.841 -18.513  -0.525  0.00  0.00     0.334 C 
ATOM     18  O   UNL d   1      21.152 -17.609  -0.999  0.00  0.00    -0.246 OA
ATOM     19  N   UNL d   1      21.348 -19.741  -0.176  0.00  0.00    -0.341 N 
ATOM     20  H   UNL d   1      21.967 -20.415   0.245  0.00  0.00     0.164 HD
ATOM     21  H   UNL d   1      23.793 -19.085   0.078  0.00  0.00     0.192 HD
BRANCH  19  22
ATOM     22  C   UNL d   1      19.946 -20.065  -0.352  0.00  0.00     0.129 C 
BRANCH  22  23
ATOM     23  C   UNL d   1      19.109 -19.915   0.887  0.00  0.00     0.003 A 
ATOM     24  C   UNL d   1      18.429 -21.062   1.599  0.00  0.00     0.007 A 
ATOM     25  C   UNL d   1      19.620 -20.388   2.227  0.00  0.00     0.007 A 
ENDBRANCH  22  23
ENDBRANCH  19  22
ENDBRANCH   3  16
TORSDOF 7
ENDMDL
MODEL 6
REMARK VINA RESULT:    -7.479      3.517      9.471
REMARK INTER + INTRA:         -11.222
REMARK INTER:                  -9.567
REMARK INTRA:                  -1.656
REMARK CONF_INDEPENDENT:        2.088
REMARK UNBOUND:                -1.656
REMARK  7 active torsions:
REMARK  status: ('A' for Active; 'I' for Inactive)
REMARK    1  A    between atoms: C_2  and  O_4 
REMARK    2  A    between atoms: O_4  and  C_5 
REMARK    3  A    between atoms: C_9  and  C_10 
REMARK    4  A    between atoms: C_10  and  C_11 
REMARK       I    between atoms: C_11  and  N_13 
REMARK    5  A    between atoms: N_13  and  N_14 
REMARK       I    between atoms: N_14  and  C_15 
REMARK       I    between atoms: C_15  and  N_17 
REMARK    6  A    between atoms: N_17  and  C_18 
REMARK    7  A    between atoms: C_18  and  C_19 
ROOT
ATOM      1  C   UNL d   1      25.442 -14.125  -2.766  0.00  0.00     0.240 C 
ATOM      2  O   UNL d   1      24.775 -14.662  -3.654  0.00  0.00    -0.272 OA
ATOM      3  N   UNL d   1      25.804 -12.826  -3.031  0.00  0.00    -0.266 N 
ATOM      4  H   UNL d   1      26.275 -12.182  -2.403  0.00  0.00     0.190 HD
ENDROOT
BRANCH   1   5
ATOM      5  C   UNL d   1      25.882 -14.777  -1.414  0.00  0.00     0.143 C 
BRANCH   5   6
ATOM      6  C   UNL d   1      25.301 -16.156  -1.053  0.00  0.00    -0.047 C 
ATOM      7  C   UNL d   1      26.042 -17.207  -0.504  0.00  0.00     0.007 C 
ATOM      8  C   UNL d   1      25.396 -18.412  -0.142  0.00  0.00     0.003 C 
ATOM      9  C   UNL d   1      24.030 -18.626  -0.417  0.00  0.00     0.037 C 
ATOM     10  C   UNL d   1      23.282 -17.603  -0.970  0.00  0.00     0.069 C 
ATOM     11  C   UNL d   1      23.934 -16.399  -1.176  0.00  0.00     0.044 C 
BRANCH  10  12
ATOM     12  O   UNL d   1      21.919 -17.694  -1.093  0.00  0.00    -0.347 OA
BRANCH  12  13
ATOM     13  C   UNL d   1      21.251 -18.904  -0.637  0.00  0.00     0.120 C 
ATOM     14  C   UNL d   1      21.386 -18.950   0.886  0.00  0.00     0.040 C 
ATOM     15  C   UNL d   1      19.749 -19.053  -0.894  0.00  0.00     0.040 C 
ENDBRANCH  12  13
ENDBRANCH  10  12
ENDBRANCH   5   6
ENDBRANCH   1   5
BRANCH   3  16
ATOM     16  N   UNL d   1      25.347 -12.303  -4.280  0.00  0.00    -0.249 N 
ATOM     17  C   UNL d   1      25.944 -11.197  -4.818  0.00  0.00     0.334 C 
ATOM     18  O   UNL d   1      26.872 -10.618  -4.252  0.00  0.00    -0.246 OA
ATOM     19  N   UNL d   1      25.430 -10.809  -6.026  0.00  0.00    -0.341 N 
ATOM     20  H   UNL d   1      24.643 -11.309  -6.404  0.00  0.00     0.164 HD
ATOM     21  H   UNL d   1      24.573 -12.812  -4.711  0.00  0.00     0.192 HD
BRANCH  19  22
ATOM     22  C   UNL d   1      25.964  -9.665  -6.737  0.00  0.00     0.129 C 
BRANCH  22  23
ATOM     23  C   UNL d   1      26.968 -10.004  -7.802  0.00  0.00     0.003 A 
ATOM     24  C   UNL d   1      27.795 -11.270  -7.822  0.00  0.00     0.007 A 
ATOM     25  C   UNL d   1      26.682 -11.084  -8.819  0.00  0.00     0.007 A 
ENDBRANCH  22  23
ENDBRANCH  19  22
ENDBRANCH   3  16
TORSDOF 7
ENDMDL
MODEL 7
REMARK VINA RESULT:    -7.242      3.798      5.741
REMARK INTER + INTRA:         -11.211
REMARK INTER:                  -9.330
REMARK INTRA:                  -1.881
REMARK CONF_INDEPENDENT:        2.088
REMARK UNBOUND:                -1.881
REMARK  7 active torsions:
REMARK  status: ('A' for Active; 'I' for Inactive)
REMARK    1  A    between atoms: C_2  and  O_4 
REMARK    2  A    between atoms: O_4  and  C_5 
REMARK    3  A    between atoms: C_9  and  C_10 
REMARK    4  A    between atoms: C_10  and  C_11 
REMARK       I    between atoms: C_11  and  N_13 
REMARK    5  A    between atoms: N_13  and  N_14 
REMARK       I    between atoms: N_14  and  C_15 
REMARK       I    between atoms: C_15  and  N_17 
REMARK    6  A    between atoms: N_17  and  C_18 
REMARK    7  A    between atoms: C_18  and  C_19 
ROOT
ATOM      1  C   UNL d   1      26.390 -17.520   0.213  0.00  0.00     0.240 C 
ATOM      2  O   UNL d   1      26.482 -18.512   0.941  0.00  0.00    -0.272 OA
ATOM      3  N   UNL d   1      25.191 -17.406  -0.448  0.00  0.00    -0.266 N 
ATOM      4  H   UNL d   1      24.878 -16.629  -1.022  0.00  0.00     0.190 HD
ENDROOT
BRANCH   1   5
ATOM      5  C   UNL d   1      27.483 -16.421   0.001  0.00  0.00     0.143 C 
BRANCH   5   6
ATOM      6  C   UNL d   1      27.309 -15.077   0.731  0.00  0.00    -0.047 C 
ATOM      7  C   UNL d   1      26.415 -14.076   0.342  0.00  0.00     0.007 C 
ATOM      8  C   UNL d   1      26.282 -12.905   1.124  0.00  0.00     0.003 C 
ATOM      9  C   UNL d   1      27.109 -12.669   2.241  0.00  0.00     0.037 C 
ATOM     10  C   UNL d   1      28.008 -13.643   2.635  0.00  0.00     0.069 C 
ATOM     11  C   UNL d   1      27.999 -14.824   1.915  0.00  0.00     0.044 C 
BRANCH  10  12
ATOM     12  O   UNL d   1      28.707 -13.541   3.811  0.00  0.00    -0.347 OA
BRANCH  12  13
ATOM     13  C   UNL d   1      28.026 -13.836   5.063  0.00  0.00     0.120 C 
ATOM     14  C   UNL d   1      28.901 -14.826   5.833  0.00  0.00     0.040 C 
ATOM     15  C   UNL d   1      27.781 -12.692   6.051  0.00  0.00     0.040 C 
ENDBRANCH  12  13
ENDBRANCH  10  12
ENDBRANCH   5   6
ENDBRANCH   1   5
BRANCH   3  16
ATOM     16  N   UNL d   1      24.243 -18.443  -0.183  0.00  0.00    -0.249 N 
ATOM     17  C   UNL d   1      22.915 -18.237  -0.438  0.00  0.00     0.334 C 
ATOM     18  O   UNL d   1      22.496 -17.168  -0.885  0.00  0.00    -0.246 OA
ATOM     19  N   UNL d   1      22.114 -19.313  -0.163  0.00  0.00    -0.341 N 
ATOM     20  H   UNL d   1      22.526 -20.138   0.240  0.00  0.00     0.164 HD
ATOM     21  H   UNL d   1      24.634 -19.310   0.190  0.00  0.00     0.192 HD
BRANCH  19  22
ATOM     22  C   UNL d   1      20.684 -19.263  -0.394  0.00  0.00     0.129 C 
BRANCH  22  23
ATOM     23  C   UNL d   1      19.904 -20.357   0.278  0.00  0.00     0.003 A 
ATOM     24  C   UNL d   1      18.986 -20.145   1.461  0.00  0.00     0.007 A 
ATOM     25  C   UNL d   1      18.406 -20.456   0.107  0.00  0.00     0.007 A 
ENDBRANCH  22  23
ENDBRANCH  19  22
ENDBRANCH   3  16
TORSDOF 7
ENDMDL
MODEL 8
REMARK VINA RESULT:    -7.050      3.700      9.927
REMARK INTER + INTRA:         -11.006
REMARK INTER:                  -9.138
REMARK INTRA:                  -1.868
REMARK CONF_INDEPENDENT:        2.088
REMARK UNBOUND:                -1.868
REMARK  7 active torsions:
REMARK  status: ('A' for Active; 'I' for Inactive)
REMARK    1  A    between atoms: C_2  and  O_4 
REMARK    2  A    between atoms: O_4  and  C_5 
REMARK    3  A    between atoms: C_9  and  C_10 
REMARK    4  A    between atoms: C_10  and  C_11 
REMARK       I    between atoms: C_11  and  N_13 
REMARK    5  A    between atoms: N_13  and  N_14 
REMARK       I    between atoms: N_14  and  C_15 
REMARK       I    between atoms: C_15  and  N_17 
REMARK    6  A    between atoms: N_17  and  C_18 
REMARK    7  A    between atoms: C_18  and  C_19 
ROOT
ATOM      1  C   UNL d   1      26.183 -14.712  -4.680  0.00  0.00     0.240 C 
ATOM      2  O   UNL d   1      26.226 -15.727  -5.380  0.00  0.00    -0.272 OA
ATOM      3  N   UNL d   1      26.984 -13.684  -5.115  0.00  0.00    -0.266 N 
ATOM      4  H   UNL d   1      27.032 -12.742  -4.738  0.00  0.00     0.190 HD
ENDROOT
BRANCH   1   5
ATOM      5  C   UNL d   1      25.315 -14.508  -3.394  0.00  0.00     0.143 C 
BRANCH   5   6
ATOM      6  C   UNL d   1      25.421 -15.560  -2.276  0.00  0.00    -0.047 C 
ATOM      7  C   UNL d   1      26.623 -16.099  -1.809  0.00  0.00     0.007 C 
ATOM      8  C   UNL d   1      26.616 -17.009  -0.727  0.00  0.00     0.003 C 
ATOM      9  C   UNL d   1      25.409 -17.474  -0.164  0.00  0.00     0.037 C 
ATOM     10  C   UNL d   1      24.208 -16.961  -0.620  0.00  0.00     0.069 C 
ATOM     11  C   UNL d   1      24.283 -15.973  -1.586  0.00  0.00     0.044 C 
BRANCH  10  12
ATOM     12  O   UNL d   1      23.022 -17.243   0.008  0.00  0.00    -0.347 OA
BRANCH  12  13
ATOM     13  C   UNL d   1      22.087 -18.157  -0.631  0.00  0.00     0.120 C 
ATOM     14  C   UNL d   1      22.873 -18.949  -1.678  0.00  0.00     0.040 C 
ATOM     15  C   UNL d   1      21.404 -19.226   0.227  0.00  0.00     0.040 C 
ENDBRANCH  12  13
ENDBRANCH  10  12
ENDBRANCH   5   6
ENDBRANCH   1   5
BRANCH   3  16
ATOM     16  N   UNL d   1      27.729 -13.947  -6.306  0.00  0.00    -0.249 N 
ATOM     17  C   UNL d   1      28.224 -12.909  -7.047  0.00  0.00     0.334 C 
ATOM     18  O   UNL d   1      28.039 -11.735  -6.726  0.00  0.00    -0.246 OA
ATOM     19  N   UNL d   1      28.937 -13.294  -8.150  0.00  0.00    -0.341 N 
ATOM     20  H   UNL d   1      29.009 -14.274  -8.368  0.00  0.00     0.164 HD
ATOM     21  H   UNL d   1      27.855 -14.935  -6.535  0.00  0.00     0.192 HD
BRANCH  19  22
ATOM     22  C   UNL d   1      29.542 -12.315  -9.031  0.00  0.00     0.129 C 
BRANCH  22  23
ATOM     23  C   UNL d   1      28.696 -11.929 -10.212  0.00  0.00     0.003 A 
ATOM     24  C   UNL d   1      27.193 -12.085 -10.270  0.00  0.00     0.007 A 
ATOM     25  C   UNL d   1      27.802 -10.713 -10.159  0.00  0.00     0.007 A 
ENDBRANCH  22  23
ENDBRANCH  19  22
ENDBRANCH   3  16
TORSDOF 7
ENDMDL
MODEL 9
REMARK VINA RESULT:    -7.042      3.054      9.802
REMARK INTER + INTRA:         -11.047
REMARK INTER:                  -9.130
REMARK INTRA:                  -1.917
REMARK CONF_INDEPENDENT:        2.088
REMARK UNBOUND:                -1.917
REMARK  7 active torsions:
REMARK  status: ('A' for Active; 'I' for Inactive)
REMARK    1  A    between atoms: C_2  and  O_4 
REMARK    2  A    between atoms: O_4  and  C_5 
REMARK    3  A    between atoms: C_9  and  C_10 
REMARK    4  A    between atoms: C_10  and  C_11 
REMARK       I    between atoms: C_11  and  N_13 
REMARK    5  A    between atoms: N_13  and  N_14 
REMARK       I    between atoms: N_14  and  C_15 
REMARK       I    between atoms: C_15  and  N_17 
REMARK    6  A    between atoms: N_17  and  C_18 
REMARK    7  A    between atoms: C_18  and  C_19 
ROOT
ATOM      1  C   UNL d   1      25.794 -14.972  -3.855  0.00  0.00     0.240 C 
ATOM      2  O   UNL d   1      25.224 -14.916  -4.949  0.00  0.00    -0.272 OA
ATOM      3  N   UNL d   1      27.155 -15.144  -3.929  0.00  0.00    -0.266 N 
ATOM      4  H   UNL d   1      27.817 -15.129  -3.159  0.00  0.00     0.190 HD
ENDROOT
BRANCH   1   5
ATOM      5  C   UNL d   1      25.116 -14.856  -2.450  0.00  0.00     0.143 C 
BRANCH   5   6
ATOM      6  C   UNL d   1      24.884 -16.151  -1.650  0.00  0.00    -0.047 C 
ATOM      7  C   UNL d   1      25.897 -17.032  -1.261  0.00  0.00     0.007 C 
ATOM      8  C   UNL d   1      25.586 -18.158  -0.466  0.00  0.00     0.003 C 
ATOM      9  C   UNL d   1      24.253 -18.480  -0.135  0.00  0.00     0.037 C 
ATOM     10  C   UNL d   1      23.236 -17.627  -0.520  0.00  0.00     0.069 C 
ATOM     11  C   UNL d   1      23.613 -16.469  -1.178  0.00  0.00     0.044 C 
BRANCH  10  12
ATOM     12  O   UNL d   1      21.949 -17.797  -0.076  0.00  0.00    -0.347 OA
BRANCH  12  13
ATOM     13  C   UNL d   1      21.332 -19.110  -0.193  0.00  0.00     0.120 C 
ATOM     14  C   UNL d   1      20.601 -19.385   1.122  0.00  0.00     0.040 C 
ATOM     15  C   UNL d   1      20.270 -19.326  -1.276  0.00  0.00     0.040 C 
ENDBRANCH  12  13
ENDBRANCH  10  12
ENDBRANCH   5   6
ENDBRANCH   1   5
BRANCH   3  16
ATOM     16  N   UNL d   1      27.694 -15.222  -5.250  0.00  0.00    -0.249 N 
ATOM     17  C   UNL d   1      29.022 -15.497  -5.432  0.00  0.00     0.334 C 
ATOM     18  O   UNL d   1      29.786 -15.672  -4.482  0.00  0.00    -0.246 OA
ATOM     19  N   UNL d   1      29.409 -15.566  -6.743  0.00  0.00    -0.341 N 
ATOM     20  H   UNL d   1      28.734 -15.368  -7.463  0.00  0.00     0.164 HD
ATOM     21  H   UNL d   1      27.026 -15.066  -6.007  0.00  0.00     0.192 HD
BRANCH  19  22
ATOM     22  C   UNL d   1      30.780 -15.865  -7.106  0.00  0.00     0.129 C 
BRANCH  22  23
ATOM     23  C   UNL d   1      31.550 -14.697  -7.655  0.00  0.00     0.003 A 
ATOM     24  C   UNL d   1      32.133 -13.588  -6.810  0.00  0.00     0.007 A 
ATOM     25  C   UNL d   1      33.045 -14.595  -7.459  0.00  0.00     0.007 A 
ENDBRANCH  22  23
ENDBRANCH  19  22
ENDBRANCH   3  16
TORSDOF 7
ENDMDL
