MODEL 1
REMARK VINA RESULT:    -8.889      0.000      0.000
REMARK INTER + INTRA:         -13.093
REMARK INTER:                 -11.574
REMARK INTRA:                  -1.519
REMARK CONF_INDEPENDENT:        2.685
REMARK UNBOUND:                -1.519
REMARK  9 active torsions:
REMARK  status: ('A' for Active; 'I' for Inactive)
REMARK    1  A    between atoms: O_2  and  C_3 
REMARK    2  A    between atoms: C_6  and  C_7 
REMARK    3  A    between atoms: C_8  and  C_9 
REMARK       I    between atoms: C_9  and  N_11 
REMARK    4  A    between atoms: N_11  and  C_12 
REMARK    5  A    between atoms: C_12  and  N_14 
REMARK    6  A    between atoms: N_14  and  C_15 
REMARK    7  A    between atoms: C_20  and  C_21 
REMARK       I    between atoms: C_21  and  N_23 
REMARK    8  A    between atoms: N_23  and  C_24 
REMARK    9  A    between atoms: C_25  and  C_24 
ROOT
ATOM      1  N   UNL d   1      25.215 -16.336  -2.611  0.00  0.00    -0.332 N 
ATOM      2  H   UNL d   1      25.397 -16.806  -3.490  0.00  0.00     0.168 HD
ENDROOT
BRANCH   1   3
ATOM      3  C   UNL d   1      25.273 -14.900  -2.643  0.00  0.00     0.179 C 
ATOM      4  S   UNL d   1      24.931 -14.023  -4.049  0.00  0.00    -0.040 SA
BRANCH   3   5
ATOM      5  N   UNL d   1      25.719 -14.346  -1.378  0.00  0.00    -0.300 N 
ATOM      6  C   UNL d   1      26.929 -13.603  -1.166  0.00  0.00     0.247 C 
ATOM      7  O   UNL d   1      27.499 -13.028  -2.114  0.00  0.00    -0.268 OA
ATOM      8  H   UNL d   1      25.385 -14.872  -0.582  0.00  0.00     0.171 HD
BRANCH   6   9
ATOM      9  C   UNL d   1      27.674 -13.572   0.268  0.00  0.00     0.075 C 
ATOM     10  C   UNL d   1      27.112 -13.266   1.498  0.00  0.00     0.017 C 
BRANCH  10  11
ATOM     11  C   UNL d   1      27.626 -13.208   2.893  0.00  0.00    -0.036 A 
ATOM     12  C   UNL d   1      27.724 -12.017   3.684  0.00  0.00     0.014 A 
ATOM     13  C   UNL d   1      28.006 -12.088   5.061  0.00  0.00     0.037 A 
ATOM     14  C   UNL d   1      28.153 -13.344   5.640  0.00  0.00     0.068 A 
ATOM     15  C   UNL d   1      28.047 -14.493   4.854  0.00  0.00     0.037 A 
ATOM     16  C   UNL d   1      27.837 -14.424   3.496  0.00  0.00     0.014 A 
BRANCH  14  17
ATOM     17  O   UNL d   1      28.340 -13.420   6.994  0.00  0.00    -0.356 OA
ATOM     18  C   UNL d   1      29.563 -14.078   7.330  0.00  0.00     0.210 C 
ENDBRANCH  14  17
ENDBRANCH  10  11
ENDBRANCH   6   9
ENDBRANCH   3   5
ENDBRANCH   1   3
BRANCH   1  19
ATOM     19  C   UNL d   1      25.658 -17.072  -1.445  0.00  0.00     0.050 A 
ATOM     20  C   UNL d   1      27.035 -17.047  -1.108  0.00  0.00     0.030 A 
ATOM     21  C   UNL d   1      27.501 -17.625   0.086  0.00  0.00     0.002 A 
ATOM     22  C   UNL d   1      26.594 -18.192   0.974  0.00  0.00     0.001 A 
ATOM     23  C   UNL d   1      25.232 -18.242   0.640  0.00  0.00     0.019 A 
ATOM     24  C   UNL d   1      24.742 -17.717  -0.582  0.00  0.00     0.058 A 
BRANCH  24  25
ATOM     25  C   UNL d   1      23.246 -17.828  -0.834  0.00  0.00     0.254 C 
ATOM     26  O   UNL d   1      22.631 -16.852  -1.259  0.00  0.00    -0.268 OA
ATOM     27  N   UNL d   1      22.591 -19.037  -0.595  0.00  0.00    -0.354 N 
ATOM     28  H   UNL d   1      23.170 -19.819  -0.321  0.00  0.00     0.162 HD
BRANCH  27  29
ATOM     29  C   UNL d   1      21.279 -19.311  -1.220  0.00  0.00     0.155 C 
BRANCH  29  30
ATOM     30  C   UNL d   1      20.056 -18.949  -0.361  0.00  0.00     0.139 C 
ATOM     31  C   UNL d   1      18.830 -19.853  -0.397  0.00  0.00     0.035 C 
ATOM     32  C   UNL d   1      19.090 -20.966   0.605  0.00  0.00     0.029 C 
ATOM     33  C   UNL d   1      20.185 -20.433   1.450  0.00  0.00     0.168 C 
ATOM     34  O   UNL d   1      20.479 -19.118   0.975  0.00  0.00    -0.384 OA
ENDBRANCH  29  30
ENDBRANCH  27  29
ENDBRANCH  24  25
ENDBRANCH   1  19
TORSDOF 9
ENDMDL
MODEL 2
REMARK VINA RESULT:    -8.595      4.432      7.323
REMARK INTER + INTRA:         -13.577
REMARK INTER:                 -11.280
REMARK INTRA:                  -2.297
REMARK CONF_INDEPENDENT:        2.685
REMARK UNBOUND:                -2.297
REMARK  9 active torsions:
REMARK  status: ('A' for Active; 'I' for Inactive)
REMARK    1  A    between atoms: O_2  and  C_3 
REMARK    2  A    between atoms: C_6  and  C_7 
REMARK    3  A    between atoms: C_8  and  C_9 
REMARK       I    between atoms: C_9  and  N_11 
REMARK    4  A    between atoms: N_11  and  C_12 
REMARK    5  A    between atoms: C_12  and  N_14 
REMARK    6  A    between atoms: N_14  and  C_15 
REMARK    7  A    between atoms: C_20  and  C_21 
REMARK       I    between atoms: C_21  and  N_23 
REMARK    8  A    between atoms: N_23  and  C_24 
REMARK    9  A    between atoms: C_25  and  C_24 
ROOT
ATOM      1  N   UNL d   1      25.810 -14.628  -1.522  0.00  0.00    -0.332 N 
ATOM      2  H   UNL d   1      24.986 -14.703  -2.108  0.00  0.00     0.168 HD
ENDROOT
BRANCH   1   3
ATOM      3  C   UNL d   1      26.718 -13.563  -1.851  0.00  0.00     0.179 C 
ATOM      4  S   UNL d   1      27.030 -12.291  -0.779  0.00  0.00    -0.040 SA
BRANCH   3   5
ATOM      5  N   UNL d   1      27.244 -13.693  -3.197  0.00  0.00    -0.300 N 
ATOM      6  C   UNL d   1      26.716 -14.542  -4.227  0.00  0.00     0.247 C 
ATOM      7  O   UNL d   1      25.534 -14.936  -4.185  0.00  0.00    -0.268 OA
ATOM      8  H   UNL d   1      28.238 -13.512  -3.247  0.00  0.00     0.171 HD
BRANCH   6   9
ATOM      9  C   UNL d   1      27.644 -15.125  -5.416  0.00  0.00     0.075 C 
ATOM     10  C   UNL d   1      29.010 -15.357  -5.374  0.00  0.00     0.017 C 
BRANCH  10  11
ATOM     11  C   UNL d   1      30.005 -15.897  -6.340  0.00  0.00    -0.036 A 
ATOM     12  C   UNL d   1      30.828 -15.102  -7.202  0.00  0.00     0.014 A 
ATOM     13  C   UNL d   1      31.895 -15.681  -7.915  0.00  0.00     0.037 A 
ATOM     14  C   UNL d   1      32.149 -17.037  -7.734  0.00  0.00     0.068 A 
ATOM     15  C   UNL d   1      31.340 -17.793  -6.885  0.00  0.00     0.037 A 
ATOM     16  C   UNL d   1      30.257 -17.244  -6.237  0.00  0.00     0.014 A 
BRANCH  14  17
ATOM     17  O   UNL d   1      33.238 -17.584  -8.357  0.00  0.00    -0.356 OA
ATOM     18  C   UNL d   1      32.986 -18.916  -8.805  0.00  0.00     0.210 C 
ENDBRANCH  14  17
ENDBRANCH  10  11
ENDBRANCH   6   9
ENDBRANCH   3   5
ENDBRANCH   1   3
BRANCH   1  19
ATOM     19  C   UNL d   1      26.301 -15.898  -1.029  0.00  0.00     0.050 A 
ATOM     20  C   UNL d   1      27.695 -16.054  -0.823  0.00  0.00     0.030 A 
ATOM     21  C   UNL d   1      28.214 -17.211  -0.217  0.00  0.00     0.002 A 
ATOM     22  C   UNL d   1      27.346 -18.201   0.230  0.00  0.00     0.001 A 
ATOM     23  C   UNL d   1      25.967 -18.067   0.012  0.00  0.00     0.019 A 
ATOM     24  C   UNL d   1      25.420 -16.936  -0.647  0.00  0.00     0.058 A 
BRANCH  24  25
ATOM     25  C   UNL d   1      23.910 -16.900  -0.827  0.00  0.00     0.254 C 
ATOM     26  O   UNL d   1      23.412 -16.077  -1.592  0.00  0.00    -0.268 OA
ATOM     27  N   UNL d   1      23.109 -17.809  -0.133  0.00  0.00    -0.354 N 
ATOM     28  H   UNL d   1      23.588 -18.507   0.418  0.00  0.00     0.162 HD
BRANCH  27  29
ATOM     29  C   UNL d   1      21.733 -18.092  -0.595  0.00  0.00     0.155 C 
BRANCH  29  30
ATOM     30  C   UNL d   1      21.307 -19.568  -0.520  0.00  0.00     0.139 C 
ATOM     31  C   UNL d   1      20.606 -20.075   0.734  0.00  0.00     0.035 C 
ATOM     32  C   UNL d   1      19.132 -19.754   0.560  0.00  0.00     0.029 C 
ATOM     33  C   UNL d   1      18.994 -19.502  -0.895  0.00  0.00     0.168 C 
ATOM     34  O   UNL d   1      20.281 -19.706  -1.479  0.00  0.00    -0.384 OA
ENDBRANCH  29  30
ENDBRANCH  27  29
ENDBRANCH  24  25
ENDBRANCH   1  19
TORSDOF 9
ENDMDL
MODEL 3
REMARK VINA RESULT:    -8.589      3.027      5.612
REMARK INTER + INTRA:         -13.545
REMARK INTER:                 -11.274
REMARK INTRA:                  -2.271
REMARK CONF_INDEPENDENT:        2.685
REMARK UNBOUND:                -2.271
REMARK  9 active torsions:
REMARK  status: ('A' for Active; 'I' for Inactive)
REMARK    1  A    between atoms: O_2  and  C_3 
REMARK    2  A    between atoms: C_6  and  C_7 
REMARK    3  A    between atoms: C_8  and  C_9 
REMARK       I    between atoms: C_9  and  N_11 
REMARK    4  A    between atoms: N_11  and  C_12 
REMARK    5  A    between atoms: C_12  and  N_14 
REMARK    6  A    between atoms: N_14  and  C_15 
REMARK    7  A    between atoms: C_20  and  C_21 
REMARK       I    between atoms: C_21  and  N_23 
REMARK    8  A    between atoms: N_23  and  C_24 
REMARK    9  A    between atoms: C_25  and  C_24 
ROOT
ATOM      1  N   UNL d   1      27.411 -16.452  -1.556  0.00  0.00    -0.332 N 
ATOM      2  H   UNL d   1      27.640 -16.606  -2.531  0.00  0.00     0.168 HD
ENDROOT
BRANCH   1   3
ATOM      3  C   UNL d   1      28.508 -16.549  -0.632  0.00  0.00     0.179 C 
ATOM      4  S   UNL d   1      29.958 -17.320  -1.041  0.00  0.00    -0.040 SA
BRANCH   3   5
ATOM      5  N   UNL d   1      28.179 -15.982   0.663  0.00  0.00    -0.300 N 
ATOM      6  C   UNL d   1      27.506 -14.734   0.887  0.00  0.00     0.247 C 
ATOM      7  O   UNL d   1      26.797 -14.223  -0.001  0.00  0.00    -0.268 OA
ATOM      8  H   UNL d   1      28.821 -16.269   1.390  0.00  0.00     0.171 HD
BRANCH   6   9
ATOM      9  C   UNL d   1      27.727 -13.873   2.238  0.00  0.00     0.075 C 
ATOM     10  C   UNL d   1      28.110 -14.351   3.482  0.00  0.00     0.017 C 
BRANCH  10  11
ATOM     11  C   UNL d   1      28.378 -13.720   4.803  0.00  0.00    -0.036 A 
ATOM     12  C   UNL d   1      27.979 -12.395   5.176  0.00  0.00     0.014 A 
ATOM     13  C   UNL d   1      28.072 -11.964   6.513  0.00  0.00     0.037 A 
ATOM     14  C   UNL d   1      28.528 -12.868   7.467  0.00  0.00     0.068 A 
ATOM     15  C   UNL d   1      28.905 -14.157   7.084  0.00  0.00     0.037 A 
ATOM     16  C   UNL d   1      28.877 -14.560   5.768  0.00  0.00     0.014 A 
BRANCH  14  17
ATOM     17  O   UNL d   1      28.538 -12.481   8.779  0.00  0.00    -0.356 OA
ATOM     18  C   UNL d   1      28.625 -13.598   9.666  0.00  0.00     0.210 C 
ENDBRANCH  14  17
ENDBRANCH  10  11
ENDBRANCH   6   9
ENDBRANCH   3   5
ENDBRANCH   1   3
BRANCH   1  19
ATOM     19  C   UNL d   1      26.084 -16.896  -1.184  0.00  0.00     0.050 A 
ATOM     20  C   UNL d   1      25.956 -17.884  -0.175  0.00  0.00     0.030 A 
ATOM     21  C   UNL d   1      24.694 -18.252   0.324  0.00  0.00     0.002 A 
ATOM     22  C   UNL d   1      23.555 -17.607  -0.145  0.00  0.00     0.001 A 
ATOM     23  C   UNL d   1      23.669 -16.644  -1.159  0.00  0.00     0.019 A 
ATOM     24  C   UNL d   1      24.923 -16.293  -1.720  0.00  0.00     0.058 A 
BRANCH  24  25
ATOM     25  C   UNL d   1      24.922 -15.236  -2.813  0.00  0.00     0.254 C 
ATOM     26  O   UNL d   1      24.082 -14.339  -2.785  0.00  0.00    -0.268 OA
ATOM     27  N   UNL d   1      25.881 -15.287  -3.826  0.00  0.00    -0.354 N 
ATOM     28  H   UNL d   1      26.587 -16.004  -3.745  0.00  0.00     0.162 HD
BRANCH  27  29
ATOM     29  C   UNL d   1      26.183 -14.081  -4.627  0.00  0.00     0.155 C 
BRANCH  29  30
ATOM     30  C   UNL d   1      27.344 -14.231  -5.624  0.00  0.00     0.139 C 
ATOM     31  C   UNL d   1      28.652 -13.496  -5.357  0.00  0.00     0.035 C 
ATOM     32  C   UNL d   1      29.459 -14.384  -4.425  0.00  0.00     0.029 C 
ATOM     33  C   UNL d   1      28.813 -15.712  -4.555  0.00  0.00     0.168 C 
ATOM     34  O   UNL d   1      27.760 -15.575  -5.509  0.00  0.00    -0.384 OA
ENDBRANCH  29  30
ENDBRANCH  27  29
ENDBRANCH  24  25
ENDBRANCH   1  19
TORSDOF 9
ENDMDL
MODEL 4
REMARK VINA RESULT:    -8.295      4.284      8.024
REMARK INTER + INTRA:         -12.957
REMARK INTER:                 -10.980
REMARK INTRA:                  -1.978
REMARK CONF_INDEPENDENT:        2.685
REMARK UNBOUND:                -1.978
REMARK  9 active torsions:
REMARK  status: ('A' for Active; 'I' for Inactive)
REMARK    1  A    between atoms: O_2  and  C_3 
REMARK    2  A    between atoms: C_6  and  C_7 
REMARK    3  A    between atoms: C_8  and  C_9 
REMARK       I    between atoms: C_9  and  N_11 
REMARK    4  A    between atoms: N_11  and  C_12 
REMARK    5  A    between atoms: C_12  and  N_14 
REMARK    6  A    between atoms: N_14  and  C_15 
REMARK    7  A    between atoms: C_20  and  C_21 
REMARK       I    between atoms: C_21  and  N_23 
REMARK    8  A    between atoms: N_23  and  C_24 
REMARK    9  A    between atoms: C_25  and  C_24 
ROOT
ATOM      1  N   UNL d   1      29.932 -16.728  -3.174  0.00  0.00    -0.332 N 
ATOM      2  H   UNL d   1      29.073 -17.264  -3.215  0.00  0.00     0.168 HD
ENDROOT
BRANCH   1   3
ATOM      3  C   UNL d   1      30.180 -16.034  -1.939  0.00  0.00     0.179 C 
ATOM      4  S   UNL d   1      31.719 -15.464  -1.528  0.00  0.00    -0.040 SA
BRANCH   3   5
ATOM      5  N   UNL d   1      28.994 -15.965  -1.107  0.00  0.00    -0.300 N 
ATOM      6  C   UNL d   1      28.270 -17.087  -0.579  0.00  0.00     0.247 C 
ATOM      7  O   UNL d   1      28.819 -18.199  -0.457  0.00  0.00    -0.268 OA
ATOM      8  H   UNL d   1      28.444 -15.133  -1.278  0.00  0.00     0.171 HD
BRANCH   6   9
ATOM      9  C   UNL d   1      26.692 -17.004  -0.236  0.00  0.00     0.075 C 
ATOM     10  C   UNL d   1      25.659 -17.667  -0.881  0.00  0.00     0.017 C 
BRANCH  10  11
ATOM     11  C   UNL d   1      24.184 -17.727  -0.694  0.00  0.00    -0.036 A 
ATOM     12  C   UNL d   1      23.288 -16.623  -0.870  0.00  0.00     0.014 A 
ATOM     13  C   UNL d   1      21.895 -16.823  -0.895  0.00  0.00     0.037 A 
ATOM     14  C   UNL d   1      21.413 -18.122  -0.779  0.00  0.00     0.068 A 
ATOM     15  C   UNL d   1      22.303 -19.186  -0.616  0.00  0.00     0.037 A 
ATOM     16  C   UNL d   1      23.661 -18.986  -0.526  0.00  0.00     0.014 A 
BRANCH  14  17
ATOM     17  O   UNL d   1      20.065 -18.330  -0.891  0.00  0.00    -0.356 OA
ATOM     18  C   UNL d   1      19.709 -19.689  -0.632  0.00  0.00     0.210 C 
ENDBRANCH  14  17
ENDBRANCH  10  11
ENDBRANCH   6   9
ENDBRANCH   3   5
ENDBRANCH   1   3
BRANCH   1  19
ATOM     19  C   UNL d   1      30.330 -16.153  -4.442  0.00  0.00     0.050 A 
ATOM     20  C   UNL d   1      31.689 -16.249  -4.836  0.00  0.00     0.030 A 
ATOM     21  C   UNL d   1      32.105 -15.835  -6.113  0.00  0.00     0.002 A 
ATOM     22  C   UNL d   1      31.165 -15.363  -7.023  0.00  0.00     0.001 A 
ATOM     23  C   UNL d   1      29.822 -15.243  -6.636  0.00  0.00     0.019 A 
ATOM     24  C   UNL d   1      29.383 -15.601  -5.337  0.00  0.00     0.058 A 
BRANCH  24  25
ATOM     25  C   UNL d   1      27.903 -15.428  -5.032  0.00  0.00     0.254 C 
ATOM     26  O   UNL d   1      27.119 -15.204  -5.952  0.00  0.00    -0.268 OA
ATOM     27  N   UNL d   1      27.450 -15.537  -3.716  0.00  0.00    -0.354 N 
ATOM     28  H   UNL d   1      28.135 -15.798  -3.021  0.00  0.00     0.162 HD
BRANCH  27  29
ATOM     29  C   UNL d   1      26.022 -15.805  -3.440  0.00  0.00     0.155 C 
BRANCH  29  30
ATOM     30  C   UNL d   1      25.254 -14.649  -2.778  0.00  0.00     0.139 C 
ATOM     31  C   UNL d   1      26.026 -13.430  -2.289  0.00  0.00     0.035 C 
ATOM     32  C   UNL d   1      26.186 -12.513  -3.490  0.00  0.00     0.029 C 
ATOM     33  C   UNL d   1      25.167 -13.006  -4.448  0.00  0.00     0.168 C 
ATOM     34  O   UNL d   1      24.477 -14.082  -3.810  0.00  0.00    -0.384 OA
ENDBRANCH  29  30
ENDBRANCH  27  29
ENDBRANCH  24  25
ENDBRANCH   1  19
TORSDOF 9
ENDMDL
MODEL 5
REMARK VINA RESULT:    -7.844      3.592      9.152
REMARK INTER + INTRA:         -12.921
REMARK INTER:                 -10.529
REMARK INTRA:                  -2.392
REMARK CONF_INDEPENDENT:        2.685
REMARK UNBOUND:                -2.392
REMARK  9 active torsions:
REMARK  status: ('A' for Active; 'I' for Inactive)
REMARK    1  A    between atoms: O_2  and  C_3 
REMARK    2  A    between atoms: C_6  and  C_7 
REMARK    3  A    between atoms: C_8  and  C_9 
REMARK       I    between atoms: C_9  and  N_11 
REMARK    4  A    between atoms: N_11  and  C_12 
REMARK    5  A    between atoms: C_12  and  N_14 
REMARK    6  A    between atoms: N_14  and  C_15 
REMARK    7  A    between atoms: C_20  and  C_21 
REMARK       I    between atoms: C_21  and  N_23 
REMARK    8  A    between atoms: N_23  and  C_24 
REMARK    9  A    between atoms: C_25  and  C_24 
ROOT
ATOM      1  N   UNL d   1      29.496 -13.372   2.524  0.00  0.00    -0.332 N 
ATOM      2  H   UNL d   1      29.004 -12.755   1.888  0.00  0.00     0.168 HD
ENDROOT
BRANCH   1   3
ATOM      3  C   UNL d   1      30.013 -14.584   1.949  0.00  0.00     0.179 C 
ATOM      4  S   UNL d   1      31.551 -15.173   2.338  0.00  0.00    -0.040 SA
BRANCH   3   5
ATOM      5  N   UNL d   1      29.098 -15.158   0.980  0.00  0.00    -0.300 N 
ATOM      6  C   UNL d   1      28.150 -14.431   0.185  0.00  0.00     0.247 C 
ATOM      7  O   UNL d   1      28.303 -13.213  -0.035  0.00  0.00    -0.268 OA
ATOM      8  H   UNL d   1      28.841 -16.111   1.203  0.00  0.00     0.171 HD
BRANCH   6   9
ATOM      9  C   UNL d   1      26.788 -15.111  -0.359  0.00  0.00     0.075 C 
ATOM     10  C   UNL d   1      26.277 -16.353  -0.015  0.00  0.00     0.017 C 
BRANCH  10  11
ATOM     11  C   UNL d   1      25.056 -17.116  -0.389  0.00  0.00    -0.036 A 
ATOM     12  C   UNL d   1      24.869 -18.522  -0.178  0.00  0.00     0.014 A 
ATOM     13  C   UNL d   1      23.605 -19.115  -0.353  0.00  0.00     0.037 A 
ATOM     14  C   UNL d   1      22.535 -18.297  -0.702  0.00  0.00     0.068 A 
ATOM     15  C   UNL d   1      22.736 -16.929  -0.895  0.00  0.00     0.037 A 
ATOM     16  C   UNL d   1      23.984 -16.357  -0.789  0.00  0.00     0.014 A 
BRANCH  14  17
ATOM     17  O   UNL d   1      21.289 -18.855  -0.787  0.00  0.00    -0.356 OA
ATOM     18  C   UNL d   1      20.825 -19.326   0.480  0.00  0.00     0.210 C 
ENDBRANCH  14  17
ENDBRANCH  10  11
ENDBRANCH   6   9
ENDBRANCH   3   5
ENDBRANCH   1   3
BRANCH   1  19
ATOM     19  C   UNL d   1      28.986 -13.351   3.879  0.00  0.00     0.050 A 
ATOM     20  C   UNL d   1      29.441 -14.335   4.793  0.00  0.00     0.030 A 
ATOM     21  C   UNL d   1      29.090 -14.281   6.153  0.00  0.00     0.002 A 
ATOM     22  C   UNL d   1      28.320 -13.222   6.622  0.00  0.00     0.001 A 
ATOM     23  C   UNL d   1      27.846 -12.255   5.723  0.00  0.00     0.019 A 
ATOM     24  C   UNL d   1      28.139 -12.315   4.337  0.00  0.00     0.058 A 
BRANCH  24  25
ATOM     25  C   UNL d   1      27.570 -11.210   3.460  0.00  0.00     0.254 C 
ATOM     26  O   UNL d   1      27.753 -11.249   2.245  0.00  0.00    -0.268 OA
ATOM     27  N   UNL d   1      26.838 -10.173   4.040  0.00  0.00    -0.354 N 
ATOM     28  H   UNL d   1      26.661 -10.244   5.032  0.00  0.00     0.162 HD
BRANCH  27  29
ATOM     29  C   UNL d   1      25.928  -9.351   3.214  0.00  0.00     0.155 C 
BRANCH  29  30
ATOM     30  C   UNL d   1      26.594  -8.177   2.476  0.00  0.00     0.139 C 
ATOM     31  C   UNL d   1      27.450  -8.461   1.248  0.00  0.00     0.035 C 
ATOM     32  C   UNL d   1      26.494  -8.539   0.069  0.00  0.00     0.029 C 
ATOM     33  C   UNL d   1      25.261  -7.885   0.570  0.00  0.00     0.168 C 
ATOM     34  O   UNL d   1      25.530  -7.448   1.903  0.00  0.00    -0.384 OA
ENDBRANCH  29  30
ENDBRANCH  27  29
ENDBRANCH  24  25
ENDBRANCH   1  19
TORSDOF 9
ENDMDL
MODEL 6
REMARK VINA RESULT:    -7.559      2.851      4.393
REMARK INTER + INTRA:         -14.148
REMARK INTER:                 -10.243
REMARK INTRA:                  -3.905
REMARK CONF_INDEPENDENT:        2.685
REMARK UNBOUND:                -3.905
REMARK  9 active torsions:
REMARK  status: ('A' for Active; 'I' for Inactive)
REMARK    1  A    between atoms: O_2  and  C_3 
REMARK    2  A    between atoms: C_6  and  C_7 
REMARK    3  A    between atoms: C_8  and  C_9 
REMARK       I    between atoms: C_9  and  N_11 
REMARK    4  A    between atoms: N_11  and  C_12 
REMARK    5  A    between atoms: C_12  and  N_14 
REMARK    6  A    between atoms: N_14  and  C_15 
REMARK    7  A    between atoms: C_20  and  C_21 
REMARK       I    between atoms: C_21  and  N_23 
REMARK    8  A    between atoms: N_23  and  C_24 
REMARK    9  A    between atoms: C_25  and  C_24 
ROOT
ATOM      1  N   UNL d   1      27.960 -16.513  -1.743  0.00  0.00    -0.332 N 
ATOM      2  H   UNL d   1      27.015 -16.312  -1.439  0.00  0.00     0.168 HD
ENDROOT
BRANCH   1   3
ATOM      3  C   UNL d   1      28.903 -16.817  -0.701  0.00  0.00     0.179 C 
ATOM      4  S   UNL d   1      30.302 -17.722  -0.998  0.00  0.00    -0.040 SA
BRANCH   3   5
ATOM      5  N   UNL d   1      28.465 -16.321   0.590  0.00  0.00    -0.300 N 
ATOM      6  C   UNL d   1      27.735 -15.106   0.820  0.00  0.00     0.247 C 
ATOM      7  O   UNL d   1      27.072 -14.578  -0.094  0.00  0.00    -0.268 OA
ATOM      8  H   UNL d   1      29.065 -16.620   1.347  0.00  0.00     0.171 HD
BRANCH   6   9
ATOM      9  C   UNL d   1      27.831 -14.302   2.219  0.00  0.00     0.075 C 
ATOM     10  C   UNL d   1      28.147 -14.823   3.465  0.00  0.00     0.017 C 
BRANCH  10  11
ATOM     11  C   UNL d   1      28.300 -14.245   4.827  0.00  0.00    -0.036 A 
ATOM     12  C   UNL d   1      29.305 -14.629   5.774  0.00  0.00     0.014 A 
ATOM     13  C   UNL d   1      29.517 -13.877   6.944  0.00  0.00     0.037 A 
ATOM     14  C   UNL d   1      28.750 -12.733   7.141  0.00  0.00     0.068 A 
ATOM     15  C   UNL d   1      27.781 -12.372   6.203  0.00  0.00     0.037 A 
ATOM     16  C   UNL d   1      27.527 -13.141   5.091  0.00  0.00     0.014 A 
BRANCH  14  17
ATOM     17  O   UNL d   1      29.013 -11.952   8.234  0.00  0.00    -0.356 OA
ATOM     18  C   UNL d   1      29.055 -12.715   9.441  0.00  0.00     0.210 C 
ENDBRANCH  14  17
ENDBRANCH  10  11
ENDBRANCH   6   9
ENDBRANCH   3   5
ENDBRANCH   1   3
BRANCH   1  19
ATOM     19  C   UNL d   1      28.368 -15.782  -2.925  0.00  0.00     0.050 A 
ATOM     20  C   UNL d   1      29.747 -15.729  -3.250  0.00  0.00     0.030 A 
ATOM     21  C   UNL d   1      30.187 -15.154  -4.455  0.00  0.00     0.002 A 
ATOM     22  C   UNL d   1      29.255 -14.670  -5.366  0.00  0.00     0.001 A 
ATOM     23  C   UNL d   1      27.889 -14.698  -5.045  0.00  0.00     0.019 A 
ATOM     24  C   UNL d   1      27.421 -15.221  -3.813  0.00  0.00     0.058 A 
BRANCH  24  25
ATOM     25  C   UNL d   1      25.919 -15.198  -3.576  0.00  0.00     0.254 C 
ATOM     26  O   UNL d   1      25.155 -15.210  -4.540  0.00  0.00    -0.268 OA
ATOM     27  N   UNL d   1      25.424 -15.179  -2.271  0.00  0.00    -0.354 N 
ATOM     28  H   UNL d   1      26.104 -15.249  -1.528  0.00  0.00     0.162 HD
BRANCH  27  29
ATOM     29  C   UNL d   1      24.029 -15.588  -1.997  0.00  0.00     0.155 C 
BRANCH  29  30
ATOM     30  C   UNL d   1      23.790 -16.213  -0.613  0.00  0.00     0.139 C 
ATOM     31  C   UNL d   1      23.016 -17.521  -0.513  0.00  0.00     0.035 C 
ATOM     32  C   UNL d   1      24.025 -18.634  -0.738  0.00  0.00     0.029 C 
ATOM     33  C   UNL d   1      25.334 -17.974  -0.518  0.00  0.00     0.168 C 
ATOM     34  O   UNL d   1      25.065 -16.617  -0.163  0.00  0.00    -0.384 OA
ENDBRANCH  29  30
ENDBRANCH  27  29
ENDBRANCH  24  25
ENDBRANCH   1  19
TORSDOF 9
ENDMDL
MODEL 7
REMARK VINA RESULT:    -7.352      3.262      7.660
REMARK INTER + INTRA:         -13.721
REMARK INTER:                 -10.037
REMARK INTRA:                  -3.684
REMARK CONF_INDEPENDENT:        2.685
REMARK UNBOUND:                -3.684
REMARK  9 active torsions:
REMARK  status: ('A' for Active; 'I' for Inactive)
REMARK    1  A    between atoms: O_2  and  C_3 
REMARK    2  A    between atoms: C_6  and  C_7 
REMARK    3  A    between atoms: C_8  and  C_9 
REMARK       I    between atoms: C_9  and  N_11 
REMARK    4  A    between atoms: N_11  and  C_12 
REMARK    5  A    between atoms: C_12  and  N_14 
REMARK    6  A    between atoms: N_14  and  C_15 
REMARK    7  A    between atoms: C_20  and  C_21 
REMARK       I    between atoms: C_21  and  N_23 
REMARK    8  A    between atoms: N_23  and  C_24 
REMARK    9  A    between atoms: C_25  and  C_24 
ROOT
ATOM      1  N   UNL d   1      30.210 -14.347   0.451  0.00  0.00    -0.332 N 
ATOM      2  H   UNL d   1      30.618 -13.797  -0.295  0.00  0.00     0.168 HD
ENDROOT
BRANCH   1   3
ATOM      3  C   UNL d   1      30.500 -15.755   0.422  0.00  0.00     0.179 C 
ATOM      4  S   UNL d   1      32.075 -16.348   0.599  0.00  0.00    -0.040 SA
BRANCH   3   5
ATOM      5  N   UNL d   1      29.314 -16.549   0.158  0.00  0.00    -0.300 N 
ATOM      6  C   UNL d   1      28.710 -16.757  -1.128  0.00  0.00     0.247 C 
ATOM      7  O   UNL d   1      29.371 -16.607  -2.174  0.00  0.00    -0.268 OA
ATOM      8  H   UNL d   1      28.682 -16.581   0.947  0.00  0.00     0.171 HD
BRANCH   6   9
ATOM      9  C   UNL d   1      27.133 -17.071  -1.292  0.00  0.00     0.075 C 
ATOM     10  C   UNL d   1      26.167 -17.053  -0.298  0.00  0.00     0.017 C 
BRANCH  10  11
ATOM     11  C   UNL d   1      24.698 -17.289  -0.268  0.00  0.00    -0.036 A 
ATOM     12  C   UNL d   1      23.701 -16.292  -0.527  0.00  0.00     0.014 A 
ATOM     13  C   UNL d   1      22.351 -16.652  -0.700  0.00  0.00     0.037 A 
ATOM     14  C   UNL d   1      22.016 -18.001  -0.648  0.00  0.00     0.068 A 
ATOM     15  C   UNL d   1      23.004 -18.957  -0.402  0.00  0.00     0.037 A 
ATOM     16  C   UNL d   1      24.313 -18.603  -0.168  0.00  0.00     0.014 A 
BRANCH  14  17
ATOM     17  O   UNL d   1      20.721 -18.361  -0.902  0.00  0.00    -0.356 OA
ATOM     18  C   UNL d   1      20.422 -19.668  -0.410  0.00  0.00     0.210 C 
ENDBRANCH  14  17
ENDBRANCH  10  11
ENDBRANCH   6   9
ENDBRANCH   3   5
ENDBRANCH   1   3
BRANCH   1  19
ATOM     19  C   UNL d   1      28.924 -13.863   0.907  0.00  0.00     0.050 A 
ATOM     20  C   UNL d   1      28.574 -14.039   2.270  0.00  0.00     0.030 A 
ATOM     21  C   UNL d   1      27.404 -13.469   2.799  0.00  0.00     0.002 A 
ATOM     22  C   UNL d   1      26.597 -12.680   1.987  0.00  0.00     0.001 A 
ATOM     23  C   UNL d   1      26.921 -12.516   0.632  0.00  0.00     0.019 A 
ATOM     24  C   UNL d   1      28.065 -13.126   0.058  0.00  0.00     0.058 A 
BRANCH  24  25
ATOM     25  C   UNL d   1      28.316 -12.877  -1.421  0.00  0.00     0.254 C 
ATOM     26  O   UNL d   1      29.439 -13.062  -1.884  0.00  0.00    -0.268 OA
ATOM     27  N   UNL d   1      27.267 -12.454  -2.239  0.00  0.00    -0.354 N 
ATOM     28  H   UNL d   1      26.353 -12.396  -1.811  0.00  0.00     0.162 HD
BRANCH  27  29
ATOM     29  C   UNL d   1      27.353 -12.620  -3.706  0.00  0.00     0.155 C 
BRANCH  29  30
ATOM     30  C   UNL d   1      26.094 -13.198  -4.375  0.00  0.00     0.139 C 
ATOM     31  C   UNL d   1      26.156 -14.588  -4.995  0.00  0.00     0.035 C 
ATOM     32  C   UNL d   1      25.895 -15.572  -3.867  0.00  0.00     0.029 C 
ATOM     33  C   UNL d   1      25.283 -14.738  -2.805  0.00  0.00     0.168 C 
ATOM     34  O   UNL d   1      25.179 -13.410  -3.322  0.00  0.00    -0.384 OA
ENDBRANCH  29  30
ENDBRANCH  27  29
ENDBRANCH  24  25
ENDBRANCH   1  19
TORSDOF 9
ENDMDL
MODEL 8
REMARK VINA RESULT:    -7.342      3.052      8.476
REMARK INTER + INTRA:         -14.175
REMARK INTER:                 -10.027
REMARK INTRA:                  -4.149
REMARK CONF_INDEPENDENT:        2.685
REMARK UNBOUND:                -4.149
REMARK  9 active torsions:
REMARK  status: ('A' for Active; 'I' for Inactive)
REMARK    1  A    between atoms: O_2  and  C_3 
REMARK    2  A    between atoms: C_6  and  C_7 
REMARK    3  A    between atoms: C_8  and  C_9 
REMARK       I    between atoms: C_9  and  N_11 
REMARK    4  A    between atoms: N_11  and  C_12 
REMARK    5  A    between atoms: C_12  and  N_14 
REMARK    6  A    between atoms: N_14  and  C_15 
REMARK    7  A    between atoms: C_20  and  C_21 
REMARK       I    between atoms: C_21  and  N_23 
REMARK    8  A    between atoms: N_23  and  C_24 
REMARK    9  A    between atoms: C_25  and  C_24 
ROOT
ATOM      1  N   UNL d   1      27.868 -15.459  -1.260  0.00  0.00    -0.332 N 
ATOM      2  H   UNL d   1      27.334 -15.349  -2.114  0.00  0.00     0.168 HD
ENDROOT
BRANCH   1   3
ATOM      3  C   UNL d   1      28.092 -16.813  -0.831  0.00  0.00     0.179 C 
ATOM      4  S   UNL d   1      29.650 -17.439  -0.623  0.00  0.00    -0.040 SA
BRANCH   3   5
ATOM      5  N   UNL d   1      26.850 -17.548  -0.681  0.00  0.00    -0.300 N 
ATOM      6  C   UNL d   1      25.547 -17.082  -1.063  0.00  0.00     0.247 C 
ATOM      7  O   UNL d   1      25.415 -16.180  -1.913  0.00  0.00    -0.268 OA
ATOM      8  H   UNL d   1      26.872 -18.198   0.092  0.00  0.00     0.171 HD
BRANCH   6   9
ATOM      9  C   UNL d   1      24.203 -17.606  -0.332  0.00  0.00     0.075 C 
ATOM     10  C   UNL d   1      23.010 -17.973  -0.937  0.00  0.00     0.017 C 
BRANCH  10  11
ATOM     11  C   UNL d   1      21.705 -18.488  -0.439  0.00  0.00    -0.036 A 
ATOM     12  C   UNL d   1      20.660 -19.014  -1.267  0.00  0.00     0.014 A 
ATOM     13  C   UNL d   1      19.560 -19.683  -0.700  0.00  0.00     0.037 A 
ATOM     14  C   UNL d   1      19.530 -19.851   0.681  0.00  0.00     0.068 A 
ATOM     15  C   UNL d   1      20.562 -19.337   1.469  0.00  0.00     0.037 A 
ATOM     16  C   UNL d   1      21.606 -18.626   0.924  0.00  0.00     0.014 A 
BRANCH  14  17
ATOM     17  O   UNL d   1      18.507 -20.576   1.227  0.00  0.00    -0.356 OA
ATOM     18  C   UNL d   1      17.703 -21.205   0.228  0.00  0.00     0.210 C 
ENDBRANCH  14  17
ENDBRANCH  10  11
ENDBRANCH   6   9
ENDBRANCH   3   5
ENDBRANCH   1   3
BRANCH   1  19
ATOM     19  C   UNL d   1      27.667 -14.397  -0.296  0.00  0.00     0.050 A 
ATOM     20  C   UNL d   1      27.958 -14.653   1.068  0.00  0.00     0.030 A 
ATOM     21  C   UNL d   1      27.915 -13.624   2.024  0.00  0.00     0.002 A 
ATOM     22  C   UNL d   1      27.627 -12.324   1.623  0.00  0.00     0.001 A 
ATOM     23  C   UNL d   1      27.316 -12.064   0.280  0.00  0.00     0.019 A 
ATOM     24  C   UNL d   1      27.297 -13.092  -0.696  0.00  0.00     0.058 A 
BRANCH  24  25
ATOM     25  C   UNL d   1      26.946 -12.690  -2.121  0.00  0.00     0.254 C 
ATOM     26  O   UNL d   1      27.324 -11.603  -2.552  0.00  0.00    -0.268 OA
ATOM     27  N   UNL d   1      26.213 -13.563  -2.926  0.00  0.00    -0.354 N 
ATOM     28  H   UNL d   1      26.002 -14.471  -2.535  0.00  0.00     0.162 HD
BRANCH  27  29
ATOM     29  C   UNL d   1      26.229 -13.411  -4.397  0.00  0.00     0.155 C 
BRANCH  29  30
ATOM     30  C   UNL d   1      26.612 -14.677  -5.182  0.00  0.00     0.139 C 
ATOM     31  C   UNL d   1      27.789 -14.623  -6.148  0.00  0.00     0.035 C 
ATOM     32  C   UNL d   1      29.036 -14.873  -5.317  0.00  0.00     0.029 C 
ATOM     33  C   UNL d   1      28.513 -15.474  -4.066  0.00  0.00     0.168 C 
ATOM     34  O   UNL d   1      27.096 -15.582  -4.213  0.00  0.00    -0.384 OA
ENDBRANCH  29  30
ENDBRANCH  27  29
ENDBRANCH  24  25
ENDBRANCH   1  19
TORSDOF 9
ENDMDL
MODEL 9
REMARK VINA RESULT:    -7.175      2.958      5.706
REMARK INTER + INTRA:         -13.111
REMARK INTER:                  -9.859
REMARK INTRA:                  -3.252
REMARK CONF_INDEPENDENT:        2.685
REMARK UNBOUND:                -3.252
REMARK  9 active torsions:
REMARK  status: ('A' for Active; 'I' for Inactive)
REMARK    1  A    between atoms: O_2  and  C_3 
REMARK    2  A    between atoms: C_6  and  C_7 
REMARK    3  A    between atoms: C_8  and  C_9 
REMARK       I    between atoms: C_9  and  N_11 
REMARK    4  A    between atoms: N_11  and  C_12 
REMARK    5  A    between atoms: C_12  and  N_14 
REMARK    6  A    between atoms: N_14  and  C_15 
REMARK    7  A    between atoms: C_20  and  C_21 
REMARK       I    between atoms: C_21  and  N_23 
REMARK    8  A    between atoms: N_23  and  C_24 
REMARK    9  A    between atoms: C_25  and  C_24 
ROOT
ATOM      1  N   UNL d   1      27.594 -17.380  -0.906  0.00  0.00    -0.332 N 
ATOM      2  H   UNL d   1      28.043 -18.259  -0.677  0.00  0.00     0.168 HD
ENDROOT
BRANCH   1   3
ATOM      3  C   UNL d   1      28.350 -16.193  -0.608  0.00  0.00     0.179 C 
ATOM      4  S   UNL d   1      29.421 -15.512  -1.727  0.00  0.00    -0.040 SA
BRANCH   3   5
ATOM      5  N   UNL d   1      28.126 -15.733   0.749  0.00  0.00    -0.300 N 
ATOM      6  C   UNL d   1      27.301 -14.623   1.135  0.00  0.00     0.247 C 
ATOM      7  O   UNL d   1      26.396 -14.211   0.384  0.00  0.00    -0.268 OA
ATOM      8  H   UNL d   1      28.906 -15.931   1.362  0.00  0.00     0.171 HD
BRANCH   6   9
ATOM      9  C   UNL d   1      27.575 -13.782   2.488  0.00  0.00     0.075 C 
ATOM     10  C   UNL d   1      28.032 -14.273   3.701  0.00  0.00     0.017 C 
BRANCH  10  11
ATOM     11  C   UNL d   1      28.356 -13.660   5.018  0.00  0.00    -0.036 A 
ATOM     12  C   UNL d   1      27.971 -12.341   5.426  0.00  0.00     0.014 A 
ATOM     13  C   UNL d   1      28.122 -11.929   6.764  0.00  0.00     0.037 A 
ATOM     14  C   UNL d   1      28.621 -12.844   7.684  0.00  0.00     0.068 A 
ATOM     15  C   UNL d   1      28.984 -14.127   7.267  0.00  0.00     0.037 A 
ATOM     16  C   UNL d   1      28.899 -14.511   5.948  0.00  0.00     0.014 A 
BRANCH  14  17
ATOM     17  O   UNL d   1      28.687 -12.476   9.000  0.00  0.00    -0.356 OA
ATOM     18  C   UNL d   1      28.520 -13.590   9.878  0.00  0.00     0.210 C 
ENDBRANCH  14  17
ENDBRANCH  10  11
ENDBRANCH   6   9
ENDBRANCH   3   5
ENDBRANCH   1   3
BRANCH   1  19
ATOM     19  C   UNL d   1      26.153 -17.397  -0.763  0.00  0.00     0.050 A 
ATOM     20  C   UNL d   1      25.580 -18.199   0.257  0.00  0.00     0.030 A 
ATOM     21  C   UNL d   1      24.202 -18.149   0.532  0.00  0.00     0.002 A 
ATOM     22  C   UNL d   1      23.392 -17.267  -0.175  0.00  0.00     0.001 A 
ATOM     23  C   UNL d   1      23.945 -16.485  -1.201  0.00  0.00     0.019 A 
ATOM     24  C   UNL d   1      25.320 -16.556  -1.538  0.00  0.00     0.058 A 
BRANCH  24  25
ATOM     25  C   UNL d   1      25.805 -15.661  -2.668  0.00  0.00     0.254 C 
ATOM     26  O   UNL d   1      25.519 -15.945  -3.829  0.00  0.00    -0.268 OA
ATOM     27  N   UNL d   1      26.557 -14.522  -2.375  0.00  0.00    -0.354 N 
ATOM     28  H   UNL d   1      26.690 -14.307  -1.397  0.00  0.00     0.162 HD
BRANCH  27  29
ATOM     29  C   UNL d   1      26.669 -13.429  -3.364  0.00  0.00     0.155 C 
BRANCH  29  30
ATOM     30  C   UNL d   1      27.824 -12.442  -3.123  0.00  0.00     0.139 C 
ATOM     31  C   UNL d   1      27.551 -10.946  -3.200  0.00  0.00     0.035 C 
ATOM     32  C   UNL d   1      27.035 -10.533  -1.832  0.00  0.00     0.029 C 
ATOM     33  C   UNL d   1      27.441 -11.652  -0.949  0.00  0.00     0.168 C 
ATOM     34  O   UNL d   1      28.156 -12.588  -1.758  0.00  0.00    -0.384 OA
ENDBRANCH  29  30
ENDBRANCH  27  29
ENDBRANCH  24  25
ENDBRANCH   1  19
TORSDOF 9
ENDMDL
