MODEL 1
REMARK VINA RESULT:   -30.207      0.000      0.000
REMARK INTER + INTRA:         -32.654
REMARK INTER:                 -31.997
REMARK INTRA:                  -0.657
REMARK CONF_INDEPENDENT:        1.790
REMARK UNBOUND:                -0.657
REMARK  6 active torsions:
REMARK  status: ('A' for Active; 'I' for Inactive)
REMARK    1  A    between atoms: C_5  and  S_6 
REMARK    2  A    between atoms: S_6  and  N_9 
REMARK       I    between atoms: N_12  and  C_13 
REMARK    3  A    between atoms: C_13  and  C_15 
REMARK    4  A    between atoms: C_15  and  S_16 
REMARK    5  A    between atoms: S_16  and  C_17 
REMARK    6  A    between atoms: C_19  and  N_20 
ROOT
ATOM      1  N   UNL d   1      26.760 -15.272  -2.167  0.00  0.00    -0.304 N 
ATOM      2  C   UNL d   1      27.227 -16.248  -1.176  0.00  0.00     0.155 C 
ATOM      3  C   UNL d   1      26.154 -16.214  -0.105  0.00  0.00     0.146 C 
ATOM      4  N   UNL d   1      25.009 -16.943  -0.643  0.00  0.00    -0.348 N 
ATOM      5  C   UNL d   1      24.783 -18.198  -0.083  0.00  0.00     0.229 C 
ATOM      6  O   UNL d   1      25.498 -18.574   0.853  0.00  0.00    -0.273 OA
ATOM      7  C   UNL d   1      24.451 -16.313  -1.875  0.00  0.00     0.146 C 
ATOM      8  C   UNL d   1      25.581 -15.828  -2.907  0.00  0.00     0.155 C 
ENDROOT
BRANCH   5   9
ATOM      9  C   UNL d   1      23.665 -19.089  -0.639  0.00  0.00     0.185 C 
BRANCH   9  10
ATOM     10  S   UNL d   1      22.183 -18.070  -1.008  0.00  0.00    -0.083 SA
BRANCH  10  11
ATOM     11  C   UNL d   1      20.881 -18.923  -0.251  0.00  0.00     0.171 A 
ATOM     12  N   UNL d   1      19.840 -19.325  -0.895  0.00  0.00    -0.207 NA
ATOM     13  C   UNL d   1      18.917 -20.079  -0.209  0.00  0.00     0.129 A 
ATOM     14  C   UNL d   1      19.052 -20.372   1.096  0.00  0.00     0.124 A 
ATOM     15  C   UNL d   1      20.227 -19.873   1.819  0.00  0.00     0.250 A 
ATOM     16  O   UNL d   1      20.370 -20.069   3.019  0.00  0.00    -0.268 OA
ATOM     17  N   UNL d   1      21.117 -19.180   1.062  0.00  0.00    -0.302 N 
ATOM     18  H   UNL d   1      21.962 -18.852   1.502  0.00  0.00     0.171 HD
BRANCH  13  19
ATOM     19  N   UNL d   1      17.831 -20.537  -0.890  0.00  0.00    -0.384 N 
ATOM     20  H   UNL d   1      18.008 -20.959  -1.792  0.00  0.00     0.157 HD
ATOM     21  H   UNL d   1      16.893 -20.473  -0.520  0.00  0.00     0.157 HD
ENDBRANCH  13  19
ENDBRANCH  10  11
ENDBRANCH   9  10
ENDBRANCH   5   9
BRANCH   1  22
ATOM     22  S   UNL d   1      27.676 -13.867  -2.135  0.00  0.00     0.261 S 
ATOM     23  O   UNL d   1      29.044 -14.363  -2.320  0.00  0.00    -0.200 OA
ATOM     24  O   UNL d   1      27.374 -13.016  -1.028  0.00  0.00    -0.200 OA
BRANCH  22  25
ATOM     25  C   UNL d   1      27.266 -12.991  -3.658  0.00  0.00     0.085 A 
ATOM     26  C   UNL d   1      26.578 -11.770  -3.581  0.00  0.00     0.026 A 
ATOM     27  C   UNL d   1      26.336 -11.018  -4.739  0.00  0.00     0.008 A 
ATOM     28  C   UNL d   1      26.764 -11.472  -5.989  0.00  0.00    -0.061 A 
ATOM     29  C   UNL d   1      26.561 -10.637  -7.225  0.00  0.00     0.048 C 
ATOM     30  C   UNL d   1      27.395 -12.721  -6.070  0.00  0.00     0.015 A 
ATOM     31  C   UNL d   1      27.641 -13.504  -4.917  0.00  0.00    -0.038 A 
ATOM     32  C   UNL d   1      28.314 -14.836  -5.127  0.00  0.00     0.050 C 
ENDBRANCH  22  25
ENDBRANCH   1  22
TORSDOF 6
ENDMDL
MODEL 2
REMARK VINA RESULT:   -29.843      2.596      4.326
REMARK INTER + INTRA:         -32.573
REMARK INTER:                 -31.633
REMARK INTRA:                  -0.940
REMARK CONF_INDEPENDENT:        1.790
REMARK UNBOUND:                -0.940
REMARK  6 active torsions:
REMARK  status: ('A' for Active; 'I' for Inactive)
REMARK    1  A    between atoms: C_5  and  S_6 
REMARK    2  A    between atoms: S_6  and  N_9 
REMARK       I    between atoms: N_12  and  C_13 
REMARK    3  A    between atoms: C_13  and  C_15 
REMARK    4  A    between atoms: C_15  and  S_16 
REMARK    5  A    between atoms: S_16  and  C_17 
REMARK    6  A    between atoms: C_19  and  N_20 
ROOT
ATOM      1  N   UNL d   1      27.441 -15.480  -1.494  0.00  0.00    -0.304 N 
ATOM      2  C   UNL d   1      27.479 -16.456  -0.400  0.00  0.00     0.155 C 
ATOM      3  C   UNL d   1      26.136 -16.281   0.284  0.00  0.00     0.146 C 
ATOM      4  N   UNL d   1      25.147 -16.922  -0.578  0.00  0.00    -0.348 N 
ATOM      5  C   UNL d   1      24.635 -18.128  -0.107  0.00  0.00     0.229 C 
ATOM      6  O   UNL d   1      24.984 -18.533   1.008  0.00  0.00    -0.273 OA
ATOM      7  C   UNL d   1      25.063 -16.292  -1.928  0.00  0.00     0.146 C 
ATOM      8  C   UNL d   1      26.500 -15.952  -2.560  0.00  0.00     0.155 C 
ENDROOT
BRANCH   5   9
ATOM      9  C   UNL d   1      23.661 -18.933  -0.976  0.00  0.00     0.185 C 
BRANCH   9  10
ATOM     10  S   UNL d   1      22.125 -17.964  -1.251  0.00  0.00    -0.083 SA
BRANCH  10  11
ATOM     11  C   UNL d   1      20.918 -18.816  -0.350  0.00  0.00     0.171 A 
ATOM     12  N   UNL d   1      19.867 -19.325  -0.895  0.00  0.00    -0.207 NA
ATOM     13  C   UNL d   1      19.028 -20.065  -0.095  0.00  0.00     0.129 A 
ATOM     14  C   UNL d   1      19.251 -20.239   1.218  0.00  0.00     0.124 A 
ATOM     15  C   UNL d   1      20.435 -19.620   1.826  0.00  0.00     0.250 A 
ATOM     16  O   UNL d   1      20.655 -19.706   3.028  0.00  0.00    -0.268 OA
ATOM     17  N   UNL d   1      21.240 -18.948   0.963  0.00  0.00    -0.302 N 
ATOM     18  H   UNL d   1      22.089 -18.542   1.324  0.00  0.00     0.171 HD
BRANCH  13  19
ATOM     19  N   UNL d   1      17.934 -20.634  -0.671  0.00  0.00    -0.384 N 
ATOM     20  H   UNL d   1      17.796 -21.622  -0.503  0.00  0.00     0.157 HD
ATOM     21  H   UNL d   1      17.280 -20.106  -1.232  0.00  0.00     0.157 HD
ENDBRANCH  13  19
ENDBRANCH  10  11
ENDBRANCH   9  10
ENDBRANCH   5   9
BRANCH   1  22
ATOM     22  S   UNL d   1      28.437 -14.165  -1.189  0.00  0.00     0.261 S 
ATOM     23  O   UNL d   1      27.704 -13.050  -1.799  0.00  0.00    -0.200 OA
ATOM     24  O   UNL d   1      29.804 -14.392  -1.541  0.00  0.00    -0.200 OA
BRANCH  22  25
ATOM     25  C   UNL d   1      28.344 -13.893   0.592  0.00  0.00     0.085 A 
ATOM     26  C   UNL d   1      27.225 -13.237   1.127  0.00  0.00     0.026 A 
ATOM     27  C   UNL d   1      27.076 -13.103   2.514  0.00  0.00     0.008 A 
ATOM     28  C   UNL d   1      28.042 -13.608   3.388  0.00  0.00    -0.061 A 
ATOM     29  C   UNL d   1      27.855 -13.520   4.879  0.00  0.00     0.048 C 
ATOM     30  C   UNL d   1      29.190 -14.206   2.849  0.00  0.00     0.015 A 
ATOM     31  C   UNL d   1      29.367 -14.344   1.452  0.00  0.00    -0.038 A 
ATOM     32  C   UNL d   1      30.646 -14.991   0.987  0.00  0.00     0.050 C 
ENDBRANCH  22  25
ENDBRANCH   1  22
TORSDOF 6
ENDMDL
MODEL 3
REMARK VINA RESULT:   -29.787      0.709      1.360
REMARK INTER + INTRA:         -32.333
REMARK INTER:                 -31.577
REMARK INTRA:                  -0.757
REMARK CONF_INDEPENDENT:        1.790
REMARK UNBOUND:                -0.757
REMARK  6 active torsions:
REMARK  status: ('A' for Active; 'I' for Inactive)
REMARK    1  A    between atoms: C_5  and  S_6 
REMARK    2  A    between atoms: S_6  and  N_9 
REMARK       I    between atoms: N_12  and  C_13 
REMARK    3  A    between atoms: C_13  and  C_15 
REMARK    4  A    between atoms: C_15  and  S_16 
REMARK    5  A    between atoms: S_16  and  C_17 
REMARK    6  A    between atoms: C_19  and  N_20 
ROOT
ATOM      1  N   UNL d   1      26.900 -15.193  -2.067  0.00  0.00    -0.304 N 
ATOM      2  C   UNL d   1      27.249 -16.123  -0.988  0.00  0.00     0.155 C 
ATOM      3  C   UNL d   1      26.059 -16.048  -0.051  0.00  0.00     0.146 C 
ATOM      4  N   UNL d   1      24.984 -16.805  -0.686  0.00  0.00    -0.348 N 
ATOM      5  C   UNL d   1      24.694 -18.036  -0.103  0.00  0.00     0.229 C 
ATOM      6  O   UNL d   1      25.295 -18.369   0.925  0.00  0.00    -0.273 OA
ATOM      7  C   UNL d   1      24.572 -16.232  -2.001  0.00  0.00     0.146 C 
ATOM      8  C   UNL d   1      25.815 -15.785  -2.915  0.00  0.00     0.155 C 
ENDROOT
BRANCH   5   9
ATOM      9  C   UNL d   1      23.649 -18.956  -0.746  0.00  0.00     0.185 C 
BRANCH   9  10
ATOM     10  S   UNL d   1      22.128 -17.999  -1.128  0.00  0.00    -0.083 SA
BRANCH  10  11
ATOM     11  C   UNL d   1      20.870 -18.849  -0.296  0.00  0.00     0.171 A 
ATOM     12  N   UNL d   1      19.834 -19.325  -0.896  0.00  0.00    -0.207 NA
ATOM     13  C   UNL d   1      18.950 -20.068  -0.148  0.00  0.00     0.129 A 
ATOM     14  C   UNL d   1      19.117 -20.276   1.169  0.00  0.00     0.124 A 
ATOM     15  C   UNL d   1      20.285 -19.694   1.839  0.00  0.00     0.250 A 
ATOM     16  O   UNL d   1      20.455 -19.810   3.046  0.00  0.00    -0.268 OA
ATOM     17  N   UNL d   1      21.137 -19.017   1.025  0.00  0.00    -0.302 N 
ATOM     18  H   UNL d   1      21.977 -18.634   1.428  0.00  0.00     0.171 HD
BRANCH  13  19
ATOM     19  N   UNL d   1      17.871 -20.604  -0.780  0.00  0.00    -0.384 N 
ATOM     20  H   UNL d   1      17.936 -20.700  -1.785  0.00  0.00     0.157 HD
ATOM     21  H   UNL d   1      17.044 -20.903  -0.282  0.00  0.00     0.157 HD
ENDBRANCH  13  19
ENDBRANCH  10  11
ENDBRANCH   9  10
ENDBRANCH   5   9
BRANCH   1  22
ATOM     22  S   UNL d   1      27.806 -13.783  -1.989  0.00  0.00     0.261 S 
ATOM     23  O   UNL d   1      29.151 -14.275  -1.671  0.00  0.00    -0.200 OA
ATOM     24  O   UNL d   1      27.211 -12.768  -1.177  0.00  0.00    -0.200 OA
BRANCH  22  25
ATOM     25  C   UNL d   1      27.898 -13.176  -3.685  0.00  0.00     0.085 A 
ATOM     26  C   UNL d   1      29.000 -13.527  -4.480  0.00  0.00     0.026 A 
ATOM     27  C   UNL d   1      29.049 -13.156  -5.830  0.00  0.00     0.008 A 
ATOM     28  C   UNL d   1      28.010 -12.421  -6.408  0.00  0.00    -0.061 A 
ATOM     29  C   UNL d   1      28.031 -12.075  -7.872  0.00  0.00     0.048 C 
ATOM     30  C   UNL d   1      26.941 -12.017  -5.596  0.00  0.00     0.015 A 
ATOM     31  C   UNL d   1      26.874 -12.370  -4.227  0.00  0.00    -0.038 A 
ATOM     32  C   UNL d   1      25.685 -11.869  -3.450  0.00  0.00     0.050 C 
ENDBRANCH  22  25
ENDBRANCH   1  22
TORSDOF 6
ENDMDL
MODEL 4
REMARK VINA RESULT:   -28.864      2.413      3.830
REMARK INTER + INTRA:         -31.284
REMARK INTER:                 -30.654
REMARK INTRA:                  -0.630
REMARK CONF_INDEPENDENT:        1.790
REMARK UNBOUND:                -0.630
REMARK  6 active torsions:
REMARK  status: ('A' for Active; 'I' for Inactive)
REMARK    1  A    between atoms: C_5  and  S_6 
REMARK    2  A    between atoms: S_6  and  N_9 
REMARK       I    between atoms: N_12  and  C_13 
REMARK    3  A    between atoms: C_13  and  C_15 
REMARK    4  A    between atoms: C_15  and  S_16 
REMARK    5  A    between atoms: S_16  and  C_17 
REMARK    6  A    between atoms: C_19  and  N_20 
ROOT
ATOM      1  N   UNL d   1      28.437 -16.182  -0.303  0.00  0.00    -0.304 N 
ATOM      2  C   UNL d   1      27.392 -15.194  -0.592  0.00  0.00     0.155 C 
ATOM      3  C   UNL d   1      26.596 -15.832  -1.714  0.00  0.00     0.146 C 
ATOM      4  N   UNL d   1      25.780 -16.876  -1.101  0.00  0.00    -0.348 N 
ATOM      5  C   UNL d   1      24.419 -16.594  -1.008  0.00  0.00     0.229 C 
ATOM      6  O   UNL d   1      23.989 -15.544  -1.498  0.00  0.00    -0.273 OA
ATOM      7  C   UNL d   1      26.598 -17.943  -0.453  0.00  0.00     0.146 C 
ATOM      8  C   UNL d   1      27.836 -17.366   0.392  0.00  0.00     0.155 C 
ENDROOT
BRANCH   5   9
ATOM      9  C   UNL d   1      23.485 -17.580  -0.295  0.00  0.00     0.185 C 
BRANCH   9  10
ATOM     10  S   UNL d   1      22.221 -18.203  -1.474  0.00  0.00    -0.083 SA
BRANCH  10  11
ATOM     11  C   UNL d   1      20.970 -18.838  -0.461  0.00  0.00     0.171 A 
ATOM     12  N   UNL d   1      19.872 -19.325  -0.927  0.00  0.00    -0.207 NA
ATOM     13  C   UNL d   1      18.995 -19.892  -0.032  0.00  0.00     0.129 A 
ATOM     14  C   UNL d   1      19.231 -19.920   1.290  0.00  0.00     0.124 A 
ATOM     15  C   UNL d   1      20.472 -19.327   1.804  0.00  0.00     0.250 A 
ATOM     16  O   UNL d   1      20.710 -19.281   3.004  0.00  0.00    -0.268 OA
ATOM     17  N   UNL d   1      21.309 -18.833   0.854  0.00  0.00    -0.302 N 
ATOM     18  H   UNL d   1      22.194 -18.454   1.152  0.00  0.00     0.171 HD
BRANCH  13  19
ATOM     19  N   UNL d   1      17.848 -20.438  -0.520  0.00  0.00    -0.384 N 
ATOM     20  H   UNL d   1      17.776 -20.518  -1.526  0.00  0.00     0.157 HD
ATOM     21  H   UNL d   1      17.103 -20.761   0.082  0.00  0.00     0.157 HD
ENDBRANCH  13  19
ENDBRANCH  10  11
ENDBRANCH   9  10
ENDBRANCH   5   9
BRANCH   1  22
ATOM     22  S   UNL d   1      29.939 -15.677  -0.854  0.00  0.00     0.261 S 
ATOM     23  O   UNL d   1      30.867 -16.345   0.065  0.00  0.00    -0.200 OA
ATOM     24  O   UNL d   1      30.028 -14.264  -1.049  0.00  0.00    -0.200 OA
BRANCH  22  25
ATOM     25  C   UNL d   1      30.165 -16.488  -2.449  0.00  0.00     0.085 A 
ATOM     26  C   UNL d   1      30.999 -17.614  -2.534  0.00  0.00     0.026 A 
ATOM     27  C   UNL d   1      31.112 -18.325  -3.736  0.00  0.00     0.008 A 
ATOM     28  C   UNL d   1      30.408 -17.922  -4.874  0.00  0.00    -0.061 A 
ATOM     29  C   UNL d   1      30.480 -18.720  -6.148  0.00  0.00     0.048 C 
ATOM     30  C   UNL d   1      29.626 -16.761  -4.804  0.00  0.00     0.015 A 
ATOM     31  C   UNL d   1      29.503 -16.020  -3.605  0.00  0.00    -0.038 A 
ATOM     32  C   UNL d   1      28.646 -14.782  -3.651  0.00  0.00     0.050 C 
ENDBRANCH  22  25
ENDBRANCH   1  22
TORSDOF 6
ENDMDL
MODEL 5
REMARK VINA RESULT:   -28.722      2.426      3.110
REMARK INTER + INTRA:         -31.222
REMARK INTER:                 -30.511
REMARK INTRA:                  -0.711
REMARK CONF_INDEPENDENT:        1.790
REMARK UNBOUND:                -0.711
REMARK  6 active torsions:
REMARK  status: ('A' for Active; 'I' for Inactive)
REMARK    1  A    between atoms: C_5  and  S_6 
REMARK    2  A    between atoms: S_6  and  N_9 
REMARK       I    between atoms: N_12  and  C_13 
REMARK    3  A    between atoms: C_13  and  C_15 
REMARK    4  A    between atoms: C_15  and  S_16 
REMARK    5  A    between atoms: S_16  and  C_17 
REMARK    6  A    between atoms: C_19  and  N_20 
ROOT
ATOM      1  N   UNL d   1      28.164 -16.473  -0.054  0.00  0.00    -0.304 N 
ATOM      2  C   UNL d   1      27.170 -15.521  -0.562  0.00  0.00     0.155 C 
ATOM      3  C   UNL d   1      26.502 -16.271  -1.698  0.00  0.00     0.146 C 
ATOM      4  N   UNL d   1      25.609 -17.248  -1.080  0.00  0.00    -0.348 N 
ATOM      5  C   UNL d   1      24.251 -16.960  -1.175  0.00  0.00     0.229 C 
ATOM      6  O   UNL d   1      23.892 -15.966  -1.817  0.00  0.00    -0.273 OA
ATOM      7  C   UNL d   1      26.336 -18.241  -0.236  0.00  0.00     0.146 C 
ATOM      8  C   UNL d   1      27.474 -17.579   0.684  0.00  0.00     0.155 C 
ENDROOT
BRANCH   5   9
ATOM      9  C   UNL d   1      23.229 -17.868  -0.479  0.00  0.00     0.185 C 
BRANCH   9  10
ATOM     10  S   UNL d   1      21.583 -17.674  -1.270  0.00  0.00    -0.083 SA
BRANCH  10  11
ATOM     11  C   UNL d   1      20.552 -18.738  -0.374  0.00  0.00     0.171 A 
ATOM     12  N   UNL d   1      19.530 -19.324  -0.895  0.00  0.00    -0.207 NA
ATOM     13  C   UNL d   1      18.844 -20.224  -0.113  0.00  0.00     0.129 A 
ATOM     14  C   UNL d   1      19.183 -20.477   1.162  0.00  0.00     0.124 A 
ATOM     15  C   UNL d   1      20.329 -19.771   1.746  0.00  0.00     0.250 A 
ATOM     16  O   UNL d   1      20.647 -19.927   2.919  0.00  0.00    -0.268 OA
ATOM     17  N   UNL d   1      20.985 -18.937   0.898  0.00  0.00    -0.302 N 
ATOM     18  H   UNL d   1      21.805 -18.461   1.238  0.00  0.00     0.171 HD
BRANCH  13  19
ATOM     19  N   UNL d   1      17.783 -20.873  -0.667  0.00  0.00    -0.384 N 
ATOM     20  H   UNL d   1      17.155 -20.315  -1.231  0.00  0.00     0.157 HD
ATOM     21  H   UNL d   1      17.626 -21.862  -0.537  0.00  0.00     0.157 HD
ENDBRANCH  13  19
ENDBRANCH  10  11
ENDBRANCH   9  10
ENDBRANCH   5   9
BRANCH   1  22
ATOM     22  S   UNL d   1      29.725 -16.025  -0.475  0.00  0.00     0.261 S 
ATOM     23  O   UNL d   1      30.482 -17.268  -0.298  0.00  0.00    -0.200 OA
ATOM     24  O   UNL d   1      30.167 -14.827   0.168  0.00  0.00    -0.200 OA
BRANCH  22  25
ATOM     25  C   UNL d   1      29.678 -15.733  -2.255  0.00  0.00     0.085 A 
ATOM     26  C   UNL d   1      29.653 -16.831  -3.129  0.00  0.00     0.026 A 
ATOM     27  C   UNL d   1      29.514 -16.637  -4.509  0.00  0.00     0.008 A 
ATOM     28  C   UNL d   1      29.409 -15.350  -5.043  0.00  0.00    -0.061 A 
ATOM     29  C   UNL d   1      29.196 -15.141  -6.518  0.00  0.00     0.048 C 
ATOM     30  C   UNL d   1      29.498 -14.253  -4.175  0.00  0.00     0.015 A 
ATOM     31  C   UNL d   1      29.649 -14.423  -2.778  0.00  0.00    -0.038 A 
ATOM     32  C   UNL d   1      29.747 -13.172  -1.944  0.00  0.00     0.050 C 
ENDBRANCH  22  25
ENDBRANCH   1  22
TORSDOF 6
ENDMDL
MODEL 6
REMARK VINA RESULT:   -28.510      3.412      5.238
REMARK INTER + INTRA:         -30.898
REMARK INTER:                 -30.300
REMARK INTRA:                  -0.599
REMARK CONF_INDEPENDENT:        1.790
REMARK UNBOUND:                -0.599
REMARK  6 active torsions:
REMARK  status: ('A' for Active; 'I' for Inactive)
REMARK    1  A    between atoms: C_5  and  S_6 
REMARK    2  A    between atoms: S_6  and  N_9 
REMARK       I    between atoms: N_12  and  C_13 
REMARK    3  A    between atoms: C_13  and  C_15 
REMARK    4  A    between atoms: C_15  and  S_16 
REMARK    5  A    between atoms: S_16  and  C_17 
REMARK    6  A    between atoms: C_19  and  N_20 
ROOT
ATOM      1  N   UNL d   1      27.919 -16.227   0.325  0.00  0.00    -0.304 N 
ATOM      2  C   UNL d   1      26.919 -15.400  -0.359  0.00  0.00     0.155 C 
ATOM      3  C   UNL d   1      26.512 -16.243  -1.553  0.00  0.00     0.146 C 
ATOM      4  N   UNL d   1      25.643 -17.297  -1.037  0.00  0.00    -0.348 N 
ATOM      5  C   UNL d   1      24.291 -17.160  -1.343  0.00  0.00     0.229 C 
ATOM      6  O   UNL d   1      23.932 -16.225  -2.067  0.00  0.00    -0.273 OA
ATOM      7  C   UNL d   1      26.333 -18.187  -0.058  0.00  0.00     0.146 C 
ATOM      8  C   UNL d   1      27.244 -17.386   0.994  0.00  0.00     0.155 C 
ENDROOT
BRANCH   5   9
ATOM      9  C   UNL d   1      23.277 -18.158  -0.771  0.00  0.00     0.185 C 
BRANCH   9  10
ATOM     10  S   UNL d   1      21.575 -17.660  -1.252  0.00  0.00    -0.083 SA
BRANCH  10  11
ATOM     11  C   UNL d   1      20.550 -18.740  -0.368  0.00  0.00     0.171 A 
ATOM     12  N   UNL d   1      19.530 -19.324  -0.896  0.00  0.00    -0.207 NA
ATOM     13  C   UNL d   1      18.849 -20.236  -0.124  0.00  0.00     0.129 A 
ATOM     14  C   UNL d   1      19.190 -20.504   1.147  0.00  0.00     0.124 A 
ATOM     15  C   UNL d   1      20.334 -19.800   1.739  0.00  0.00     0.250 A 
ATOM     16  O   UNL d   1      20.654 -19.970   2.909  0.00  0.00    -0.268 OA
ATOM     17  N   UNL d   1      20.985 -18.953   0.900  0.00  0.00    -0.302 N 
ATOM     18  H   UNL d   1      21.804 -18.478   1.246  0.00  0.00     0.171 HD
BRANCH  13  19
ATOM     19  N   UNL d   1      17.790 -20.883  -0.685  0.00  0.00    -0.384 N 
ATOM     20  H   UNL d   1      17.703 -20.822  -1.691  0.00  0.00     0.157 HD
ATOM     21  H   UNL d   1      17.124 -21.408  -0.135  0.00  0.00     0.157 HD
ENDBRANCH  13  19
ENDBRANCH  10  11
ENDBRANCH   9  10
ENDBRANCH   5   9
BRANCH   1  22
ATOM     22  S   UNL d   1      29.471 -15.622   0.123  0.00  0.00     0.261 S 
ATOM     23  O   UNL d   1      29.293 -14.608  -0.922  0.00  0.00    -0.200 OA
ATOM     24  O   UNL d   1      30.462 -16.639  -0.037  0.00  0.00    -0.200 OA
BRANCH  22  25
ATOM     25  C   UNL d   1      29.831 -14.706   1.634  0.00  0.00     0.085 A 
ATOM     26  C   UNL d   1      28.770 -14.162   2.375  0.00  0.00     0.026 A 
ATOM     27  C   UNL d   1      29.010 -13.534   3.604  0.00  0.00     0.008 A 
ATOM     28  C   UNL d   1      30.309 -13.427   4.110  0.00  0.00    -0.061 A 
ATOM     29  C   UNL d   1      30.563 -12.809   5.459  0.00  0.00     0.048 C 
ATOM     30  C   UNL d   1      31.373 -13.914   3.338  0.00  0.00     0.015 A 
ATOM     31  C   UNL d   1      31.156 -14.543   2.089  0.00  0.00    -0.038 A 
ATOM     32  C   UNL d   1      32.376 -15.015   1.341  0.00  0.00     0.050 C 
ENDBRANCH  22  25
ENDBRANCH   1  22
TORSDOF 6
ENDMDL
MODEL 7
REMARK VINA RESULT:   -28.250      3.095      5.039
REMARK INTER + INTRA:         -30.748
REMARK INTER:                 -30.040
REMARK INTRA:                  -0.708
REMARK CONF_INDEPENDENT:        1.790
REMARK UNBOUND:                -0.708
REMARK  6 active torsions:
REMARK  status: ('A' for Active; 'I' for Inactive)
REMARK    1  A    between atoms: C_5  and  S_6 
REMARK    2  A    between atoms: S_6  and  N_9 
REMARK       I    between atoms: N_12  and  C_13 
REMARK    3  A    between atoms: C_13  and  C_15 
REMARK    4  A    between atoms: C_15  and  S_16 
REMARK    5  A    between atoms: S_16  and  C_17 
REMARK    6  A    between atoms: C_19  and  N_20 
ROOT
ATOM      1  N   UNL d   1      28.087 -15.588   0.283  0.00  0.00    -0.304 N 
ATOM      2  C   UNL d   1      26.975 -14.749  -0.176  0.00  0.00     0.155 C 
ATOM      3  C   UNL d   1      26.395 -15.527  -1.341  0.00  0.00     0.146 C 
ATOM      4  N   UNL d   1      25.641 -16.636  -0.764  0.00  0.00    -0.348 N 
ATOM      5  C   UNL d   1      24.255 -16.519  -0.838  0.00  0.00     0.229 C 
ATOM      6  O   UNL d   1      23.766 -15.552  -1.432  0.00  0.00    -0.273 OA
ATOM      7  C   UNL d   1      26.497 -17.565   0.031  0.00  0.00     0.146 C 
ATOM      8  C   UNL d   1      27.552 -16.805   0.974  0.00  0.00     0.155 C 
ENDROOT
BRANCH   5   9
ATOM      9  C   UNL d   1      23.365 -17.581  -0.179  0.00  0.00     0.185 C 
BRANCH   9  10
ATOM     10  S   UNL d   1      22.135 -18.202  -1.393  0.00  0.00    -0.083 SA
BRANCH  10  11
ATOM     11  C   UNL d   1      20.870 -18.865  -0.414  0.00  0.00     0.171 A 
ATOM     12  N   UNL d   1      19.772 -19.325  -0.908  0.00  0.00    -0.207 NA
ATOM     13  C   UNL d   1      18.883 -19.918  -0.042  0.00  0.00     0.129 A 
ATOM     14  C   UNL d   1      19.107 -19.997   1.280  0.00  0.00     0.124 A 
ATOM     15  C   UNL d   1      20.348 -19.434   1.826  0.00  0.00     0.250 A 
ATOM     16  O   UNL d   1      20.576 -19.434   3.029  0.00  0.00    -0.268 OA
ATOM     17  N   UNL d   1      21.197 -18.912   0.903  0.00  0.00    -0.302 N 
ATOM     18  H   UNL d   1      22.082 -18.551   1.222  0.00  0.00     0.171 HD
BRANCH  13  19
ATOM     19  N   UNL d   1      17.736 -20.437  -0.560  0.00  0.00    -0.384 N 
ATOM     20  H   UNL d   1      17.029 -20.725   0.104  0.00  0.00     0.157 HD
ATOM     21  H   UNL d   1      17.583 -20.525  -1.555  0.00  0.00     0.157 HD
ENDBRANCH  13  19
ENDBRANCH  10  11
ENDBRANCH   9  10
ENDBRANCH   5   9
BRANCH   1  22
ATOM     22  S   UNL d   1      29.574 -14.926  -0.126  0.00  0.00     0.261 S 
ATOM     23  O   UNL d   1      29.925 -14.148   1.066  0.00  0.00    -0.200 OA
ATOM     24  O   UNL d   1      29.585 -14.300  -1.411  0.00  0.00    -0.200 OA
BRANCH  22  25
ATOM     25  C   UNL d   1      30.726 -16.315  -0.158  0.00  0.00     0.085 A 
ATOM     26  C   UNL d   1      31.577 -16.524   0.939  0.00  0.00     0.026 A 
ATOM     27  C   UNL d   1      32.408 -17.651   0.987  0.00  0.00     0.008 A 
ATOM     28  C   UNL d   1      32.415 -18.579  -0.057  0.00  0.00    -0.061 A 
ATOM     29  C   UNL d   1      33.260 -19.822   0.020  0.00  0.00     0.048 C 
ATOM     30  C   UNL d   1      31.611 -18.335  -1.180  0.00  0.00     0.015 A 
ATOM     31  C   UNL d   1      30.771 -17.199  -1.257  0.00  0.00    -0.038 A 
ATOM     32  C   UNL d   1      29.962 -17.031  -2.517  0.00  0.00     0.050 C 
ENDBRANCH  22  25
ENDBRANCH   1  22
TORSDOF 6
ENDMDL
MODEL 8
REMARK VINA RESULT:   -28.122      3.596      4.964
REMARK INTER + INTRA:         -30.566
REMARK INTER:                 -29.912
REMARK INTRA:                  -0.654
REMARK CONF_INDEPENDENT:        1.790
REMARK UNBOUND:                -0.654
REMARK  6 active torsions:
REMARK  status: ('A' for Active; 'I' for Inactive)
REMARK    1  A    between atoms: C_5  and  S_6 
REMARK    2  A    between atoms: S_6  and  N_9 
REMARK       I    between atoms: N_12  and  C_13 
REMARK    3  A    between atoms: C_13  and  C_15 
REMARK    4  A    between atoms: C_15  and  S_16 
REMARK    5  A    between atoms: S_16  and  C_17 
REMARK    6  A    between atoms: C_19  and  N_20 
ROOT
ATOM      1  N   UNL d   1      27.754 -15.116   0.860  0.00  0.00    -0.304 N 
ATOM      2  C   UNL d   1      26.557 -14.457   0.329  0.00  0.00     0.155 C 
ATOM      3  C   UNL d   1      26.307 -15.169  -0.987  0.00  0.00     0.146 C 
ATOM      4  N   UNL d   1      25.739 -16.472  -0.651  0.00  0.00    -0.348 N 
ATOM      5  C   UNL d   1      24.381 -16.619  -0.921  0.00  0.00     0.229 C 
ATOM      6  O   UNL d   1      23.777 -15.695  -1.476  0.00  0.00    -0.273 OA
ATOM      7  C   UNL d   1      26.666 -17.314   0.162  0.00  0.00     0.146 C 
ATOM      8  C   UNL d   1      27.407 -16.497   1.328  0.00  0.00     0.155 C 
ENDROOT
BRANCH   5   9
ATOM      9  C   UNL d   1      23.661 -17.913  -0.520  0.00  0.00     0.185 C 
BRANCH   9  10
ATOM     10  S   UNL d   1      22.234 -18.203  -1.640  0.00  0.00    -0.083 SA
BRANCH  10  11
ATOM     11  C   UNL d   1      21.004 -18.843  -0.603  0.00  0.00     0.171 A 
ATOM     12  N   UNL d   1      19.895 -19.325  -1.049  0.00  0.00    -0.207 NA
ATOM     13  C   UNL d   1      19.037 -19.895  -0.138  0.00  0.00     0.129 A 
ATOM     14  C   UNL d   1      19.301 -19.931   1.178  0.00  0.00     0.124 A 
ATOM     15  C   UNL d   1      20.553 -19.344   1.668  0.00  0.00     0.250 A 
ATOM     16  O   UNL d   1      20.817 -19.305   2.863  0.00  0.00    -0.268 OA
ATOM     17  N   UNL d   1      21.371 -18.845   0.704  0.00  0.00    -0.302 N 
ATOM     18  H   UNL d   1      22.262 -18.469   0.985  0.00  0.00     0.171 HD
BRANCH  13  19
ATOM     19  N   UNL d   1      17.879 -20.438  -0.605  0.00  0.00    -0.384 N 
ATOM     20  H   UNL d   1      17.906 -20.832  -1.536  0.00  0.00     0.157 HD
ATOM     21  H   UNL d   1      17.031 -20.460  -0.055  0.00  0.00     0.157 HD
ENDBRANCH  13  19
ENDBRANCH  10  11
ENDBRANCH   9  10
ENDBRANCH   5   9
BRANCH   1  22
ATOM     22  S   UNL d   1      29.106 -14.128   0.753  0.00  0.00     0.261 S 
ATOM     23  O   UNL d   1      28.977 -13.540  -0.584  0.00  0.00    -0.200 OA
ATOM     24  O   UNL d   1      30.321 -14.783   1.126  0.00  0.00    -0.200 OA
BRANCH  22  25
ATOM     25  C   UNL d   1      28.807 -12.777   1.910  0.00  0.00     0.085 A 
ATOM     26  C   UNL d   1      28.778 -11.458   1.431  0.00  0.00     0.026 A 
ATOM     27  C   UNL d   1      28.447 -10.399   2.286  0.00  0.00     0.008 A 
ATOM     28  C   UNL d   1      28.151 -10.632   3.632  0.00  0.00    -0.061 A 
ATOM     29  C   UNL d   1      27.735  -9.505   4.538  0.00  0.00     0.048 C 
ATOM     30  C   UNL d   1      28.243 -11.943   4.123  0.00  0.00     0.015 A 
ATOM     31  C   UNL d   1      28.585 -13.027   3.281  0.00  0.00    -0.038 A 
ATOM     32  C   UNL d   1      28.667 -14.389   3.921  0.00  0.00     0.050 C 
ENDBRANCH  22  25
ENDBRANCH   1  22
TORSDOF 6
ENDMDL
