MODEL 1
REMARK VINA RESULT:    -7.385      0.000      0.000
REMARK INTER + INTRA:         -12.498
REMARK INTER:                 -10.964
REMARK INTRA:                  -1.533
REMARK CONF_INDEPENDENT:        3.580
REMARK UNBOUND:                -1.533
REMARK  12 active torsions:
REMARK  status: ('A' for Active; 'I' for Inactive)
REMARK    1  A    between atoms: C_2  and  C_3 
REMARK    2  A    between atoms: C_3  and  C_4 
REMARK    3  A    between atoms: C_4  and  C_5 
REMARK    4  A    between atoms: C_5  and  C_6 
REMARK    5  A    between atoms: C_6  and  N_8 
REMARK       I    between atoms: N_8  and  C_9 
REMARK       I    between atoms: C_9  and  N_11 
REMARK    6  A    between atoms: N_11  and  C_12 
REMARK    7  A    between atoms: C_13  and  C_12 
REMARK    8  A    between atoms: C_13  and  C_15 
REMARK    9  A    between atoms: C_13  and  O_14 
REMARK   10  A    between atoms: C_15  and  O_16 
REMARK   11  A    between atoms: O_16  and  C_17 
REMARK   12  A    between atoms: C_20  and  N_21 
ROOT
ATOM      1  C   UNL d   1      29.415 -14.032   1.716  0.00  0.00     0.158 C 
ENDROOT
BRANCH   1   2
ATOM      2  N   UNL d   1      29.253 -15.349   1.100  0.00  0.00    -0.341 N 
ATOM      3  C   UNL d   1      28.093 -15.730   0.505  0.00  0.00     0.316 C 
ATOM      4  N   UNL d   1      28.064 -17.059   0.150  0.00  0.00    -0.339 N 
ATOM      5  O   UNL d   1      27.170 -14.940   0.312  0.00  0.00    -0.247 OA
ATOM      6  H   UNL d   1      28.896 -17.622   0.241  0.00  0.00     0.164 HD
ATOM      7  H   UNL d   1      29.847 -16.094   1.430  0.00  0.00     0.164 HD
BRANCH   4   8
ATOM      8  C   UNL d   1      26.897 -17.621  -0.531  0.00  0.00     0.082 C 
ATOM      9  C   UNL d   1      26.472 -16.697  -1.678  0.00  0.00     0.032 C 
BRANCH   8  10
ATOM     10  C   UNL d   1      25.703 -17.862   0.419  0.00  0.00     0.025 C 
BRANCH  10  11
ATOM     11  C   UNL d   1      24.377 -17.412  -0.213  0.00  0.00     0.002 C 
BRANCH  11  12
ATOM     12  C   UNL d   1      23.509 -18.586  -0.636  0.00  0.00    -0.000 C 
BRANCH  12  13
ATOM     13  C   UNL d   1      22.035 -18.186  -0.633  0.00  0.00    -0.005 C 
ATOM     14  C   UNL d   1      21.174 -19.337  -0.150  0.00  0.00     0.005 C 
ENDBRANCH  12  13
ENDBRANCH  11  12
ENDBRANCH  10  11
ENDBRANCH   8  10
ENDBRANCH   4   8
ENDBRANCH   1   2
BRANCH   1  15
ATOM     15  C   UNL d   1      30.204 -14.025   3.051  0.00  0.00     0.160 C 
BRANCH  15  16
ATOM     16  C   UNL d   1      29.299 -13.958   4.289  0.00  0.00     0.209 C 
BRANCH  16  17
ATOM     17  O   UNL d   1      27.942 -13.821   3.838  0.00  0.00    -0.349 OA
BRANCH  17  18
ATOM     18  C   UNL d   1      27.476 -12.555   3.658  0.00  0.00     0.069 A 
ATOM     19  C   UNL d   1      26.787 -12.298   2.465  0.00  0.00     0.039 A 
ATOM     20  C   UNL d   1      26.416 -10.993   2.135  0.00  0.00     0.039 A 
ATOM     21  C   UNL d   1      26.692  -9.961   3.037  0.00  0.00     0.103 A 
ATOM     22  C   UNL d   1      27.390 -10.218   4.224  0.00  0.00     0.039 A 
ATOM     23  C   UNL d   1      27.783 -11.519   4.530  0.00  0.00     0.039 A 
BRANCH  21  24
ATOM     24  N   UNL d   1      26.207  -8.604   2.766  0.00  0.00    -0.116 N 
ATOM     25  O   UNL d   1      26.678  -7.678   3.441  0.00  0.00    -0.532 OA
ATOM     26  O   UNL d   1      25.378  -8.461   1.856  0.00  0.00    -0.532 OA
ENDBRANCH  21  24
ENDBRANCH  17  18
ENDBRANCH  16  17
ENDBRANCH  15  16
BRANCH  15  27
ATOM     27  O   UNL d   1      31.055 -15.175   3.150  0.00  0.00    -0.392 OA
ATOM     28  H   UNL d   1      30.591 -15.852   3.673  0.00  0.00     0.210 HD
ENDBRANCH  15  27
ENDBRANCH   1  15
TORSDOF 12
ENDMDL
MODEL 2
REMARK VINA RESULT:    -7.161      1.699      2.977
REMARK INTER + INTRA:         -12.289
REMARK INTER:                 -10.741
REMARK INTRA:                  -1.548
REMARK CONF_INDEPENDENT:        3.580
REMARK UNBOUND:                -1.548
REMARK  12 active torsions:
REMARK  status: ('A' for Active; 'I' for Inactive)
REMARK    1  A    between atoms: C_2  and  C_3 
REMARK    2  A    between atoms: C_3  and  C_4 
REMARK    3  A    between atoms: C_4  and  C_5 
REMARK    4  A    between atoms: C_5  and  C_6 
REMARK    5  A    between atoms: C_6  and  N_8 
REMARK       I    between atoms: N_8  and  C_9 
REMARK       I    between atoms: C_9  and  N_11 
REMARK    6  A    between atoms: N_11  and  C_12 
REMARK    7  A    between atoms: C_13  and  C_12 
REMARK    8  A    between atoms: C_13  and  C_15 
REMARK    9  A    between atoms: C_13  and  O_14 
REMARK   10  A    between atoms: C_15  and  O_16 
REMARK   11  A    between atoms: O_16  and  C_17 
REMARK   12  A    between atoms: C_20  and  N_21 
ROOT
ATOM      1  C   UNL d   1      27.680 -16.573   0.383  0.00  0.00     0.158 C 
ENDROOT
BRANCH   1   2
ATOM      2  N   UNL d   1      26.496 -17.423   0.508  0.00  0.00    -0.341 N 
ATOM      3  C   UNL d   1      25.428 -17.301  -0.322  0.00  0.00     0.316 C 
ATOM      4  N   UNL d   1      24.340 -18.051   0.063  0.00  0.00    -0.339 N 
ATOM      5  O   UNL d   1      25.457 -16.581  -1.318  0.00  0.00    -0.247 OA
ATOM      6  H   UNL d   1      24.423 -18.701   0.830  0.00  0.00     0.164 HD
ATOM      7  H   UNL d   1      26.311 -17.834   1.411  0.00  0.00     0.164 HD
BRANCH   4   8
ATOM      8  C   UNL d   1      23.119 -18.056  -0.743  0.00  0.00     0.082 C 
ATOM      9  C   UNL d   1      22.575 -16.629  -0.869  0.00  0.00     0.032 C 
BRANCH   8  10
ATOM     10  C   UNL d   1      22.025 -18.986  -0.174  0.00  0.00     0.025 C 
BRANCH  10  11
ATOM     11  C   UNL d   1      20.963 -19.324  -1.231  0.00  0.00     0.002 C 
BRANCH  11  12
ATOM     12  C   UNL d   1      19.547 -19.188  -0.693  0.00  0.00    -0.000 C 
BRANCH  12  13
ATOM     13  C   UNL d   1      19.480 -19.667   0.756  0.00  0.00    -0.005 C 
ATOM     14  C   UNL d   1      18.985 -21.099   0.818  0.00  0.00     0.005 C 
ENDBRANCH  12  13
ENDBRANCH  11  12
ENDBRANCH  10  11
ENDBRANCH   8  10
ENDBRANCH   4   8
ENDBRANCH   1   2
BRANCH   1  15
ATOM     15  C   UNL d   1      27.414 -15.052   0.519  0.00  0.00     0.160 C 
BRANCH  15  16
ATOM     16  C   UNL d   1      27.837 -14.482   1.880  0.00  0.00     0.209 C 
BRANCH  16  17
ATOM     17  O   UNL d   1      28.569 -13.269   1.644  0.00  0.00    -0.349 OA
BRANCH  17  18
ATOM     18  C   UNL d   1      27.913 -12.098   1.873  0.00  0.00     0.069 A 
ATOM     19  C   UNL d   1      27.572 -11.333   0.750  0.00  0.00     0.039 A 
ATOM     20  C   UNL d   1      27.041 -10.052   0.907  0.00  0.00     0.039 A 
ATOM     21  C   UNL d   1      26.802  -9.570   2.198  0.00  0.00     0.103 A 
ATOM     22  C   UNL d   1      27.154 -10.331   3.320  0.00  0.00     0.039 A 
ATOM     23  C   UNL d   1      27.711 -11.597   3.152  0.00  0.00     0.039 A 
BRANCH  21  24
ATOM     24  N   UNL d   1      26.136  -8.277   2.385  0.00  0.00    -0.116 N 
ATOM     25  O   UNL d   1      26.611  -7.501   3.225  0.00  0.00    -0.532 OA
ATOM     26  O   UNL d   1      25.157  -8.027   1.668  0.00  0.00    -0.532 OA
ENDBRANCH  21  24
ENDBRANCH  17  18
ENDBRANCH  16  17
ENDBRANCH  15  16
BRANCH  15  27
ATOM     27  O   UNL d   1      28.071 -14.320  -0.524  0.00  0.00    -0.392 OA
ATOM     28  H   UNL d   1      28.959 -14.075  -0.210  0.00  0.00     0.210 HD
ENDBRANCH  15  27
ENDBRANCH   1  15
TORSDOF 12
ENDMDL
MODEL 3
REMARK VINA RESULT:    -7.130      3.313      8.357
REMARK INTER + INTRA:         -13.067
REMARK INTER:                 -10.709
REMARK INTRA:                  -2.358
REMARK CONF_INDEPENDENT:        3.580
REMARK UNBOUND:                -2.358
REMARK  12 active torsions:
REMARK  status: ('A' for Active; 'I' for Inactive)
REMARK    1  A    between atoms: C_2  and  C_3 
REMARK    2  A    between atoms: C_3  and  C_4 
REMARK    3  A    between atoms: C_4  and  C_5 
REMARK    4  A    between atoms: C_5  and  C_6 
REMARK    5  A    between atoms: C_6  and  N_8 
REMARK       I    between atoms: N_8  and  C_9 
REMARK       I    between atoms: C_9  and  N_11 
REMARK    6  A    between atoms: N_11  and  C_12 
REMARK    7  A    between atoms: C_13  and  C_12 
REMARK    8  A    between atoms: C_13  and  C_15 
REMARK    9  A    between atoms: C_13  and  O_14 
REMARK   10  A    between atoms: C_15  and  O_16 
REMARK   11  A    between atoms: O_16  and  C_17 
REMARK   12  A    between atoms: C_20  and  N_21 
ROOT
ATOM      1  C   UNL d   1      28.958 -16.114  -0.625  0.00  0.00     0.158 C 
ENDROOT
BRANCH   1   2
ATOM      2  N   UNL d   1      28.837 -15.847   0.808  0.00  0.00    -0.341 N 
ATOM      3  C   UNL d   1      28.077 -14.831   1.292  0.00  0.00     0.316 C 
ATOM      4  N   UNL d   1      28.233 -14.619   2.643  0.00  0.00    -0.339 N 
ATOM      5  O   UNL d   1      27.327 -14.178   0.569  0.00  0.00    -0.247 OA
ATOM      6  H   UNL d   1      28.782 -15.262   3.193  0.00  0.00     0.164 HD
ATOM      7  H   UNL d   1      29.585 -16.164   1.406  0.00  0.00     0.164 HD
BRANCH   4   8
ATOM      8  C   UNL d   1      27.459 -13.582   3.326  0.00  0.00     0.082 C 
ATOM      9  C   UNL d   1      27.943 -12.197   2.882  0.00  0.00     0.032 C 
BRANCH   8  10
ATOM     10  C   UNL d   1      27.528 -13.694   4.865  0.00  0.00     0.025 C 
BRANCH  10  11
ATOM     11  C   UNL d   1      28.847 -14.331   5.328  0.00  0.00     0.002 C 
BRANCH  11  12
ATOM     12  C   UNL d   1      29.631 -13.425   6.263  0.00  0.00    -0.000 C 
BRANCH  12  13
ATOM     13  C   UNL d   1      29.609 -13.982   7.686  0.00  0.00    -0.005 C 
ATOM     14  C   UNL d   1      28.733 -13.124   8.577  0.00  0.00     0.005 C 
ENDBRANCH  12  13
ENDBRANCH  11  12
ENDBRANCH  10  11
ENDBRANCH   8  10
ENDBRANCH   4   8
ENDBRANCH   1   2
BRANCH   1  15
ATOM     15  C   UNL d   1      27.674 -16.658  -1.302  0.00  0.00     0.160 C 
BRANCH  15  16
ATOM     16  C   UNL d   1      26.771 -17.445  -0.343  0.00  0.00     0.209 C 
BRANCH  16  17
ATOM     17  O   UNL d   1      25.584 -16.668  -0.115  0.00  0.00    -0.349 OA
BRANCH  17  18
ATOM     18  C   UNL d   1      24.395 -17.250  -0.434  0.00  0.00     0.069 A 
ATOM     19  C   UNL d   1      23.324 -16.390  -0.709  0.00  0.00     0.039 A 
ATOM     20  C   UNL d   1      22.038 -16.904  -0.889  0.00  0.00     0.039 A 
ATOM     21  C   UNL d   1      21.850 -18.289  -0.848  0.00  0.00     0.103 A 
ATOM     22  C   UNL d   1      22.920 -19.147  -0.562  0.00  0.00     0.039 A 
ATOM     23  C   UNL d   1      24.193 -18.622  -0.354  0.00  0.00     0.039 A 
BRANCH  21  24
ATOM     24  N   UNL d   1      20.533 -18.857  -1.151  0.00  0.00    -0.116 N 
ATOM     25  O   UNL d   1      20.468 -19.719  -2.039  0.00  0.00    -0.532 OA
ATOM     26  O   UNL d   1      19.569 -18.463  -0.480  0.00  0.00    -0.532 OA
ENDBRANCH  21  24
ENDBRANCH  17  18
ENDBRANCH  16  17
ENDBRANCH  15  16
BRANCH  15  27
ATOM     27  O   UNL d   1      26.918 -15.595  -1.897  0.00  0.00    -0.392 OA
ATOM     28  H   UNL d   1      26.540 -15.053  -1.182  0.00  0.00     0.210 HD
ENDBRANCH  15  27
ENDBRANCH   1  15
TORSDOF 12
ENDMDL
MODEL 4
REMARK VINA RESULT:    -7.041      0.919      1.268
REMARK INTER + INTRA:         -12.357
REMARK INTER:                 -10.621
REMARK INTRA:                  -1.736
REMARK CONF_INDEPENDENT:        3.580
REMARK UNBOUND:                -1.736
REMARK  12 active torsions:
REMARK  status: ('A' for Active; 'I' for Inactive)
REMARK    1  A    between atoms: C_2  and  C_3 
REMARK    2  A    between atoms: C_3  and  C_4 
REMARK    3  A    between atoms: C_4  and  C_5 
REMARK    4  A    between atoms: C_5  and  C_6 
REMARK    5  A    between atoms: C_6  and  N_8 
REMARK       I    between atoms: N_8  and  C_9 
REMARK       I    between atoms: C_9  and  N_11 
REMARK    6  A    between atoms: N_11  and  C_12 
REMARK    7  A    between atoms: C_13  and  C_12 
REMARK    8  A    between atoms: C_13  and  C_15 
REMARK    9  A    between atoms: C_13  and  O_14 
REMARK   10  A    between atoms: C_15  and  O_16 
REMARK   11  A    between atoms: O_16  and  C_17 
REMARK   12  A    between atoms: C_20  and  N_21 
ROOT
ATOM      1  C   UNL d   1      29.586 -13.487   1.959  0.00  0.00     0.158 C 
ENDROOT
BRANCH   1   2
ATOM      2  N   UNL d   1      29.246 -14.840   1.514  0.00  0.00    -0.341 N 
ATOM      3  C   UNL d   1      28.035 -15.141   0.978  0.00  0.00     0.316 C 
ATOM      4  N   UNL d   1      27.832 -16.490   0.795  0.00  0.00    -0.339 N 
ATOM      5  O   UNL d   1      27.215 -14.270   0.693  0.00  0.00    -0.247 OA
ATOM      6  H   UNL d   1      28.589 -17.138   0.951  0.00  0.00     0.164 HD
ATOM      7  H   UNL d   1      29.749 -15.608   1.933  0.00  0.00     0.164 HD
BRANCH   4   8
ATOM      8  C   UNL d   1      26.590 -16.978   0.195  0.00  0.00     0.082 C 
ATOM      9  C   UNL d   1      26.528 -18.506   0.303  0.00  0.00     0.032 C 
BRANCH   8  10
ATOM     10  C   UNL d   1      26.422 -16.548  -1.279  0.00  0.00     0.025 C 
BRANCH  10  11
ATOM     11  C   UNL d   1      25.068 -16.998  -1.849  0.00  0.00     0.002 C 
BRANCH  11  12
ATOM     12  C   UNL d   1      23.896 -16.481  -1.031  0.00  0.00    -0.000 C 
BRANCH  12  13
ATOM     13  C   UNL d   1      23.343 -17.588  -0.136  0.00  0.00    -0.005 C 
ATOM     14  C   UNL d   1      23.098 -18.849  -0.942  0.00  0.00     0.005 C 
ENDBRANCH  12  13
ENDBRANCH  11  12
ENDBRANCH  10  11
ENDBRANCH   8  10
ENDBRANCH   4   8
ENDBRANCH   1   2
BRANCH   1  15
ATOM     15  C   UNL d   1      30.410 -13.416   3.271  0.00  0.00     0.160 C 
BRANCH  15  16
ATOM     16  C   UNL d   1      29.630 -12.803   4.443  0.00  0.00     0.209 C 
BRANCH  16  17
ATOM     17  O   UNL d   1      28.232 -12.857   4.120  0.00  0.00    -0.349 OA
BRANCH  17  18
ATOM     18  C   UNL d   1      27.627 -11.681   3.795  0.00  0.00     0.069 A 
ATOM     19  C   UNL d   1      27.031 -11.604   2.529  0.00  0.00     0.039 A 
ATOM     20  C   UNL d   1      26.531 -10.388   2.061  0.00  0.00     0.039 A 
ATOM     21  C   UNL d   1      26.582  -9.267   2.896  0.00  0.00     0.103 A 
ATOM     22  C   UNL d   1      27.187  -9.343   4.157  0.00  0.00     0.039 A 
ATOM     23  C   UNL d   1      27.711 -10.554   4.602  0.00  0.00     0.039 A 
BRANCH  21  24
ATOM     24  N   UNL d   1      25.956  -8.011   2.472  0.00  0.00    -0.116 N 
ATOM     25  O   UNL d   1      26.289  -6.973   3.062  0.00  0.00    -0.532 OA
ATOM     26  O   UNL d   1      25.155  -8.058   1.528  0.00  0.00    -0.532 OA
ENDBRANCH  21  24
ENDBRANCH  17  18
ENDBRANCH  16  17
ENDBRANCH  15  16
BRANCH  15  27
ATOM     27  O   UNL d   1      30.887 -14.714   3.648  0.00  0.00    -0.392 OA
ATOM     28  H   UNL d   1      31.540 -14.602   4.361  0.00  0.00     0.210 HD
ENDBRANCH  15  27
ENDBRANCH   1  15
TORSDOF 12
ENDMDL
MODEL 5
REMARK VINA RESULT:    -6.255      3.021      5.577
REMARK INTER + INTRA:         -12.755
REMARK INTER:                  -9.835
REMARK INTRA:                  -2.920
REMARK CONF_INDEPENDENT:        3.580
REMARK UNBOUND:                -2.920
REMARK  12 active torsions:
REMARK  status: ('A' for Active; 'I' for Inactive)
REMARK    1  A    between atoms: C_2  and  C_3 
REMARK    2  A    between atoms: C_3  and  C_4 
REMARK    3  A    between atoms: C_4  and  C_5 
REMARK    4  A    between atoms: C_5  and  C_6 
REMARK    5  A    between atoms: C_6  and  N_8 
REMARK       I    between atoms: N_8  and  C_9 
REMARK       I    between atoms: C_9  and  N_11 
REMARK    6  A    between atoms: N_11  and  C_12 
REMARK    7  A    between atoms: C_13  and  C_12 
REMARK    8  A    between atoms: C_13  and  C_15 
REMARK    9  A    between atoms: C_13  and  O_14 
REMARK   10  A    between atoms: C_15  and  O_16 
REMARK   11  A    between atoms: O_16  and  C_17 
REMARK   12  A    between atoms: C_20  and  N_21 
ROOT
ATOM      1  C   UNL d   1      27.917 -13.603   2.526  0.00  0.00     0.158 C 
ENDROOT
BRANCH   1   2
ATOM      2  N   UNL d   1      28.250 -14.866   1.864  0.00  0.00    -0.341 N 
ATOM      3  C   UNL d   1      27.402 -15.470   0.992  0.00  0.00     0.316 C 
ATOM      4  N   UNL d   1      27.801 -16.733   0.618  0.00  0.00    -0.339 N 
ATOM      5  O   UNL d   1      26.379 -14.918   0.591  0.00  0.00    -0.247 OA
ATOM      6  H   UNL d   1      28.705 -17.079   0.902  0.00  0.00     0.164 HD
ATOM      7  H   UNL d   1      28.921 -15.466   2.318  0.00  0.00     0.164 HD
BRANCH   4   8
ATOM      8  C   UNL d   1      27.014 -17.506  -0.342  0.00  0.00     0.082 C 
ATOM      9  C   UNL d   1      26.796 -16.683  -1.617  0.00  0.00     0.032 C 
BRANCH   8  10
ATOM     10  C   UNL d   1      25.652 -17.965   0.226  0.00  0.00     0.025 C 
BRANCH  10  11
ATOM     11  C   UNL d   1      24.524 -16.995  -0.157  0.00  0.00     0.002 C 
BRANCH  11  12
ATOM     12  C   UNL d   1      23.456 -17.659  -1.012  0.00  0.00    -0.000 C 
BRANCH  12  13
ATOM     13  C   UNL d   1      22.589 -18.583  -0.159  0.00  0.00    -0.005 C 
ATOM     14  C   UNL d   1      21.315 -18.944  -0.896  0.00  0.00     0.005 C 
ENDBRANCH  12  13
ENDBRANCH  11  12
ENDBRANCH  10  11
ENDBRANCH   8  10
ENDBRANCH   4   8
ENDBRANCH   1   2
BRANCH   1  15
ATOM     15  C   UNL d   1      27.468 -12.463   1.575  0.00  0.00     0.160 C 
BRANCH  15  16
ATOM     16  C   UNL d   1      28.187 -12.487   0.219  0.00  0.00     0.209 C 
BRANCH  16  17
ATOM     17  O   UNL d   1      27.268 -12.011  -0.777  0.00  0.00    -0.349 OA
BRANCH  17  18
ATOM     18  C   UNL d   1      27.028 -12.831  -1.837  0.00  0.00     0.069 A 
ATOM     19  C   UNL d   1      28.075 -13.671  -2.237  0.00  0.00     0.039 A 
ATOM     20  C   UNL d   1      27.965 -14.424  -3.407  0.00  0.00     0.039 A 
ATOM     21  C   UNL d   1      26.774 -14.370  -4.139  0.00  0.00     0.103 A 
ATOM     22  C   UNL d   1      25.731 -13.521  -3.743  0.00  0.00     0.039 A 
ATOM     23  C   UNL d   1      25.864 -12.751  -2.590  0.00  0.00     0.039 A 
BRANCH  21  24
ATOM     24  N   UNL d   1      26.591 -15.241  -5.303  0.00  0.00    -0.116 N 
ATOM     25  O   UNL d   1      25.570 -15.942  -5.344  0.00  0.00    -0.532 OA
ATOM     26  O   UNL d   1      27.453 -15.201  -6.192  0.00  0.00    -0.532 OA
ENDBRANCH  21  24
ENDBRANCH  17  18
ENDBRANCH  16  17
ENDBRANCH  15  16
BRANCH  15  27
ATOM     27  O   UNL d   1      26.052 -12.503   1.360  0.00  0.00    -0.392 OA
ATOM     28  H   UNL d   1      25.891 -12.817   0.453  0.00  0.00     0.210 HD
ENDBRANCH  15  27
ENDBRANCH   1  15
TORSDOF 12
ENDMDL
MODEL 6
REMARK VINA RESULT:    -6.210      3.818      4.946
REMARK INTER + INTRA:         -12.001
REMARK INTER:                  -9.790
REMARK INTRA:                  -2.211
REMARK CONF_INDEPENDENT:        3.580
REMARK UNBOUND:                -2.211
REMARK  12 active torsions:
REMARK  status: ('A' for Active; 'I' for Inactive)
REMARK    1  A    between atoms: C_2  and  C_3 
REMARK    2  A    between atoms: C_3  and  C_4 
REMARK    3  A    between atoms: C_4  and  C_5 
REMARK    4  A    between atoms: C_5  and  C_6 
REMARK    5  A    between atoms: C_6  and  N_8 
REMARK       I    between atoms: N_8  and  C_9 
REMARK       I    between atoms: C_9  and  N_11 
REMARK    6  A    between atoms: N_11  and  C_12 
REMARK    7  A    between atoms: C_13  and  C_12 
REMARK    8  A    between atoms: C_13  and  C_15 
REMARK    9  A    between atoms: C_13  and  O_14 
REMARK   10  A    between atoms: C_15  and  O_16 
REMARK   11  A    between atoms: O_16  and  C_17 
REMARK   12  A    between atoms: C_20  and  N_21 
ROOT
ATOM      1  C   UNL d   1      25.609 -13.190  -4.311  0.00  0.00     0.158 C 
ENDROOT
BRANCH   1   2
ATOM      2  N   UNL d   1      26.022 -14.297  -3.448  0.00  0.00    -0.341 N 
ATOM      3  C   UNL d   1      25.144 -14.958  -2.650  0.00  0.00     0.316 C 
ATOM      4  N   UNL d   1      25.744 -15.836  -1.777  0.00  0.00    -0.339 N 
ATOM      5  O   UNL d   1      23.931 -14.770  -2.722  0.00  0.00    -0.247 OA
ATOM      6  H   UNL d   1      26.733 -16.019  -1.847  0.00  0.00     0.164 HD
ATOM      7  H   UNL d   1      26.990 -14.330  -3.164  0.00  0.00     0.164 HD
BRANCH   4   8
ATOM      8  C   UNL d   1      24.934 -16.651  -0.871  0.00  0.00     0.082 C 
ATOM      9  C   UNL d   1      25.842 -17.364   0.137  0.00  0.00     0.032 C 
BRANCH   8  10
ATOM     10  C   UNL d   1      24.058 -17.686  -1.612  0.00  0.00     0.025 C 
BRANCH  10  11
ATOM     11  C   UNL d   1      23.530 -18.768  -0.658  0.00  0.00     0.002 C 
BRANCH  11  12
ATOM     12  C   UNL d   1      22.334 -18.293   0.151  0.00  0.00    -0.000 C 
BRANCH  12  13
ATOM     13  C   UNL d   1      21.206 -19.321   0.088  0.00  0.00    -0.005 C 
ATOM     14  C   UNL d   1      20.535 -19.290  -1.271  0.00  0.00     0.005 C 
ENDBRANCH  12  13
ENDBRANCH  11  12
ENDBRANCH  10  11
ENDBRANCH   8  10
ENDBRANCH   4   8
ENDBRANCH   1   2
BRANCH   1  15
ATOM     15  C   UNL d   1      26.579 -11.981  -4.338  0.00  0.00     0.160 C 
BRANCH  15  16
ATOM     16  C   UNL d   1      25.927 -10.671  -3.875  0.00  0.00     0.209 C 
BRANCH  16  17
ATOM     17  O   UNL d   1      26.936  -9.881  -3.224  0.00  0.00    -0.349 OA
BRANCH  17  18
ATOM     18  C   UNL d   1      26.644  -9.412  -1.979  0.00  0.00     0.069 A 
ATOM     19  C   UNL d   1      25.767  -8.322  -1.904  0.00  0.00     0.039 A 
ATOM     20  C   UNL d   1      25.541  -7.684  -0.683  0.00  0.00     0.039 A 
ATOM     21  C   UNL d   1      26.157  -8.187   0.468  0.00  0.00     0.103 A 
ATOM     22  C   UNL d   1      27.042  -9.270   0.389  0.00  0.00     0.039 A 
ATOM     23  C   UNL d   1      27.284  -9.880  -0.839  0.00  0.00     0.039 A 
BRANCH  21  24
ATOM     24  N   UNL d   1      25.842  -7.608   1.778  0.00  0.00    -0.116 N 
ATOM     25  O   UNL d   1      26.305  -8.167   2.781  0.00  0.00    -0.532 OA
ATOM     26  O   UNL d   1      25.156  -6.577   1.800  0.00  0.00    -0.532 OA
ENDBRANCH  21  24
ENDBRANCH  17  18
ENDBRANCH  16  17
ENDBRANCH  15  16
BRANCH  15  27
ATOM     27  O   UNL d   1      27.741 -12.238  -3.539  0.00  0.00    -0.392 OA
ATOM     28  H   UNL d   1      28.329 -11.465  -3.600  0.00  0.00     0.210 HD
ENDBRANCH  15  27
ENDBRANCH   1  15
TORSDOF 12
ENDMDL
MODEL 7
REMARK VINA RESULT:    -5.986      4.583      5.971
REMARK INTER + INTRA:         -12.069
REMARK INTER:                  -9.565
REMARK INTRA:                  -2.504
REMARK CONF_INDEPENDENT:        3.580
REMARK UNBOUND:                -2.504
REMARK  12 active torsions:
REMARK  status: ('A' for Active; 'I' for Inactive)
REMARK    1  A    between atoms: C_2  and  C_3 
REMARK    2  A    between atoms: C_3  and  C_4 
REMARK    3  A    between atoms: C_4  and  C_5 
REMARK    4  A    between atoms: C_5  and  C_6 
REMARK    5  A    between atoms: C_6  and  N_8 
REMARK       I    between atoms: N_8  and  C_9 
REMARK       I    between atoms: C_9  and  N_11 
REMARK    6  A    between atoms: N_11  and  C_12 
REMARK    7  A    between atoms: C_13  and  C_12 
REMARK    8  A    between atoms: C_13  and  C_15 
REMARK    9  A    between atoms: C_13  and  O_14 
REMARK   10  A    between atoms: C_15  and  O_16 
REMARK   11  A    between atoms: O_16  and  C_17 
REMARK   12  A    between atoms: C_20  and  N_21 
ROOT
ATOM      1  C   UNL d   1      27.349 -17.894   0.185  0.00  0.00     0.158 C 
ENDROOT
BRANCH   1   2
ATOM      2  N   UNL d   1      25.991 -18.359   0.472  0.00  0.00    -0.341 N 
ATOM      3  C   UNL d   1      24.969 -18.191  -0.405  0.00  0.00     0.316 C 
ATOM      4  N   UNL d   1      23.737 -18.521   0.111  0.00  0.00    -0.339 N 
ATOM      5  O   UNL d   1      25.155 -17.781  -1.550  0.00  0.00    -0.247 OA
ATOM      6  H   UNL d   1      23.672 -18.952   1.021  0.00  0.00     0.164 HD
ATOM      7  H   UNL d   1      25.731 -18.466   1.441  0.00  0.00     0.164 HD
BRANCH   4   8
ATOM      8  C   UNL d   1      22.535 -18.427  -0.718  0.00  0.00     0.082 C 
ATOM      9  C   UNL d   1      22.111 -16.961  -0.853  0.00  0.00     0.032 C 
BRANCH   8  10
ATOM     10  C   UNL d   1      21.359 -19.266  -0.171  0.00  0.00     0.025 C 
BRANCH  10  11
ATOM     11  C   UNL d   1      20.046 -18.944  -0.901  0.00  0.00     0.002 C 
BRANCH  11  12
ATOM     12  C   UNL d   1      18.904 -19.848  -0.465  0.00  0.00    -0.000 C 
BRANCH  12  13
ATOM     13  C   UNL d   1      19.124 -20.329   0.968  0.00  0.00    -0.005 C 
ATOM     14  C   UNL d   1      18.109 -21.396   1.330  0.00  0.00     0.005 C 
ENDBRANCH  12  13
ENDBRANCH  11  12
ENDBRANCH  10  11
ENDBRANCH   8  10
ENDBRANCH   4   8
ENDBRANCH   1   2
BRANCH   1  15
ATOM     15  C   UNL d   1      27.484 -16.365  -0.038  0.00  0.00     0.160 C 
BRANCH  15  16
ATOM     16  C   UNL d   1      28.092 -16.004  -1.401  0.00  0.00     0.209 C 
BRANCH  16  17
ATOM     17  O   UNL d   1      27.041 -16.046  -2.378  0.00  0.00    -0.349 OA
BRANCH  17  18
ATOM     18  C   UNL d   1      26.700 -14.867  -2.969  0.00  0.00     0.069 A 
ATOM     19  C   UNL d   1      27.329 -13.713  -2.485  0.00  0.00     0.039 A 
ATOM     20  C   UNL d   1      26.921 -12.452  -2.927  0.00  0.00     0.039 A 
ATOM     21  C   UNL d   1      25.919 -12.366  -3.899  0.00  0.00     0.103 A 
ATOM     22  C   UNL d   1      25.283 -13.521  -4.373  0.00  0.00     0.039 A 
ATOM     23  C   UNL d   1      25.677 -14.772  -3.903  0.00  0.00     0.039 A 
BRANCH  21  24
ATOM     24  N   UNL d   1      25.558 -11.062  -4.463  0.00  0.00    -0.116 N 
ATOM     25  O   UNL d   1      25.543 -10.953  -5.697  0.00  0.00    -0.532 OA
ATOM     26  O   UNL d   1      25.260 -10.157  -3.672  0.00  0.00    -0.532 OA
ENDBRANCH  21  24
ENDBRANCH  17  18
ENDBRANCH  16  17
ENDBRANCH  15  16
BRANCH  15  27
ATOM     27  O   UNL d   1      26.216 -15.712   0.102  0.00  0.00    -0.392 OA
ATOM     28  H   UNL d   1      25.678 -15.923  -0.681  0.00  0.00     0.210 HD
ENDBRANCH  15  27
ENDBRANCH   1  15
TORSDOF 12
ENDMDL
MODEL 8
REMARK VINA RESULT:    -5.918      5.633      8.774
REMARK INTER + INTRA:         -11.632
REMARK INTER:                  -9.498
REMARK INTRA:                  -2.134
REMARK CONF_INDEPENDENT:        3.580
REMARK UNBOUND:                -2.134
REMARK  12 active torsions:
REMARK  status: ('A' for Active; 'I' for Inactive)
REMARK    1  A    between atoms: C_2  and  C_3 
REMARK    2  A    between atoms: C_3  and  C_4 
REMARK    3  A    between atoms: C_4  and  C_5 
REMARK    4  A    between atoms: C_5  and  C_6 
REMARK    5  A    between atoms: C_6  and  N_8 
REMARK       I    between atoms: N_8  and  C_9 
REMARK       I    between atoms: C_9  and  N_11 
REMARK    6  A    between atoms: N_11  and  C_12 
REMARK    7  A    between atoms: C_13  and  C_12 
REMARK    8  A    between atoms: C_13  and  C_15 
REMARK    9  A    between atoms: C_13  and  O_14 
REMARK   10  A    between atoms: C_15  and  O_16 
REMARK   11  A    between atoms: O_16  and  C_17 
REMARK   12  A    between atoms: C_20  and  N_21 
ROOT
ATOM      1  C   UNL d   1      25.603 -14.174  -2.720  0.00  0.00     0.158 C 
ENDROOT
BRANCH   1   2
ATOM      2  N   UNL d   1      24.637 -15.220  -2.382  0.00  0.00    -0.341 N 
ATOM      3  C   UNL d   1      24.749 -15.971  -1.257  0.00  0.00     0.316 C 
ATOM      4  N   UNL d   1      23.863 -17.023  -1.203  0.00  0.00    -0.339 N 
ATOM      5  O   UNL d   1      25.575 -15.715  -0.383  0.00  0.00    -0.247 OA
ATOM      6  H   UNL d   1      23.142 -17.110  -1.904  0.00  0.00     0.164 HD
ATOM      7  H   UNL d   1      24.113 -15.632  -3.140  0.00  0.00     0.164 HD
BRANCH   4   8
ATOM      8  C   UNL d   1      23.833 -17.910  -0.040  0.00  0.00     0.082 C 
ATOM      9  C   UNL d   1      25.234 -18.472   0.220  0.00  0.00     0.032 C 
BRANCH   8  10
ATOM     10  C   UNL d   1      22.822 -19.068  -0.192  0.00  0.00     0.025 C 
BRANCH  10  11
ATOM     11  C   UNL d   1      21.429 -18.556  -0.587  0.00  0.00     0.002 C 
BRANCH  11  12
ATOM     12  C   UNL d   1      20.460 -19.688  -0.889  0.00  0.00    -0.000 C 
BRANCH  12  13
ATOM     13  C   UNL d   1      19.249 -19.613   0.039  0.00  0.00    -0.005 C 
ATOM     14  C   UNL d   1      19.668 -19.853   1.477  0.00  0.00     0.005 C 
ENDBRANCH  12  13
ENDBRANCH  11  12
ENDBRANCH  10  11
ENDBRANCH   8  10
ENDBRANCH   4   8
ENDBRANCH   1   2
BRANCH   1  15
ATOM     15  C   UNL d   1      25.901 -14.020  -4.233  0.00  0.00     0.160 C 
BRANCH  15  16
ATOM     16  C   UNL d   1      27.400 -14.056  -4.562  0.00  0.00     0.209 C 
BRANCH  16  17
ATOM     17  O   UNL d   1      27.640 -15.197  -5.402  0.00  0.00    -0.349 OA
BRANCH  17  18
ATOM     18  C   UNL d   1      28.831 -15.237  -6.063  0.00  0.00     0.069 A 
ATOM     19  C   UNL d   1      29.667 -16.327  -5.793  0.00  0.00     0.039 A 
ATOM     20  C   UNL d   1      30.965 -16.362  -6.307  0.00  0.00     0.039 A 
ATOM     21  C   UNL d   1      31.392 -15.322  -7.139  0.00  0.00     0.103 A 
ATOM     22  C   UNL d   1      30.558 -14.227  -7.399  0.00  0.00     0.039 A 
ATOM     23  C   UNL d   1      29.276 -14.188  -6.857  0.00  0.00     0.039 A 
BRANCH  21  24
ATOM     24  N   UNL d   1      32.706 -15.396  -7.784  0.00  0.00    -0.116 N 
ATOM     25  O   UNL d   1      33.306 -14.332  -7.995  0.00  0.00    -0.532 OA
ATOM     26  O   UNL d   1      33.152 -16.520  -8.053  0.00  0.00    -0.532 OA
ENDBRANCH  21  24
ENDBRANCH  17  18
ENDBRANCH  16  17
ENDBRANCH  15  16
BRANCH  15  27
ATOM     27  O   UNL d   1      25.226 -15.029  -4.995  0.00  0.00    -0.392 OA
ATOM     28  H   UNL d   1      25.798 -15.281  -5.741  0.00  0.00     0.210 HD
ENDBRANCH  15  27
ENDBRANCH   1  15
TORSDOF 12
ENDMDL
MODEL 9
REMARK VINA RESULT:    -5.184      3.860      7.621
REMARK INTER + INTRA:         -11.963
REMARK INTER:                  -8.763
REMARK INTRA:                  -3.199
REMARK CONF_INDEPENDENT:        3.580
REMARK UNBOUND:                -3.199
REMARK  12 active torsions:
REMARK  status: ('A' for Active; 'I' for Inactive)
REMARK    1  A    between atoms: C_2  and  C_3 
REMARK    2  A    between atoms: C_3  and  C_4 
REMARK    3  A    between atoms: C_4  and  C_5 
REMARK    4  A    between atoms: C_5  and  C_6 
REMARK    5  A    between atoms: C_6  and  N_8 
REMARK       I    between atoms: N_8  and  C_9 
REMARK       I    between atoms: C_9  and  N_11 
REMARK    6  A    between atoms: N_11  and  C_12 
REMARK    7  A    between atoms: C_13  and  C_12 
REMARK    8  A    between atoms: C_13  and  C_15 
REMARK    9  A    between atoms: C_13  and  O_14 
REMARK   10  A    between atoms: C_15  and  O_16 
REMARK   11  A    between atoms: O_16  and  C_17 
REMARK   12  A    between atoms: C_20  and  N_21 
ROOT
ATOM      1  C   UNL d   1      28.956 -16.503  -0.419  0.00  0.00     0.158 C 
ENDROOT
BRANCH   1   2
ATOM      2  N   UNL d   1      29.152 -15.209  -1.074  0.00  0.00    -0.341 N 
ATOM      3  C   UNL d   1      28.214 -14.228  -1.032  0.00  0.00     0.316 C 
ATOM      4  N   UNL d   1      28.492 -13.162  -1.857  0.00  0.00    -0.339 N 
ATOM      5  O   UNL d   1      27.218 -14.311  -0.317  0.00  0.00    -0.247 OA
ATOM      6  H   UNL d   1      29.380 -13.113  -2.334  0.00  0.00     0.164 HD
ATOM      7  H   UNL d   1      29.798 -15.173  -1.849  0.00  0.00     0.164 HD
BRANCH   4   8
ATOM      8  C   UNL d   1      27.596 -12.006  -1.903  0.00  0.00     0.082 C 
ATOM      9  C   UNL d   1      27.411 -11.435  -0.493  0.00  0.00     0.032 C 
BRANCH   8  10
ATOM     10  C   UNL d   1      26.219 -12.337  -2.521  0.00  0.00     0.025 C 
BRANCH  10  11
ATOM     11  C   UNL d   1      26.360 -13.138  -3.824  0.00  0.00     0.002 C 
BRANCH  11  12
ATOM     12  C   UNL d   1      25.472 -14.371  -3.844  0.00  0.00    -0.000 C 
BRANCH  12  13
ATOM     13  C   UNL d   1      26.114 -15.476  -4.681  0.00  0.00    -0.005 C 
ATOM     14  C   UNL d   1      27.591 -15.197  -4.883  0.00  0.00     0.005 C 
ENDBRANCH  12  13
ENDBRANCH  11  12
ENDBRANCH  10  11
ENDBRANCH   8  10
ENDBRANCH   4   8
ENDBRANCH   1   2
BRANCH   1  15
ATOM     15  C   UNL d   1      27.716 -17.300  -0.900  0.00  0.00     0.160 C 
BRANCH  15  16
ATOM     16  C   UNL d   1      26.647 -17.474   0.188  0.00  0.00     0.209 C 
BRANCH  16  17
ATOM     17  O   UNL d   1      25.559 -16.588  -0.117  0.00  0.00    -0.349 OA
BRANCH  17  18
ATOM     18  C   UNL d   1      24.327 -17.151  -0.260  0.00  0.00     0.069 A 
ATOM     19  C   UNL d   1      24.253 -18.546  -0.155  0.00  0.00     0.039 A 
ATOM     20  C   UNL d   1      23.059 -19.210  -0.444  0.00  0.00     0.039 A 
ATOM     21  C   UNL d   1      21.929 -18.458  -0.781  0.00  0.00     0.103 A 
ATOM     22  C   UNL d   1      22.008 -17.064  -0.895  0.00  0.00     0.039 A 
ATOM     23  C   UNL d   1      23.212 -16.414  -0.635  0.00  0.00     0.039 A 
BRANCH  21  24
ATOM     24  N   UNL d   1      20.638 -19.125  -0.971  0.00  0.00    -0.116 N 
ATOM     25  O   UNL d   1      19.808 -19.047  -0.054  0.00  0.00    -0.532 OA
ATOM     26  O   UNL d   1      20.442 -19.700  -2.051  0.00  0.00    -0.532 OA
ENDBRANCH  21  24
ENDBRANCH  17  18
ENDBRANCH  16  17
ENDBRANCH  15  16
BRANCH  15  27
ATOM     27  O   UNL d   1      27.124 -16.683  -2.050  0.00  0.00    -0.392 OA
ATOM     28  H   UNL d   1      26.660 -15.878  -1.758  0.00  0.00     0.210 HD
ENDBRANCH  15  27
ENDBRANCH   1  15
TORSDOF 12
ENDMDL
