MODEL 1
REMARK VINA RESULT:   -28.212      0.000      0.000
REMARK INTER + INTRA:         -32.147
REMARK INTER:                 -31.195
REMARK INTRA:                  -0.953
REMARK CONF_INDEPENDENT:        2.983
REMARK UNBOUND:                -0.953
REMARK  10 active torsions:
REMARK  status: ('A' for Active; 'I' for Inactive)
REMARK    1  A    between atoms: C_2  and  C_3 
REMARK       I    between atoms: C_2  and  N_24 
REMARK    2  A    between atoms: C_3  and  N_4 
REMARK    3  A    between atoms: N_4  and  C_5 
REMARK    4  A    between atoms: C_8  and  C_9 
REMARK    5  A    between atoms: C_9  and  C_10 
REMARK    6  A    between atoms: C_10  and  N_11 
REMARK    7  A    between atoms: C_14  and  C_15 
REMARK    8  A    between atoms: N_24  and  C_25 
REMARK    9  A    between atoms: C_29  and  C_30 
REMARK       I    between atoms: C_30  and  N_32 
REMARK   10  A    between atoms: N_32  and  C_33 
ROOT
ATOM      1  N   UNL d   1      29.409 -16.025   0.128  0.00  0.00    -0.381 N 
ATOM      2  H   UNL d   1      29.766 -16.237   1.054  0.00  0.00     0.160 HD
ENDROOT
BRANCH   1   3
ATOM      3  C   UNL d   1      30.277 -15.338  -0.812  0.00  0.00     0.223 C 
BRANCH   3   4
ATOM      4  C   UNL d   1      31.583 -16.087  -1.124  0.00  0.00     0.239 C 
ATOM      5  O   UNL d   1      32.438 -16.307  -0.264  0.00  0.00    -0.271 OA
ATOM      6  N   UNL d   1      31.744 -16.613  -2.395  0.00  0.00    -0.326 N 
ATOM      7  H   UNL d   1      32.516 -17.264  -2.485  0.00  0.00     0.169 HD
BRANCH   6   8
ATOM      8  C   UNL d   1      30.951 -16.368  -3.530  0.00  0.00     0.035 A 
ATOM      9  C   UNL d   1      31.311 -16.887  -4.772  0.00  0.00     0.029 A 
ATOM     10  C   UNL d   1      30.524 -16.598  -5.892  0.00  0.00     0.003 A 
ATOM     11  C   UNL d   1      29.352 -15.842  -5.752  0.00  0.00     0.017 A 
ATOM     12  C   UNL d   1      28.997 -15.303  -4.506  0.00  0.00     0.034 A 
ATOM     13  C   UNL d   1      29.840 -15.531  -3.432  0.00  0.00     0.046 A 
BRANCH  12  14
ATOM     14  C   UNL d   1      27.788 -14.446  -4.368  0.00  0.00     0.252 C 
ATOM     15  O   UNL d   1      26.693 -14.983  -4.587  0.00  0.00    -0.268 OA
ATOM     16  N   UNL d   1      27.892 -13.082  -4.039  0.00  0.00    -0.352 N 
ATOM     17  H   UNL d   1      28.777 -12.619  -3.869  0.00  0.00     0.163 HD
BRANCH  16  18
ATOM     18  C   UNL d   1      26.688 -12.300  -4.090  0.00  0.00     0.084 A 
ATOM     19  C   UNL d   1      25.927 -12.218  -5.394  0.00  0.00     0.027 A 
ATOM     20  C   UNL d   1      25.231 -12.635  -4.138  0.00  0.00     0.027 A 
ENDBRANCH  16  18
ENDBRANCH  12  14
ENDBRANCH   6   8
ENDBRANCH   3   4
ENDBRANCH   1   3
BRANCH   1  21
ATOM     21  C   UNL d   1      28.146 -16.418  -0.276  0.00  0.00     0.028 A 
ATOM     22  C   UNL d   1      27.296 -17.128   0.572  0.00  0.00     0.029 A 
ATOM     23  C   UNL d   1      26.005 -17.504   0.155  0.00  0.00     0.009 A 
ATOM     24  C   UNL d   1      25.503 -17.110  -1.097  0.00  0.00    -0.056 A 
ATOM     25  C   UNL d   1      26.362 -16.404  -1.942  0.00  0.00     0.009 A 
ATOM     26  C   UNL d   1      27.649 -16.057  -1.530  0.00  0.00     0.029 A 
BRANCH  24  27
ATOM     27  C   UNL d   1      24.056 -17.410  -1.462  0.00  0.00     0.061 C 
BRANCH  27  28
ATOM     28  C   UNL d   1      23.074 -17.391  -0.282  0.00  0.00     0.174 C 
BRANCH  28  29
ATOM     29  N   UNL d   1      21.795 -18.040  -0.472  0.00  0.00    -0.191 N 
ATOM     30  N   UNL d   1      20.950 -17.779  -1.482  0.00  0.00     0.024 NA
ATOM     31  N   UNL d   1      19.905 -18.575  -1.263  0.00  0.00    -0.136 NA
ATOM     32  C   UNL d   1      20.179 -19.289  -0.118  0.00  0.00     0.198 A 
ATOM     33  N   UNL d   1      21.376 -18.975   0.404  0.00  0.00    -0.136 NA
BRANCH  32  34
ATOM     34  C   UNL d   1      19.240 -20.199   0.529  0.00  0.00     0.015 A 
ATOM     35  C   UNL d   1      19.335 -20.532   1.887  0.00  0.00     0.015 A 
ATOM     36  C   UNL d   1      18.414 -21.420   2.465  0.00  0.00     0.001 A 
ATOM     37  C   UNL d   1      17.363 -21.939   1.708  0.00  0.00     0.000 A 
ATOM     38  C   UNL d   1      17.254 -21.606   0.361  0.00  0.00     0.001 A 
ATOM     39  C   UNL d   1      18.190 -20.749  -0.225  0.00  0.00     0.015 A 
ENDBRANCH  32  34
ENDBRANCH  28  29
ENDBRANCH  27  28
ENDBRANCH  24  27
ENDBRANCH   1  21
TORSDOF 10
ENDMDL
MODEL 2
REMARK VINA RESULT:   -28.128      1.757      2.564
REMARK INTER + INTRA:         -32.992
REMARK INTER:                 -31.111
REMARK INTRA:                  -1.881
REMARK CONF_INDEPENDENT:        2.983
REMARK UNBOUND:                -1.881
REMARK  10 active torsions:
REMARK  status: ('A' for Active; 'I' for Inactive)
REMARK    1  A    between atoms: C_2  and  C_3 
REMARK       I    between atoms: C_2  and  N_24 
REMARK    2  A    between atoms: C_3  and  N_4 
REMARK    3  A    between atoms: N_4  and  C_5 
REMARK    4  A    between atoms: C_8  and  C_9 
REMARK    5  A    between atoms: C_9  and  C_10 
REMARK    6  A    between atoms: C_10  and  N_11 
REMARK    7  A    between atoms: C_14  and  C_15 
REMARK    8  A    between atoms: N_24  and  C_25 
REMARK    9  A    between atoms: C_29  and  C_30 
REMARK       I    between atoms: C_30  and  N_32 
REMARK   10  A    between atoms: N_32  and  C_33 
ROOT
ATOM      1  N   UNL d   1      29.144 -15.024  -0.425  0.00  0.00    -0.381 N 
ATOM      2  H   UNL d   1      29.785 -15.055   0.362  0.00  0.00     0.160 HD
ENDROOT
BRANCH   1   3
ATOM      3  C   UNL d   1      29.469 -14.172  -1.555  0.00  0.00     0.223 C 
BRANCH   3   4
ATOM      4  C   UNL d   1      30.017 -14.929  -2.775  0.00  0.00     0.239 C 
ATOM      5  O   UNL d   1      31.165 -15.380  -2.812  0.00  0.00    -0.271 OA
ATOM      6  N   UNL d   1      29.148 -15.194  -3.821  0.00  0.00    -0.326 N 
ATOM      7  H   UNL d   1      29.497 -15.865  -4.497  0.00  0.00     0.169 HD
BRANCH   6   8
ATOM      8  C   UNL d   1      27.860 -14.668  -4.017  0.00  0.00     0.035 A 
ATOM      9  C   UNL d   1      26.796 -15.504  -4.353  0.00  0.00     0.029 A 
ATOM     10  C   UNL d   1      25.531 -14.949  -4.577  0.00  0.00     0.003 A 
ATOM     11  C   UNL d   1      25.326 -13.573  -4.408  0.00  0.00     0.017 A 
ATOM     12  C   UNL d   1      26.399 -12.727  -4.088  0.00  0.00     0.034 A 
ATOM     13  C   UNL d   1      27.657 -13.290  -3.957  0.00  0.00     0.046 A 
BRANCH  12  14
ATOM     14  C   UNL d   1      26.196 -11.257  -3.972  0.00  0.00     0.252 C 
ATOM     15  O   UNL d   1      25.412 -10.868  -3.095  0.00  0.00    -0.268 OA
ATOM     16  N   UNL d   1      26.841 -10.359  -4.842  0.00  0.00    -0.352 N 
ATOM     17  H   UNL d   1      27.475 -10.655  -5.573  0.00  0.00     0.163 HD
BRANCH  16  18
ATOM     18  C   UNL d   1      26.459  -8.976  -4.761  0.00  0.00     0.084 A 
ATOM     19  C   UNL d   1      25.595  -8.394  -5.857  0.00  0.00     0.027 A 
ATOM     20  C   UNL d   1      25.185  -8.267  -4.425  0.00  0.00     0.027 A 
ENDBRANCH  16  18
ENDBRANCH  12  14
ENDBRANCH   6   8
ENDBRANCH   3   4
ENDBRANCH   1   3
BRANCH   1  21
ATOM     21  C   UNL d   1      28.005 -15.807  -0.471  0.00  0.00     0.028 A 
ATOM     22  C   UNL d   1      27.950 -17.054   0.152  0.00  0.00     0.029 A 
ATOM     23  C   UNL d   1      26.777 -17.831   0.115  0.00  0.00     0.009 A 
ATOM     24  C   UNL d   1      25.603 -17.345  -0.483  0.00  0.00    -0.056 A 
ATOM     25  C   UNL d   1      25.667 -16.098  -1.109  0.00  0.00     0.009 A 
ATOM     26  C   UNL d   1      26.842 -15.345  -1.089  0.00  0.00     0.029 A 
BRANCH  24  27
ATOM     27  C   UNL d   1      24.313 -18.148  -0.384  0.00  0.00     0.061 C 
BRANCH  27  28
ATOM     28  C   UNL d   1      23.034 -17.306  -0.269  0.00  0.00     0.174 C 
BRANCH  28  29
ATOM     29  N   UNL d   1      21.772 -17.986  -0.464  0.00  0.00    -0.191 N 
ATOM     30  N   UNL d   1      20.934 -17.760  -1.489  0.00  0.00     0.024 NA
ATOM     31  N   UNL d   1      19.904 -18.575  -1.270  0.00  0.00    -0.136 NA
ATOM     32  C   UNL d   1      20.179 -19.265  -0.110  0.00  0.00     0.198 A 
ATOM     33  N   UNL d   1      21.363 -18.917   0.421  0.00  0.00    -0.136 NA
BRANCH  32  34
ATOM     34  C   UNL d   1      19.253 -20.186   0.539  0.00  0.00     0.015 A 
ATOM     35  C   UNL d   1      19.352 -20.511   1.899  0.00  0.00     0.015 A 
ATOM     36  C   UNL d   1      18.442 -21.410   2.480  0.00  0.00     0.001 A 
ATOM     37  C   UNL d   1      17.399 -21.946   1.724  0.00  0.00     0.000 A 
ATOM     38  C   UNL d   1      17.287 -21.620   0.376  0.00  0.00     0.001 A 
ATOM     39  C   UNL d   1      18.212 -20.753  -0.212  0.00  0.00     0.015 A 
ENDBRANCH  32  34
ENDBRANCH  28  29
ENDBRANCH  27  28
ENDBRANCH  24  27
ENDBRANCH   1  21
TORSDOF 10
ENDMDL
MODEL 3
REMARK VINA RESULT:   -28.010      4.488      6.694
REMARK INTER + INTRA:         -32.301
REMARK INTER:                 -30.993
REMARK INTRA:                  -1.308
REMARK CONF_INDEPENDENT:        2.983
REMARK UNBOUND:                -1.308
REMARK  10 active torsions:
REMARK  status: ('A' for Active; 'I' for Inactive)
REMARK    1  A    between atoms: C_2  and  C_3 
REMARK       I    between atoms: C_2  and  N_24 
REMARK    2  A    between atoms: C_3  and  N_4 
REMARK    3  A    between atoms: N_4  and  C_5 
REMARK    4  A    between atoms: C_8  and  C_9 
REMARK    5  A    between atoms: C_9  and  C_10 
REMARK    6  A    between atoms: C_10  and  N_11 
REMARK    7  A    between atoms: C_14  and  C_15 
REMARK    8  A    between atoms: N_24  and  C_25 
REMARK    9  A    between atoms: C_29  and  C_30 
REMARK       I    between atoms: C_30  and  N_32 
REMARK   10  A    between atoms: N_32  and  C_33 
ROOT
ATOM      1  N   UNL d   1      29.451 -16.706   0.088  0.00  0.00    -0.381 N 
ATOM      2  H   UNL d   1      30.115 -17.472   0.020  0.00  0.00     0.160 HD
ENDROOT
BRANCH   1   3
ATOM      3  C   UNL d   1      29.915 -15.425   0.591  0.00  0.00     0.223 C 
BRANCH   3   4
ATOM      4  C   UNL d   1      31.250 -15.497   1.352  0.00  0.00     0.239 C 
ATOM      5  O   UNL d   1      32.191 -16.195   0.969  0.00  0.00    -0.271 OA
ATOM      6  N   UNL d   1      31.420 -14.664   2.446  0.00  0.00    -0.326 N 
ATOM      7  H   UNL d   1      32.376 -14.601   2.780  0.00  0.00     0.169 HD
BRANCH   6   8
ATOM      8  C   UNL d   1      30.439 -13.900   3.101  0.00  0.00     0.035 A 
ATOM      9  C   UNL d   1      29.515 -13.156   2.369  0.00  0.00     0.029 A 
ATOM     10  C   UNL d   1      28.572 -12.375   3.046  0.00  0.00     0.003 A 
ATOM     11  C   UNL d   1      28.522 -12.389   4.446  0.00  0.00     0.017 A 
ATOM     12  C   UNL d   1      29.462 -13.122   5.186  0.00  0.00     0.034 A 
ATOM     13  C   UNL d   1      30.439 -13.816   4.493  0.00  0.00     0.046 A 
BRANCH  12  14
ATOM     14  C   UNL d   1      29.452 -13.086   6.674  0.00  0.00     0.252 C 
ATOM     15  O   UNL d   1      28.444 -12.609   7.214  0.00  0.00    -0.268 OA
ATOM     16  N   UNL d   1      30.551 -13.539   7.424  0.00  0.00    -0.352 N 
ATOM     17  H   UNL d   1      31.390 -13.920   7.003  0.00  0.00     0.163 HD
BRANCH  16  18
ATOM     18  C   UNL d   1      30.517 -13.314   8.843  0.00  0.00     0.084 A 
ATOM     19  C   UNL d   1      31.748 -12.755   9.521  0.00  0.00     0.027 A 
ATOM     20  C   UNL d   1      30.420 -12.092   9.699  0.00  0.00     0.027 A 
ENDBRANCH  16  18
ENDBRANCH  12  14
ENDBRANCH   6   8
ENDBRANCH   3   4
ENDBRANCH   1   3
BRANCH   1  21
ATOM     21  C   UNL d   1      28.139 -16.835  -0.332  0.00  0.00     0.028 A 
ATOM     22  C   UNL d   1      27.328 -17.878   0.118  0.00  0.00     0.029 A 
ATOM     23  C   UNL d   1      25.989 -17.986  -0.301  0.00  0.00     0.009 A 
ATOM     24  C   UNL d   1      25.404 -17.008  -1.123  0.00  0.00    -0.056 A 
ATOM     25  C   UNL d   1      26.224 -15.970  -1.572  0.00  0.00     0.009 A 
ATOM     26  C   UNL d   1      27.558 -15.884  -1.172  0.00  0.00     0.029 A 
BRANCH  24  27
ATOM     27  C   UNL d   1      23.918 -17.077  -1.443  0.00  0.00     0.061 C 
BRANCH  27  28
ATOM     28  C   UNL d   1      23.001 -17.264  -0.225  0.00  0.00     0.174 C 
BRANCH  28  29
ATOM     29  N   UNL d   1      21.750 -17.958  -0.436  0.00  0.00    -0.191 N 
ATOM     30  N   UNL d   1      20.930 -17.753  -1.479  0.00  0.00     0.024 NA
ATOM     31  N   UNL d   1      19.904 -18.575  -1.270  0.00  0.00    -0.136 NA
ATOM     32  C   UNL d   1      20.163 -19.248  -0.097  0.00  0.00     0.198 A 
ATOM     33  N   UNL d   1      21.333 -18.882   0.453  0.00  0.00    -0.136 NA
BRANCH  32  34
ATOM     34  C   UNL d   1      19.233 -20.170   0.546  0.00  0.00     0.015 A 
ATOM     35  C   UNL d   1      19.340 -20.518   1.899  0.00  0.00     0.015 A 
ATOM     36  C   UNL d   1      18.426 -21.417   2.474  0.00  0.00     0.001 A 
ATOM     37  C   UNL d   1      17.371 -21.930   1.719  0.00  0.00     0.000 A 
ATOM     38  C   UNL d   1      17.250 -21.581   0.377  0.00  0.00     0.001 A 
ATOM     39  C   UNL d   1      18.179 -20.714  -0.205  0.00  0.00     0.015 A 
ENDBRANCH  32  34
ENDBRANCH  28  29
ENDBRANCH  27  28
ENDBRANCH  24  27
ENDBRANCH   1  21
TORSDOF 10
ENDMDL
MODEL 4
REMARK VINA RESULT:   -27.578      3.348      5.703
REMARK INTER + INTRA:         -31.862
REMARK INTER:                 -30.561
REMARK INTRA:                  -1.301
REMARK CONF_INDEPENDENT:        2.983
REMARK UNBOUND:                -1.301
REMARK  10 active torsions:
REMARK  status: ('A' for Active; 'I' for Inactive)
REMARK    1  A    between atoms: C_2  and  C_3 
REMARK       I    between atoms: C_2  and  N_24 
REMARK    2  A    between atoms: C_3  and  N_4 
REMARK    3  A    between atoms: N_4  and  C_5 
REMARK    4  A    between atoms: C_8  and  C_9 
REMARK    5  A    between atoms: C_9  and  C_10 
REMARK    6  A    between atoms: C_10  and  N_11 
REMARK    7  A    between atoms: C_14  and  C_15 
REMARK    8  A    between atoms: N_24  and  C_25 
REMARK    9  A    between atoms: C_29  and  C_30 
REMARK       I    between atoms: C_30  and  N_32 
REMARK   10  A    between atoms: N_32  and  C_33 
ROOT
ATOM      1  N   UNL d   1      29.218 -15.226  -0.390  0.00  0.00    -0.381 N 
ATOM      2  H   UNL d   1      29.210 -14.232  -0.599  0.00  0.00     0.160 HD
ENDROOT
BRANCH   1   3
ATOM      3  C   UNL d   1      30.459 -15.831   0.062  0.00  0.00     0.223 C 
BRANCH   3   4
ATOM      4  C   UNL d   1      31.504 -16.025  -1.049  0.00  0.00     0.239 C 
ATOM      5  O   UNL d   1      31.554 -15.296  -2.043  0.00  0.00    -0.271 OA
ATOM      6  N   UNL d   1      32.479 -16.991  -0.864  0.00  0.00    -0.326 N 
ATOM      7  H   UNL d   1      33.253 -16.937  -1.518  0.00  0.00     0.169 HD
BRANCH   6   8
ATOM      8  C   UNL d   1      32.519 -17.988   0.126  0.00  0.00     0.035 A 
ATOM      9  C   UNL d   1      33.196 -17.769   1.326  0.00  0.00     0.029 A 
ATOM     10  C   UNL d   1      33.250 -18.791   2.279  0.00  0.00     0.003 A 
ATOM     11  C   UNL d   1      32.581 -20.001   2.053  0.00  0.00     0.017 A 
ATOM     12  C   UNL d   1      31.914 -20.231   0.840  0.00  0.00     0.034 A 
ATOM     13  C   UNL d   1      31.950 -19.236  -0.122  0.00  0.00     0.046 A 
BRANCH  12  14
ATOM     14  C   UNL d   1      31.258 -21.539   0.571  0.00  0.00     0.252 C 
ATOM     15  O   UNL d   1      30.563 -22.013   1.481  0.00  0.00    -0.268 OA
ATOM     16  N   UNL d   1      31.450 -22.218  -0.645  0.00  0.00    -0.352 N 
ATOM     17  H   UNL d   1      32.024 -21.856  -1.397  0.00  0.00     0.163 HD
BRANCH  16  18
ATOM     18  C   UNL d   1      30.912 -23.546  -0.750  0.00  0.00     0.084 A 
ATOM     19  C   UNL d   1      31.250 -24.556   0.324  0.00  0.00     0.027 A 
ATOM     20  C   UNL d   1      29.824 -24.286  -0.037  0.00  0.00     0.027 A 
ENDBRANCH  16  18
ENDBRANCH  12  14
ENDBRANCH   6   8
ENDBRANCH   3   4
ENDBRANCH   1   3
BRANCH   1  21
ATOM     21  C   UNL d   1      28.076 -16.001  -0.475  0.00  0.00     0.028 A 
ATOM     22  C   UNL d   1      27.897 -17.127   0.330  0.00  0.00     0.029 A 
ATOM     23  C   UNL d   1      26.721 -17.895   0.249  0.00  0.00     0.009 A 
ATOM     24  C   UNL d   1      25.660 -17.512  -0.588  0.00  0.00    -0.056 A 
ATOM     25  C   UNL d   1      25.849 -16.387  -1.395  0.00  0.00     0.009 A 
ATOM     26  C   UNL d   1      27.029 -15.645  -1.326  0.00  0.00     0.029 A 
BRANCH  24  27
ATOM     27  C   UNL d   1      24.347 -18.282  -0.550  0.00  0.00     0.061 C 
BRANCH  27  28
ATOM     28  C   UNL d   1      23.096 -17.420  -0.328  0.00  0.00     0.174 C 
BRANCH  28  29
ATOM     29  N   UNL d   1      21.810 -18.058  -0.503  0.00  0.00    -0.191 N 
ATOM     30  N   UNL d   1      20.953 -17.786  -1.500  0.00  0.00     0.024 NA
ATOM     31  N   UNL d   1      19.905 -18.575  -1.270  0.00  0.00    -0.136 NA
ATOM     32  C   UNL d   1      20.189 -19.296  -0.131  0.00  0.00     0.198 A 
ATOM     33  N   UNL d   1      21.396 -18.994   0.374  0.00  0.00    -0.136 NA
BRANCH  32  34
ATOM     34  C   UNL d   1      19.253 -20.202   0.524  0.00  0.00     0.015 A 
ATOM     35  C   UNL d   1      19.365 -20.543   1.879  0.00  0.00     0.015 A 
ATOM     36  C   UNL d   1      18.446 -21.427   2.466  0.00  0.00     0.001 A 
ATOM     37  C   UNL d   1      17.379 -21.932   1.722  0.00  0.00     0.000 A 
ATOM     38  C   UNL d   1      17.252 -21.591   0.379  0.00  0.00     0.001 A 
ATOM     39  C   UNL d   1      18.187 -20.739  -0.216  0.00  0.00     0.015 A 
ENDBRANCH  32  34
ENDBRANCH  28  29
ENDBRANCH  27  28
ENDBRANCH  24  27
ENDBRANCH   1  21
TORSDOF 10
ENDMDL
MODEL 5
REMARK VINA RESULT:   -27.463      3.719      4.713
REMARK INTER + INTRA:         -31.858
REMARK INTER:                 -30.446
REMARK INTRA:                  -1.412
REMARK CONF_INDEPENDENT:        2.983
REMARK UNBOUND:                -1.412
REMARK  10 active torsions:
REMARK  status: ('A' for Active; 'I' for Inactive)
REMARK    1  A    between atoms: C_2  and  C_3 
REMARK       I    between atoms: C_2  and  N_24 
REMARK    2  A    between atoms: C_3  and  N_4 
REMARK    3  A    between atoms: N_4  and  C_5 
REMARK    4  A    between atoms: C_8  and  C_9 
REMARK    5  A    between atoms: C_9  and  C_10 
REMARK    6  A    between atoms: C_10  and  N_11 
REMARK    7  A    between atoms: C_14  and  C_15 
REMARK    8  A    between atoms: N_24  and  C_25 
REMARK    9  A    between atoms: C_29  and  C_30 
REMARK       I    between atoms: C_30  and  N_32 
REMARK   10  A    between atoms: N_32  and  C_33 
ROOT
ATOM      1  N   UNL d   1      29.267 -15.673   0.494  0.00  0.00    -0.381 N 
ATOM      2  H   UNL d   1      29.728 -15.987   1.342  0.00  0.00     0.160 HD
ENDROOT
BRANCH   1   3
ATOM      3  C   UNL d   1      29.894 -14.623  -0.291  0.00  0.00     0.223 C 
BRANCH   3   4
ATOM      4  C   UNL d   1      30.976 -13.836   0.466  0.00  0.00     0.239 C 
ATOM      5  O   UNL d   1      32.173 -14.124   0.396  0.00  0.00    -0.271 OA
ATOM      6  N   UNL d   1      30.589 -12.704   1.164  0.00  0.00    -0.326 N 
ATOM      7  H   UNL d   1      31.357 -12.115   1.468  0.00  0.00     0.169 HD
BRANCH   6   8
ATOM      8  C   UNL d   1      29.280 -12.287   1.459  0.00  0.00     0.035 A 
ATOM      9  C   UNL d   1      28.307 -13.214   1.832  0.00  0.00     0.029 A 
ATOM     10  C   UNL d   1      27.003 -12.776   2.085  0.00  0.00     0.003 A 
ATOM     11  C   UNL d   1      26.694 -11.410   2.022  0.00  0.00     0.017 A 
ATOM     12  C   UNL d   1      27.666 -10.477   1.630  0.00  0.00     0.034 A 
ATOM     13  C   UNL d   1      28.926 -10.948   1.300  0.00  0.00     0.046 A 
BRANCH  12  14
ATOM     14  C   UNL d   1      27.323  -9.035   1.499  0.00  0.00     0.252 C 
ATOM     15  O   UNL d   1      27.402  -8.346   2.526  0.00  0.00    -0.268 OA
ATOM     16  N   UNL d   1      26.896  -8.493   0.273  0.00  0.00    -0.352 N 
ATOM     17  H   UNL d   1      26.811  -9.040  -0.575  0.00  0.00     0.163 HD
BRANCH  16  18
ATOM     18  C   UNL d   1      26.431  -7.134   0.281  0.00  0.00     0.084 A 
ATOM     19  C   UNL d   1      25.454  -6.693  -0.785  0.00  0.00     0.027 A 
ATOM     20  C   UNL d   1      25.141  -6.478   0.661  0.00  0.00     0.027 A 
ENDBRANCH  16  18
ENDBRANCH  12  14
ENDBRANCH   6   8
ENDBRANCH   3   4
ENDBRANCH   1   3
BRANCH   1  21
ATOM     21  C   UNL d   1      28.094 -16.249   0.041  0.00  0.00     0.028 A 
ATOM     22  C   UNL d   1      27.596 -17.426   0.601  0.00  0.00     0.029 A 
ATOM     23  C   UNL d   1      26.391 -17.991   0.145  0.00  0.00     0.009 A 
ATOM     24  C   UNL d   1      25.612 -17.350  -0.833  0.00  0.00    -0.056 A 
ATOM     25  C   UNL d   1      26.120 -16.175  -1.392  0.00  0.00     0.009 A 
ATOM     26  C   UNL d   1      27.329 -15.635  -0.951  0.00  0.00     0.029 A 
BRANCH  24  27
ATOM     27  C   UNL d   1      24.247 -17.911  -1.203  0.00  0.00     0.061 C 
BRANCH  27  28
ATOM     28  C   UNL d   1      23.083 -17.405  -0.338  0.00  0.00     0.174 C 
BRANCH  28  29
ATOM     29  N   UNL d   1      21.799 -18.050  -0.509  0.00  0.00    -0.191 N 
ATOM     30  N   UNL d   1      20.937 -17.782  -1.503  0.00  0.00     0.024 NA
ATOM     31  N   UNL d   1      19.894 -18.577  -1.270  0.00  0.00    -0.136 NA
ATOM     32  C   UNL d   1      20.187 -19.298  -0.133  0.00  0.00     0.198 A 
ATOM     33  N   UNL d   1      21.394 -18.990   0.369  0.00  0.00    -0.136 NA
BRANCH  32  34
ATOM     34  C   UNL d   1      19.258 -20.210   0.525  0.00  0.00     0.015 A 
ATOM     35  C   UNL d   1      19.369 -20.541   1.882  0.00  0.00     0.015 A 
ATOM     36  C   UNL d   1      18.457 -21.431   2.472  0.00  0.00     0.001 A 
ATOM     37  C   UNL d   1      17.398 -21.952   1.728  0.00  0.00     0.000 A 
ATOM     38  C   UNL d   1      17.273 -21.621   0.382  0.00  0.00     0.001 A 
ATOM     39  C   UNL d   1      18.201 -20.762  -0.215  0.00  0.00     0.015 A 
ENDBRANCH  32  34
ENDBRANCH  28  29
ENDBRANCH  27  28
ENDBRANCH  24  27
ENDBRANCH   1  21
TORSDOF 10
ENDMDL
MODEL 6
REMARK VINA RESULT:   -27.455      2.514      4.729
REMARK INTER + INTRA:         -31.955
REMARK INTER:                 -30.438
REMARK INTRA:                  -1.517
REMARK CONF_INDEPENDENT:        2.983
REMARK UNBOUND:                -1.517
REMARK  10 active torsions:
REMARK  status: ('A' for Active; 'I' for Inactive)
REMARK    1  A    between atoms: C_2  and  C_3 
REMARK       I    between atoms: C_2  and  N_24 
REMARK    2  A    between atoms: C_3  and  N_4 
REMARK    3  A    between atoms: N_4  and  C_5 
REMARK    4  A    between atoms: C_8  and  C_9 
REMARK    5  A    between atoms: C_9  and  C_10 
REMARK    6  A    between atoms: C_10  and  N_11 
REMARK    7  A    between atoms: C_14  and  C_15 
REMARK    8  A    between atoms: N_24  and  C_25 
REMARK    9  A    between atoms: C_29  and  C_30 
REMARK       I    between atoms: C_30  and  N_32 
REMARK   10  A    between atoms: N_32  and  C_33 
ROOT
ATOM      1  N   UNL d   1      29.021 -15.286  -2.139  0.00  0.00    -0.381 N 
ATOM      2  H   UNL d   1      29.794 -15.793  -2.559  0.00  0.00     0.160 HD
ENDROOT
BRANCH   1   3
ATOM      3  C   UNL d   1      29.106 -13.839  -2.046  0.00  0.00     0.223 C 
BRANCH   3   4
ATOM      4  C   UNL d   1      30.341 -13.238  -2.737  0.00  0.00     0.239 C 
ATOM      5  O   UNL d   1      30.287 -12.732  -3.861  0.00  0.00    -0.271 OA
ATOM      6  N   UNL d   1      31.524 -13.177  -2.019  0.00  0.00    -0.326 N 
ATOM      7  H   UNL d   1      32.240 -12.593  -2.439  0.00  0.00     0.169 HD
BRANCH   6   8
ATOM      8  C   UNL d   1      31.813 -13.799  -0.793  0.00  0.00     0.035 A 
ATOM      9  C   UNL d   1      32.813 -14.767  -0.706  0.00  0.00     0.029 A 
ATOM     10  C   UNL d   1      33.055 -15.396   0.519  0.00  0.00     0.003 A 
ATOM     11  C   UNL d   1      32.340 -15.012   1.661  0.00  0.00     0.017 A 
ATOM     12  C   UNL d   1      31.322 -14.051   1.574  0.00  0.00     0.034 A 
ATOM     13  C   UNL d   1      31.042 -13.507   0.332  0.00  0.00     0.046 A 
BRANCH  12  14
ATOM     14  C   UNL d   1      30.517 -13.689   2.773  0.00  0.00     0.252 C 
ATOM     15  O   UNL d   1      30.807 -12.626   3.341  0.00  0.00    -0.268 OA
ATOM     16  N   UNL d   1      29.500 -14.533   3.253  0.00  0.00    -0.352 N 
ATOM     17  H   UNL d   1      29.255 -15.412   2.813  0.00  0.00     0.163 HD
BRANCH  16  18
ATOM     18  C   UNL d   1      28.890 -14.182   4.505  0.00  0.00     0.084 A 
ATOM     19  C   UNL d   1      27.381 -14.117   4.587  0.00  0.00     0.027 A 
ATOM     20  C   UNL d   1      28.155 -14.952   5.557  0.00  0.00     0.027 A 
ENDBRANCH  16  18
ENDBRANCH  12  14
ENDBRANCH   6   8
ENDBRANCH   3   4
ENDBRANCH   1   3
BRANCH   1  21
ATOM     21  C   UNL d   1      27.876 -15.928  -1.703  0.00  0.00     0.028 A 
ATOM     22  C   UNL d   1      26.646 -15.733  -2.332  0.00  0.00     0.029 A 
ATOM     23  C   UNL d   1      25.492 -16.408  -1.891  0.00  0.00     0.009 A 
ATOM     24  C   UNL d   1      25.557 -17.356  -0.856  0.00  0.00    -0.056 A 
ATOM     25  C   UNL d   1      26.791 -17.541  -0.228  0.00  0.00     0.009 A 
ATOM     26  C   UNL d   1      27.924 -16.849  -0.655  0.00  0.00     0.029 A 
BRANCH  24  27
ATOM     27  C   UNL d   1      24.323 -18.172  -0.497  0.00  0.00     0.061 C 
BRANCH  27  28
ATOM     28  C   UNL d   1      23.050 -17.348  -0.252  0.00  0.00     0.174 C 
BRANCH  28  29
ATOM     29  N   UNL d   1      21.780 -18.013  -0.448  0.00  0.00    -0.191 N 
ATOM     30  N   UNL d   1      20.942 -17.770  -1.469  0.00  0.00     0.024 NA
ATOM     31  N   UNL d   1      19.904 -18.576  -1.252  0.00  0.00    -0.136 NA
ATOM     32  C   UNL d   1      20.175 -19.277  -0.098  0.00  0.00     0.198 A 
ATOM     33  N   UNL d   1      21.364 -18.945   0.432  0.00  0.00    -0.136 NA
BRANCH  32  34
ATOM     34  C   UNL d   1      19.241 -20.192   0.548  0.00  0.00     0.015 A 
ATOM     35  C   UNL d   1      19.348 -20.538   1.901  0.00  0.00     0.015 A 
ATOM     36  C   UNL d   1      18.430 -21.431   2.479  0.00  0.00     0.001 A 
ATOM     37  C   UNL d   1      17.371 -21.939   1.726  0.00  0.00     0.000 A 
ATOM     38  C   UNL d   1      17.250 -21.592   0.384  0.00  0.00     0.001 A 
ATOM     39  C   UNL d   1      18.183 -20.731  -0.201  0.00  0.00     0.015 A 
ENDBRANCH  32  34
ENDBRANCH  28  29
ENDBRANCH  27  28
ENDBRANCH  24  27
ENDBRANCH   1  21
TORSDOF 10
ENDMDL
MODEL 7
REMARK VINA RESULT:   -27.450      1.847      3.459
REMARK INTER + INTRA:         -32.076
REMARK INTER:                 -30.433
REMARK INTRA:                  -1.642
REMARK CONF_INDEPENDENT:        2.983
REMARK UNBOUND:                -1.642
REMARK  10 active torsions:
REMARK  status: ('A' for Active; 'I' for Inactive)
REMARK    1  A    between atoms: C_2  and  C_3 
REMARK       I    between atoms: C_2  and  N_24 
REMARK    2  A    between atoms: C_3  and  N_4 
REMARK    3  A    between atoms: N_4  and  C_5 
REMARK    4  A    between atoms: C_8  and  C_9 
REMARK    5  A    between atoms: C_9  and  C_10 
REMARK    6  A    between atoms: C_10  and  N_11 
REMARK    7  A    between atoms: C_14  and  C_15 
REMARK    8  A    between atoms: N_24  and  C_25 
REMARK    9  A    between atoms: C_29  and  C_30 
REMARK       I    between atoms: C_30  and  N_32 
REMARK   10  A    between atoms: N_32  and  C_33 
ROOT
ATOM      1  N   UNL d   1      29.328 -15.694   0.602  0.00  0.00    -0.381 N 
ATOM      2  H   UNL d   1      29.618 -15.596   1.570  0.00  0.00     0.160 HD
ENDROOT
BRANCH   1   3
ATOM      3  C   UNL d   1      30.303 -15.443  -0.445  0.00  0.00     0.223 C 
BRANCH   3   4
ATOM      4  C   UNL d   1      30.621 -13.954  -0.662  0.00  0.00     0.239 C 
ATOM      5  O   UNL d   1      31.018 -13.224   0.249  0.00  0.00    -0.271 OA
ATOM      6  N   UNL d   1      30.551 -13.455  -1.953  0.00  0.00    -0.326 N 
ATOM      7  H   UNL d   1      30.964 -12.536  -2.070  0.00  0.00     0.169 HD
BRANCH   6   8
ATOM      8  C   UNL d   1      30.009 -14.085  -3.086  0.00  0.00     0.035 A 
ATOM      9  C   UNL d   1      28.786 -13.672  -3.611  0.00  0.00     0.029 A 
ATOM     10  C   UNL d   1      28.253 -14.341  -4.718  0.00  0.00     0.003 A 
ATOM     11  C   UNL d   1      28.972 -15.378  -5.327  0.00  0.00     0.017 A 
ATOM     12  C   UNL d   1      30.195 -15.808  -4.791  0.00  0.00     0.034 A 
ATOM     13  C   UNL d   1      30.658 -15.187  -3.643  0.00  0.00     0.046 A 
BRANCH  12  14
ATOM     14  C   UNL d   1      30.930 -16.951  -5.398  0.00  0.00     0.252 C 
ATOM     15  O   UNL d   1      32.146 -16.800  -5.582  0.00  0.00    -0.268 OA
ATOM     16  N   UNL d   1      30.263 -18.130  -5.776  0.00  0.00    -0.352 N 
ATOM     17  H   UNL d   1      29.268 -18.270  -5.647  0.00  0.00     0.163 HD
BRANCH  16  18
ATOM     18  C   UNL d   1      31.022 -19.111  -6.501  0.00  0.00     0.084 A 
ATOM     19  C   UNL d   1      30.436 -20.493  -6.686  0.00  0.00     0.027 A 
ATOM     20  C   UNL d   1      30.910 -19.709  -7.868  0.00  0.00     0.027 A 
ENDBRANCH  16  18
ENDBRANCH  12  14
ENDBRANCH   6   8
ENDBRANCH   3   4
ENDBRANCH   1   3
BRANCH   1  21
ATOM     21  C   UNL d   1      28.055 -16.109   0.258  0.00  0.00     0.028 A 
ATOM     22  C   UNL d   1      27.044 -15.194  -0.038  0.00  0.00     0.029 A 
ATOM     23  C   UNL d   1      25.757 -15.630  -0.406  0.00  0.00     0.009 A 
ATOM     24  C   UNL d   1      25.471 -16.996  -0.562  0.00  0.00    -0.056 A 
ATOM     25  C   UNL d   1      26.486 -17.906  -0.259  0.00  0.00     0.009 A 
ATOM     26  C   UNL d   1      27.752 -17.466   0.130  0.00  0.00     0.029 A 
BRANCH  24  27
ATOM     27  C   UNL d   1      24.114 -17.430  -1.098  0.00  0.00     0.061 C 
BRANCH  27  28
ATOM     28  C   UNL d   1      22.928 -17.146  -0.164  0.00  0.00     0.174 C 
BRANCH  28  29
ATOM     29  N   UNL d   1      21.707 -17.886  -0.397  0.00  0.00    -0.191 N 
ATOM     30  N   UNL d   1      20.908 -17.722  -1.464  0.00  0.00     0.024 NA
ATOM     31  N   UNL d   1      19.905 -18.577  -1.270  0.00  0.00    -0.136 NA
ATOM     32  C   UNL d   1      20.156 -19.226  -0.081  0.00  0.00     0.198 A 
ATOM     33  N   UNL d   1      21.299 -18.813   0.492  0.00  0.00    -0.136 NA
BRANCH  32  34
ATOM     34  C   UNL d   1      19.242 -20.171   0.550  0.00  0.00     0.015 A 
ATOM     35  C   UNL d   1      19.300 -20.468   1.918  0.00  0.00     0.015 A 
ATOM     36  C   UNL d   1      18.405 -21.392   2.481  0.00  0.00     0.001 A 
ATOM     37  C   UNL d   1      17.414 -21.982   1.696  0.00  0.00     0.000 A 
ATOM     38  C   UNL d   1      17.341 -21.685   0.339  0.00  0.00     0.001 A 
ATOM     39  C   UNL d   1      18.254 -20.792  -0.230  0.00  0.00     0.015 A 
ENDBRANCH  32  34
ENDBRANCH  28  29
ENDBRANCH  27  28
ENDBRANCH  24  27
ENDBRANCH   1  21
TORSDOF 10
ENDMDL
MODEL 8
REMARK VINA RESULT:   -27.220      3.131      4.891
REMARK INTER + INTRA:         -31.642
REMARK INTER:                 -30.203
REMARK INTRA:                  -1.439
REMARK CONF_INDEPENDENT:        2.983
REMARK UNBOUND:                -1.439
REMARK  10 active torsions:
REMARK  status: ('A' for Active; 'I' for Inactive)
REMARK    1  A    between atoms: C_2  and  C_3 
REMARK       I    between atoms: C_2  and  N_24 
REMARK    2  A    between atoms: C_3  and  N_4 
REMARK    3  A    between atoms: N_4  and  C_5 
REMARK    4  A    between atoms: C_8  and  C_9 
REMARK    5  A    between atoms: C_9  and  C_10 
REMARK    6  A    between atoms: C_10  and  N_11 
REMARK    7  A    between atoms: C_14  and  C_15 
REMARK    8  A    between atoms: N_24  and  C_25 
REMARK    9  A    between atoms: C_29  and  C_30 
REMARK       I    between atoms: C_30  and  N_32 
REMARK   10  A    between atoms: N_32  and  C_33 
ROOT
ATOM      1  N   UNL d   1      29.374 -15.786  -0.103  0.00  0.00    -0.381 N 
ATOM      2  H   UNL d   1      29.535 -15.411   0.827  0.00  0.00     0.160 HD
ENDROOT
BRANCH   1   3
ATOM      3  C   UNL d   1      30.497 -15.874  -1.021  0.00  0.00     0.223 C 
BRANCH   3   4
ATOM      4  C   UNL d   1      31.817 -16.300  -0.358  0.00  0.00     0.239 C 
ATOM      5  O   UNL d   1      32.307 -15.685   0.592  0.00  0.00    -0.271 OA
ATOM      6  N   UNL d   1      32.412 -17.475  -0.789  0.00  0.00    -0.326 N 
ATOM      7  H   UNL d   1      33.156 -17.812  -0.188  0.00  0.00     0.169 HD
BRANCH   6   8
ATOM      8  C   UNL d   1      32.079 -18.237  -1.921  0.00  0.00     0.035 A 
ATOM      9  C   UNL d   1      32.018 -17.646  -3.182  0.00  0.00     0.029 A 
ATOM     10  C   UNL d   1      31.649 -18.421  -4.286  0.00  0.00     0.003 A 
ATOM     11  C   UNL d   1      31.400 -19.791  -4.133  0.00  0.00     0.017 A 
ATOM     12  C   UNL d   1      31.442 -20.386  -2.863  0.00  0.00     0.034 A 
ATOM     13  C   UNL d   1      31.725 -19.578  -1.774  0.00  0.00     0.046 A 
BRANCH  12  14
ATOM     14  C   UNL d   1      31.115 -21.827  -2.689  0.00  0.00     0.252 C 
ATOM     15  O   UNL d   1      31.080 -22.256  -1.527  0.00  0.00    -0.268 OA
ATOM     16  N   UNL d   1      30.891 -22.665  -3.796  0.00  0.00    -0.352 N 
ATOM     17  H   UNL d   1      30.927 -22.338  -4.754  0.00  0.00     0.163 HD
BRANCH  16  18
ATOM     18  C   UNL d   1      30.744 -24.070  -3.538  0.00  0.00     0.084 A 
ATOM     19  C   UNL d   1      29.502 -24.553  -2.822  0.00  0.00     0.027 A 
ATOM     20  C   UNL d   1      29.900 -25.154  -4.132  0.00  0.00     0.027 A 
ENDBRANCH  16  18
ENDBRANCH  12  14
ENDBRANCH   6   8
ENDBRANCH   3   4
ENDBRANCH   1   3
BRANCH   1  21
ATOM     21  C   UNL d   1      28.136 -16.259  -0.497  0.00  0.00     0.028 A 
ATOM     22  C   UNL d   1      27.544 -17.360   0.122  0.00  0.00     0.029 A 
ATOM     23  C   UNL d   1      26.275 -17.820  -0.275  0.00  0.00     0.009 A 
ATOM     24  C   UNL d   1      25.531 -17.140  -1.254  0.00  0.00    -0.056 A 
ATOM     25  C   UNL d   1      26.133 -16.042  -1.874  0.00  0.00     0.009 A 
ATOM     26  C   UNL d   1      27.402 -15.609  -1.491  0.00  0.00     0.029 A 
BRANCH  24  27
ATOM     27  C   UNL d   1      24.106 -17.577  -1.562  0.00  0.00     0.061 C 
BRANCH  27  28
ATOM     28  C   UNL d   1      23.127 -17.470  -0.383  0.00  0.00     0.174 C 
BRANCH  28  29
ATOM     29  N   UNL d   1      21.830 -18.092  -0.538  0.00  0.00    -0.191 N 
ATOM     30  N   UNL d   1      20.955 -17.797  -1.513  0.00  0.00     0.024 NA
ATOM     31  N   UNL d   1      19.903 -18.578  -1.270  0.00  0.00    -0.136 NA
ATOM     32  C   UNL d   1      20.204 -19.318  -0.148  0.00  0.00     0.198 A 
ATOM     33  N   UNL d   1      21.426 -19.035   0.335  0.00  0.00    -0.136 NA
BRANCH  32  34
ATOM     34  C   UNL d   1      19.273 -20.223   0.516  0.00  0.00     0.015 A 
ATOM     35  C   UNL d   1      19.371 -20.529   1.880  0.00  0.00     0.015 A 
ATOM     36  C   UNL d   1      18.456 -21.413   2.475  0.00  0.00     0.001 A 
ATOM     37  C   UNL d   1      17.408 -21.953   1.728  0.00  0.00     0.000 A 
ATOM     38  C   UNL d   1      17.297 -21.646   0.375  0.00  0.00     0.001 A 
ATOM     39  C   UNL d   1      18.227 -20.793  -0.227  0.00  0.00     0.015 A 
ENDBRANCH  32  34
ENDBRANCH  28  29
ENDBRANCH  27  28
ENDBRANCH  24  27
ENDBRANCH   1  21
TORSDOF 10
ENDMDL
MODEL 9
REMARK VINA RESULT:   -26.580      2.693      4.677
REMARK INTER + INTRA:         -31.524
REMARK INTER:                 -29.563
REMARK INTRA:                  -1.961
REMARK CONF_INDEPENDENT:        2.983
REMARK UNBOUND:                -1.961
REMARK  10 active torsions:
REMARK  status: ('A' for Active; 'I' for Inactive)
REMARK    1  A    between atoms: C_2  and  C_3 
REMARK       I    between atoms: C_2  and  N_24 
REMARK    2  A    between atoms: C_3  and  N_4 
REMARK    3  A    between atoms: N_4  and  C_5 
REMARK    4  A    between atoms: C_8  and  C_9 
REMARK    5  A    between atoms: C_9  and  C_10 
REMARK    6  A    between atoms: C_10  and  N_11 
REMARK    7  A    between atoms: C_14  and  C_15 
REMARK    8  A    between atoms: N_24  and  C_25 
REMARK    9  A    between atoms: C_29  and  C_30 
REMARK       I    between atoms: C_30  and  N_32 
REMARK   10  A    between atoms: N_32  and  C_33 
ROOT
ATOM      1  N   UNL d   1      29.462 -15.871  -1.294  0.00  0.00    -0.381 N 
ATOM      2  H   UNL d   1      30.008 -15.977  -0.445  0.00  0.00     0.160 HD
ENDROOT
BRANCH   1   3
ATOM      3  C   UNL d   1      30.152 -15.539  -2.529  0.00  0.00     0.223 C 
BRANCH   3   4
ATOM      4  C   UNL d   1      31.332 -14.570  -2.347  0.00  0.00     0.239 C 
ATOM      5  O   UNL d   1      32.462 -14.819  -2.772  0.00  0.00    -0.271 OA
ATOM      6  N   UNL d   1      31.078 -13.335  -1.772  0.00  0.00    -0.326 N 
ATOM      7  H   UNL d   1      31.835 -12.667  -1.864  0.00  0.00     0.169 HD
BRANCH   6   8
ATOM      8  C   UNL d   1      29.903 -12.919  -1.123  0.00  0.00     0.035 A 
ATOM      9  C   UNL d   1      28.860 -12.341  -1.846  0.00  0.00     0.029 A 
ATOM     10  C   UNL d   1      27.717 -11.902  -1.169  0.00  0.00     0.003 A 
ATOM     11  C   UNL d   1      27.598 -12.098   0.213  0.00  0.00     0.017 A 
ATOM     12  C   UNL d   1      28.653 -12.664   0.946  0.00  0.00     0.034 A 
ATOM     13  C   UNL d   1      29.808 -13.009   0.265  0.00  0.00     0.046 A 
BRANCH  12  14
ATOM     14  C   UNL d   1      28.555 -12.813   2.423  0.00  0.00     0.252 C 
ATOM     15  O   UNL d   1      28.404 -11.774   3.081  0.00  0.00    -0.268 OA
ATOM     16  N   UNL d   1      28.665 -14.072   3.040  0.00  0.00    -0.352 N 
ATOM     17  H   UNL d   1      28.802 -14.932   2.523  0.00  0.00     0.163 HD
BRANCH  16  18
ATOM     18  C   UNL d   1      28.723 -14.099   4.475  0.00  0.00     0.084 A 
ATOM     19  C   UNL d   1      27.803 -15.039   5.223  0.00  0.00     0.027 A 
ATOM     20  C   UNL d   1      29.277 -15.063   5.476  0.00  0.00     0.027 A 
ENDBRANCH  16  18
ENDBRANCH  12  14
ENDBRANCH   6   8
ENDBRANCH   3   4
ENDBRANCH   1   3
BRANCH   1  21
ATOM     21  C   UNL d   1      28.096 -16.085  -1.317  0.00  0.00     0.028 A 
ATOM     22  C   UNL d   1      27.257 -15.358  -2.163  0.00  0.00     0.029 A 
ATOM     23  C   UNL d   1      25.871 -15.600  -2.191  0.00  0.00     0.009 A 
ATOM     24  C   UNL d   1      25.298 -16.630  -1.426  0.00  0.00    -0.056 A 
ATOM     25  C   UNL d   1      26.143 -17.349  -0.578  0.00  0.00     0.009 A 
ATOM     26  C   UNL d   1      27.513 -17.086  -0.538  0.00  0.00     0.029 A 
BRANCH  24  27
ATOM     27  C   UNL d   1      23.820 -16.959  -1.584  0.00  0.00     0.061 C 
BRANCH  27  28
ATOM     28  C   UNL d   1      23.167 -17.609  -0.356  0.00  0.00     0.174 C 
BRANCH  28  29
ATOM     29  N   UNL d   1      21.850 -18.183  -0.530  0.00  0.00    -0.191 N 
ATOM     30  N   UNL d   1      20.980 -17.818  -1.485  0.00  0.00     0.024 NA
ATOM     31  N   UNL d   1      19.905 -18.575  -1.270  0.00  0.00    -0.136 NA
ATOM     32  C   UNL d   1      20.188 -19.373  -0.183  0.00  0.00     0.198 A 
ATOM     33  N   UNL d   1      21.420 -19.150   0.304  0.00  0.00    -0.136 NA
BRANCH  32  34
ATOM     34  C   UNL d   1      19.231 -20.276   0.446  0.00  0.00     0.015 A 
ATOM     35  C   UNL d   1      18.149 -20.825  -0.253  0.00  0.00     0.015 A 
ATOM     36  C   UNL d   1      17.247 -21.684   0.396  0.00  0.00     0.001 A 
ATOM     37  C   UNL d   1      17.450 -22.043   1.730  0.00  0.00     0.000 A 
ATOM     38  C   UNL d   1      18.529 -21.511   2.430  0.00  0.00     0.001 A 
ATOM     39  C   UNL d   1      19.408 -20.628   1.794  0.00  0.00     0.015 A 
ENDBRANCH  32  34
ENDBRANCH  28  29
ENDBRANCH  27  28
ENDBRANCH  24  27
ENDBRANCH   1  21
TORSDOF 10
ENDMDL
