MODEL 1
REMARK VINA RESULT:    -8.872      0.000      0.000
REMARK INTER + INTRA:         -12.865
REMARK INTER:                 -11.258
REMARK INTRA:                  -1.607
REMARK CONF_INDEPENDENT:        2.386
REMARK UNBOUND:                -1.607
REMARK  8 active torsions:
REMARK  status: ('A' for Active; 'I' for Inactive)
REMARK    1  A    between atoms: C_5  and  N_6 
REMARK       I    between atoms: N_6  and  C_7 
REMARK    2  A    between atoms: C_7  and  C_9 
REMARK    3  A    between atoms: C_9  and  C_10 
REMARK    4  A    between atoms: C_10  and  C_11 
REMARK       I    between atoms: C_11  and  N_13 
REMARK    5  A    between atoms: N_13  and  N_14 
REMARK       I    between atoms: N_14  and  C_15 
REMARK    6  A    between atoms: C_15  and  C_17 
REMARK    7  A    between atoms: C_17  and  C_18 
REMARK    8  A    between atoms: C_18  and  C_19 
ROOT
ATOM      1  C   UNL d   1      26.792 -17.618   0.403  0.00  0.00     0.236 C 
ATOM      2  O   UNL d   1      27.089 -18.800   0.588  0.00  0.00    -0.272 OA
ATOM      3  N   UNL d   1      25.533 -17.234  -0.034  0.00  0.00    -0.268 N 
ATOM      4  H   UNL d   1      25.245 -16.270  -0.201  0.00  0.00     0.190 HD
ENDROOT
BRANCH   1   5
ATOM      5  C   UNL d   1      27.779 -16.484   0.638  0.00  0.00     0.114 C 
BRANCH   5   6
ATOM      6  C   UNL d   1      27.195 -15.079   0.313  0.00  0.00     0.112 C 
BRANCH   6   7
ATOM      7  C   UNL d   1      27.234 -14.209   1.562  0.00  0.00     0.222 C 
ATOM      8  N   UNL d   1      28.223 -14.489   2.510  0.00  0.00    -0.327 N 
ATOM      9  H   UNL d   1      28.878 -15.242   2.329  0.00  0.00     0.169 HD
ATOM     10  O   UNL d   1      26.394 -13.314   1.658  0.00  0.00    -0.273 OA
BRANCH   8  11
ATOM     11  C   UNL d   1      28.403 -13.757   3.731  0.00  0.00     0.035 A 
ATOM     12  C   UNL d   1      27.658 -14.050   4.874  0.00  0.00     0.030 A 
ATOM     13  C   UNL d   1      27.785 -13.328   6.055  0.00  0.00     0.009 A 
ATOM     14  C   UNL d   1      28.689 -12.277   6.153  0.00  0.00    -0.056 A 
ATOM     15  C   UNL d   1      28.761 -11.526   7.452  0.00  0.00     0.049 C 
ATOM     16  C   UNL d   1      29.492 -11.969   5.035  0.00  0.00    -0.054 A 
ATOM     17  C   UNL d   1      29.337 -12.708   3.828  0.00  0.00     0.037 A 
ATOM     18  C   UNL d   1      30.509 -10.861   5.138  0.00  0.00     0.049 C 
ENDBRANCH   8  11
ENDBRANCH   6   7
ENDBRANCH   5   6
ENDBRANCH   1   5
BRANCH   3  19
ATOM     19  N   UNL d   1      24.552 -18.230  -0.279  0.00  0.00    -0.268 N 
ATOM     20  C   UNL d   1      23.271 -17.847  -0.647  0.00  0.00     0.236 C 
ATOM     21  O   UNL d   1      22.946 -16.662  -0.762  0.00  0.00    -0.272 OA
ATOM     22  H   UNL d   1      24.853 -19.198  -0.173  0.00  0.00     0.190 HD
BRANCH  20  23
ATOM     23  C   UNL d   1      22.312 -18.997  -0.891  0.00  0.00     0.109 C 
BRANCH  23  24
ATOM     24  C   UNL d   1      20.829 -18.571  -0.900  0.00  0.00     0.048 C 
BRANCH  24  25
ATOM     25  C   UNL d   1      19.925 -19.403  -0.005  0.00  0.00    -0.058 A 
ATOM     26  C   UNL d   1      20.238 -19.570   1.354  0.00  0.00     0.007 A 
ATOM     27  C   UNL d   1      19.494 -20.451   2.151  0.00  0.00     0.001 A 
ATOM     28  C   UNL d   1      18.385 -21.109   1.624  0.00  0.00     0.000 A 
ATOM     29  C   UNL d   1      18.035 -20.914   0.294  0.00  0.00     0.001 A 
ATOM     30  C   UNL d   1      18.800 -20.073  -0.509  0.00  0.00     0.007 A 
ENDBRANCH  24  25
ENDBRANCH  23  24
ENDBRANCH  20  23
ENDBRANCH   3  19
TORSDOF 8
ENDMDL
MODEL 2
REMARK VINA RESULT:    -8.676      5.897      8.861
REMARK INTER + INTRA:         -12.622
REMARK INTER:                 -11.063
REMARK INTRA:                  -1.559
REMARK CONF_INDEPENDENT:        2.386
REMARK UNBOUND:                -1.559
REMARK  8 active torsions:
REMARK  status: ('A' for Active; 'I' for Inactive)
REMARK    1  A    between atoms: C_5  and  N_6 
REMARK       I    between atoms: N_6  and  C_7 
REMARK    2  A    between atoms: C_7  and  C_9 
REMARK    3  A    between atoms: C_9  and  C_10 
REMARK    4  A    between atoms: C_10  and  C_11 
REMARK       I    between atoms: C_11  and  N_13 
REMARK    5  A    between atoms: N_13  and  N_14 
REMARK       I    between atoms: N_14  and  C_15 
REMARK    6  A    between atoms: C_15  and  C_17 
REMARK    7  A    between atoms: C_17  and  C_18 
REMARK    8  A    between atoms: C_18  and  C_19 
ROOT
ATOM      1  C   UNL d   1      25.752 -14.950  -3.687  0.00  0.00     0.236 C 
ATOM      2  O   UNL d   1      24.658 -14.449  -3.954  0.00  0.00    -0.272 OA
ATOM      3  N   UNL d   1      25.898 -15.919  -2.705  0.00  0.00    -0.268 N 
ATOM      4  H   UNL d   1      26.783 -16.360  -2.451  0.00  0.00     0.190 HD
ENDROOT
BRANCH   1   5
ATOM      5  C   UNL d   1      27.030 -14.552  -4.411  0.00  0.00     0.114 C 
BRANCH   5   6
ATOM      6  C   UNL d   1      28.269 -15.389  -3.983  0.00  0.00     0.112 C 
BRANCH   6   7
ATOM      7  C   UNL d   1      28.948 -15.965  -5.219  0.00  0.00     0.222 C 
ATOM      8  N   UNL d   1      29.868 -16.999  -5.023  0.00  0.00    -0.327 N 
ATOM      9  H   UNL d   1      30.039 -17.333  -4.081  0.00  0.00     0.169 HD
ATOM     10  O   UNL d   1      28.643 -15.485  -6.311  0.00  0.00    -0.273 OA
BRANCH   8  11
ATOM     11  C   UNL d   1      30.582 -17.657  -6.080  0.00  0.00     0.035 A 
ATOM     12  C   UNL d   1      31.219 -16.934  -7.089  0.00  0.00     0.030 A 
ATOM     13  C   UNL d   1      31.881 -17.548  -8.146  0.00  0.00     0.009 A 
ATOM     14  C   UNL d   1      31.952 -18.934  -8.231  0.00  0.00    -0.056 A 
ATOM     15  C   UNL d   1      32.665 -19.532  -9.410  0.00  0.00     0.049 C 
ATOM     16  C   UNL d   1      31.356 -19.706  -7.213  0.00  0.00    -0.054 A 
ATOM     17  C   UNL d   1      30.669 -19.060  -6.147  0.00  0.00     0.037 A 
ATOM     18  C   UNL d   1      31.463 -21.209  -7.266  0.00  0.00     0.049 C 
ENDBRANCH   8  11
ENDBRANCH   6   7
ENDBRANCH   5   6
ENDBRANCH   1   5
BRANCH   3  19
ATOM     19  N   UNL d   1      24.756 -16.348  -1.980  0.00  0.00    -0.268 N 
ATOM     20  C   UNL d   1      24.899 -17.313  -0.995  0.00  0.00     0.236 C 
ATOM     21  O   UNL d   1      25.989 -17.824  -0.727  0.00  0.00    -0.272 OA
ATOM     22  H   UNL d   1      23.871 -15.907  -2.228  0.00  0.00     0.190 HD
BRANCH  20  23
ATOM     23  C   UNL d   1      23.611 -17.685  -0.282  0.00  0.00     0.109 C 
BRANCH  23  24
ATOM     24  C   UNL d   1      22.580 -18.378  -1.196  0.00  0.00     0.048 C 
BRANCH  24  25
ATOM     25  C   UNL d   1      21.343 -18.894  -0.479  0.00  0.00    -0.058 A 
ATOM     26  C   UNL d   1      21.312 -18.950   0.925  0.00  0.00     0.007 A 
ATOM     27  C   UNL d   1      20.238 -19.558   1.588  0.00  0.00     0.001 A 
ATOM     28  C   UNL d   1      19.149 -20.042   0.866  0.00  0.00     0.000 A 
ATOM     29  C   UNL d   1      19.145 -19.948  -0.520  0.00  0.00     0.001 A 
ATOM     30  C   UNL d   1      20.232 -19.383  -1.181  0.00  0.00     0.007 A 
ENDBRANCH  24  25
ENDBRANCH  23  24
ENDBRANCH  20  23
ENDBRANCH   3  19
TORSDOF 8
ENDMDL
MODEL 3
REMARK VINA RESULT:    -8.607      5.938      8.756
REMARK INTER + INTRA:         -12.579
REMARK INTER:                 -10.993
REMARK INTRA:                  -1.586
REMARK CONF_INDEPENDENT:        2.386
REMARK UNBOUND:                -1.586
REMARK  8 active torsions:
REMARK  status: ('A' for Active; 'I' for Inactive)
REMARK    1  A    between atoms: C_5  and  N_6 
REMARK       I    between atoms: N_6  and  C_7 
REMARK    2  A    between atoms: C_7  and  C_9 
REMARK    3  A    between atoms: C_9  and  C_10 
REMARK    4  A    between atoms: C_10  and  C_11 
REMARK       I    between atoms: C_11  and  N_13 
REMARK    5  A    between atoms: N_13  and  N_14 
REMARK       I    between atoms: N_14  and  C_15 
REMARK    6  A    between atoms: C_15  and  C_17 
REMARK    7  A    between atoms: C_17  and  C_18 
REMARK    8  A    between atoms: C_18  and  C_19 
ROOT
ATOM      1  C   UNL d   1      25.780 -14.903  -3.669  0.00  0.00     0.236 C 
ATOM      2  O   UNL d   1      24.673 -14.449  -3.964  0.00  0.00    -0.272 OA
ATOM      3  N   UNL d   1      25.946 -15.844  -2.665  0.00  0.00    -0.268 N 
ATOM      4  H   UNL d   1      26.842 -16.247  -2.387  0.00  0.00     0.190 HD
ENDROOT
BRANCH   1   5
ATOM      5  C   UNL d   1      27.054 -14.471  -4.381  0.00  0.00     0.114 C 
BRANCH   5   6
ATOM      6  C   UNL d   1      28.305 -15.296  -3.963  0.00  0.00     0.112 C 
BRANCH   6   7
ATOM      7  C   UNL d   1      28.945 -15.915  -5.198  0.00  0.00     0.222 C 
ATOM      8  N   UNL d   1      29.856 -16.956  -4.996  0.00  0.00    -0.327 N 
ATOM      9  H   UNL d   1      30.046 -17.266  -4.050  0.00  0.00     0.169 HD
ATOM     10  O   UNL d   1      28.619 -15.461  -6.296  0.00  0.00    -0.273 OA
BRANCH   8  11
ATOM     11  C   UNL d   1      30.535 -17.652  -6.052  0.00  0.00     0.035 A 
ATOM     12  C   UNL d   1      30.402 -19.031  -6.219  0.00  0.00     0.030 A 
ATOM     13  C   UNL d   1      31.082 -19.734  -7.207  0.00  0.00     0.009 A 
ATOM     14  C   UNL d   1      31.922 -19.076  -8.098  0.00  0.00    -0.056 A 
ATOM     15  C   UNL d   1      32.641 -19.899  -9.128  0.00  0.00     0.049 C 
ATOM     16  C   UNL d   1      32.057 -17.677  -7.992  0.00  0.00    -0.054 A 
ATOM     17  C   UNL d   1      31.367 -16.974  -6.964  0.00  0.00     0.037 A 
ATOM     18  C   UNL d   1      32.929 -16.941  -8.979  0.00  0.00     0.049 C 
ENDBRANCH   8  11
ENDBRANCH   6   7
ENDBRANCH   5   6
ENDBRANCH   1   5
BRANCH   3  19
ATOM     19  N   UNL d   1      24.809 -16.301  -1.950  0.00  0.00    -0.268 N 
ATOM     20  C   UNL d   1      24.964 -17.275  -0.974  0.00  0.00     0.236 C 
ATOM     21  O   UNL d   1      26.063 -17.769  -0.706  0.00  0.00    -0.272 OA
ATOM     22  H   UNL d   1      23.916 -15.874  -2.197  0.00  0.00     0.190 HD
BRANCH  20  23
ATOM     23  C   UNL d   1      23.681 -17.677  -0.271  0.00  0.00     0.109 C 
BRANCH  23  24
ATOM     24  C   UNL d   1      22.659 -18.363  -1.200  0.00  0.00     0.048 C 
BRANCH  24  25
ATOM     25  C   UNL d   1      21.406 -18.868  -0.502  0.00  0.00    -0.058 A 
ATOM     26  C   UNL d   1      21.363 -18.950   0.900  0.00  0.00     0.007 A 
ATOM     27  C   UNL d   1      20.273 -19.550   1.543  0.00  0.00     0.001 A 
ATOM     28  C   UNL d   1      19.180 -19.998   0.803  0.00  0.00     0.000 A 
ATOM     29  C   UNL d   1      19.188 -19.877  -0.580  0.00  0.00     0.001 A 
ATOM     30  C   UNL d   1      20.291 -19.321  -1.222  0.00  0.00     0.007 A 
ENDBRANCH  24  25
ENDBRANCH  23  24
ENDBRANCH  20  23
ENDBRANCH   3  19
TORSDOF 8
ENDMDL
MODEL 4
REMARK VINA RESULT:    -7.835      1.581      2.249
REMARK INTER + INTRA:         -12.452
REMARK INTER:                 -10.221
REMARK INTRA:                  -2.231
REMARK CONF_INDEPENDENT:        2.386
REMARK UNBOUND:                -2.231
REMARK  8 active torsions:
REMARK  status: ('A' for Active; 'I' for Inactive)
REMARK    1  A    between atoms: C_5  and  N_6 
REMARK       I    between atoms: N_6  and  C_7 
REMARK    2  A    between atoms: C_7  and  C_9 
REMARK    3  A    between atoms: C_9  and  C_10 
REMARK    4  A    between atoms: C_10  and  C_11 
REMARK       I    between atoms: C_11  and  N_13 
REMARK    5  A    between atoms: N_13  and  N_14 
REMARK       I    between atoms: N_14  and  C_15 
REMARK    6  A    between atoms: C_15  and  C_17 
REMARK    7  A    between atoms: C_17  and  C_18 
REMARK    8  A    between atoms: C_18  and  C_19 
ROOT
ATOM      1  C   UNL d   1      26.057 -15.255  -1.761  0.00  0.00     0.236 C 
ATOM      2  O   UNL d   1      25.348 -15.218  -2.769  0.00  0.00    -0.272 OA
ATOM      3  N   UNL d   1      25.812 -16.138  -0.720  0.00  0.00    -0.268 N 
ATOM      4  H   UNL d   1      26.372 -16.203   0.131  0.00  0.00     0.190 HD
ENDROOT
BRANCH   1   5
ATOM      5  C   UNL d   1      27.258 -14.338  -1.575  0.00  0.00     0.114 C 
BRANCH   5   6
ATOM      6  C   UNL d   1      26.918 -13.021  -0.821  0.00  0.00     0.112 C 
BRANCH   6   7
ATOM      7  C   UNL d   1      26.982 -13.262   0.681  0.00  0.00     0.222 C 
ATOM      8  N   UNL d   1      27.666 -12.318   1.454  0.00  0.00    -0.327 N 
ATOM      9  H   UNL d   1      28.077 -11.512   0.996  0.00  0.00     0.169 HD
ATOM     10  O   UNL d   1      26.428 -14.270   1.120  0.00  0.00    -0.273 OA
BRANCH   8  11
ATOM     11  C   UNL d   1      27.806 -12.391   2.880  0.00  0.00     0.035 A 
ATOM     12  C   UNL d   1      27.613 -11.271   3.690  0.00  0.00     0.030 A 
ATOM     13  C   UNL d   1      27.784 -11.306   5.069  0.00  0.00     0.009 A 
ATOM     14  C   UNL d   1      28.144 -12.485   5.711  0.00  0.00    -0.056 A 
ATOM     15  C   UNL d   1      28.332 -12.448   7.201  0.00  0.00     0.049 C 
ATOM     16  C   UNL d   1      28.313 -13.652   4.939  0.00  0.00    -0.054 A 
ATOM     17  C   UNL d   1      28.149 -13.595   3.526  0.00  0.00     0.037 A 
ATOM     18  C   UNL d   1      28.658 -14.950   5.624  0.00  0.00     0.049 C 
ENDBRANCH   8  11
ENDBRANCH   6   7
ENDBRANCH   5   6
ENDBRANCH   1   5
BRANCH   3  19
ATOM     19  N   UNL d   1      24.711 -17.028  -0.812  0.00  0.00    -0.268 N 
ATOM     20  C   UNL d   1      24.652 -18.127   0.032  0.00  0.00     0.236 C 
ATOM     21  O   UNL d   1      25.532 -18.367   0.863  0.00  0.00    -0.272 OA
ATOM     22  H   UNL d   1      24.003 -16.802  -1.510  0.00  0.00     0.190 HD
BRANCH  20  23
ATOM     23  C   UNL d   1      23.425 -19.001  -0.152  0.00  0.00     0.109 C 
BRANCH  23  24
ATOM     24  C   UNL d   1      22.118 -18.199  -0.318  0.00  0.00     0.048 C 
BRANCH  24  25
ATOM     25  C   UNL d   1      20.857 -18.952   0.076  0.00  0.00    -0.058 A 
ATOM     26  C   UNL d   1      20.645 -19.321   1.415  0.00  0.00     0.007 A 
ATOM     27  C   UNL d   1      19.562 -20.139   1.763  0.00  0.00     0.001 A 
ATOM     28  C   UNL d   1      18.637 -20.529   0.797  0.00  0.00     0.000 A 
ATOM     29  C   UNL d   1      18.808 -20.130  -0.522  0.00  0.00     0.001 A 
ATOM     30  C   UNL d   1      19.908 -19.353  -0.876  0.00  0.00     0.007 A 
ENDBRANCH  24  25
ENDBRANCH  23  24
ENDBRANCH  20  23
ENDBRANCH   3  19
TORSDOF 8
ENDMDL
MODEL 5
REMARK VINA RESULT:    -7.508      5.066      8.038
REMARK INTER + INTRA:         -12.441
REMARK INTER:                  -9.894
REMARK INTRA:                  -2.547
REMARK CONF_INDEPENDENT:        2.386
REMARK UNBOUND:                -2.547
REMARK  8 active torsions:
REMARK  status: ('A' for Active; 'I' for Inactive)
REMARK    1  A    between atoms: C_5  and  N_6 
REMARK       I    between atoms: N_6  and  C_7 
REMARK    2  A    between atoms: C_7  and  C_9 
REMARK    3  A    between atoms: C_9  and  C_10 
REMARK    4  A    between atoms: C_10  and  C_11 
REMARK       I    between atoms: C_11  and  N_13 
REMARK    5  A    between atoms: N_13  and  N_14 
REMARK       I    between atoms: N_14  and  C_15 
REMARK    6  A    between atoms: C_15  and  C_17 
REMARK    7  A    between atoms: C_17  and  C_18 
REMARK    8  A    between atoms: C_18  and  C_19 
ROOT
ATOM      1  C   UNL d   1      25.835 -14.096  -3.814  0.00  0.00     0.236 C 
ATOM      2  O   UNL d   1      24.787 -14.702  -4.047  0.00  0.00    -0.272 OA
ATOM      3  N   UNL d   1      26.781 -14.577  -2.922  0.00  0.00    -0.268 N 
ATOM      4  H   UNL d   1      27.661 -14.110  -2.699  0.00  0.00     0.190 HD
ENDROOT
BRANCH   1   5
ATOM      5  C   UNL d   1      26.178 -12.774  -4.486  0.00  0.00     0.114 C 
BRANCH   5   6
ATOM      6  C   UNL d   1      27.242 -12.912  -5.612  0.00  0.00     0.112 C 
BRANCH   6   7
ATOM      7  C   UNL d   1      27.755 -14.345  -5.656  0.00  0.00     0.222 C 
ATOM      8  N   UNL d   1      29.031 -14.586  -5.139  0.00  0.00    -0.327 N 
ATOM      9  H   UNL d   1      29.557 -13.813  -4.746  0.00  0.00     0.169 HD
ATOM     10  O   UNL d   1      27.015 -15.200  -6.143  0.00  0.00    -0.273 OA
BRANCH   8  11
ATOM     11  C   UNL d   1      29.654 -15.878  -5.093  0.00  0.00     0.035 A 
ATOM     12  C   UNL d   1      30.036 -16.545  -6.258  0.00  0.00     0.030 A 
ATOM     13  C   UNL d   1      30.603 -17.814  -6.242  0.00  0.00     0.009 A 
ATOM     14  C   UNL d   1      30.833 -18.475  -5.041  0.00  0.00    -0.056 A 
ATOM     15  C   UNL d   1      31.430 -19.853  -5.097  0.00  0.00     0.049 C 
ATOM     16  C   UNL d   1      30.499 -17.825  -3.836  0.00  0.00    -0.054 A 
ATOM     17  C   UNL d   1      29.904 -16.532  -3.871  0.00  0.00     0.037 A 
ATOM     18  C   UNL d   1      30.783 -18.509  -2.523  0.00  0.00     0.049 C 
ENDBRANCH   8  11
ENDBRANCH   6   7
ENDBRANCH   5   6
ENDBRANCH   1   5
BRANCH   3  19
ATOM     19  N   UNL d   1      26.539 -15.804  -2.251  0.00  0.00    -0.268 N 
ATOM     20  C   UNL d   1      27.487 -16.293  -1.364  0.00  0.00     0.236 C 
ATOM     21  O   UNL d   1      28.545 -15.700  -1.139  0.00  0.00    -0.272 OA
ATOM     22  H   UNL d   1      25.657 -16.269  -2.462  0.00  0.00     0.190 HD
BRANCH  20  23
ATOM     23  C   UNL d   1      27.115 -17.606  -0.701  0.00  0.00     0.109 C 
BRANCH  23  24
ATOM     24  C   UNL d   1      26.018 -17.463   0.374  0.00  0.00     0.048 C 
BRANCH  24  25
ATOM     25  C   UNL d   1      24.599 -17.647  -0.139  0.00  0.00    -0.058 A 
ATOM     26  C   UNL d   1      23.850 -16.535  -0.559  0.00  0.00     0.007 A 
ATOM     27  C   UNL d   1      22.497 -16.675  -0.894  0.00  0.00     0.001 A 
ATOM     28  C   UNL d   1      21.899 -17.934  -0.894  0.00  0.00     0.000 A 
ATOM     29  C   UNL d   1      22.642 -19.049  -0.529  0.00  0.00     0.001 A 
ATOM     30  C   UNL d   1      23.975 -18.903  -0.154  0.00  0.00     0.007 A 
ENDBRANCH  24  25
ENDBRANCH  23  24
ENDBRANCH  20  23
ENDBRANCH   3  19
TORSDOF 8
ENDMDL
MODEL 6
REMARK VINA RESULT:    -7.496      3.594      9.808
REMARK INTER + INTRA:         -12.154
REMARK INTER:                  -9.882
REMARK INTRA:                  -2.272
REMARK CONF_INDEPENDENT:        2.386
REMARK UNBOUND:                -2.272
REMARK  8 active torsions:
REMARK  status: ('A' for Active; 'I' for Inactive)
REMARK    1  A    between atoms: C_5  and  N_6 
REMARK       I    between atoms: N_6  and  C_7 
REMARK    2  A    between atoms: C_7  and  C_9 
REMARK    3  A    between atoms: C_9  and  C_10 
REMARK    4  A    between atoms: C_10  and  C_11 
REMARK       I    between atoms: C_11  and  N_13 
REMARK    5  A    between atoms: N_13  and  N_14 
REMARK       I    between atoms: N_14  and  C_15 
REMARK    6  A    between atoms: C_15  and  C_17 
REMARK    7  A    between atoms: C_17  and  C_18 
REMARK    8  A    between atoms: C_18  and  C_19 
ROOT
ATOM      1  C   UNL d   1      32.129 -14.883   1.536  0.00  0.00     0.236 C 
ATOM      2  O   UNL d   1      33.133 -14.300   1.951  0.00  0.00    -0.272 OA
ATOM      3  N   UNL d   1      30.983 -15.013   2.306  0.00  0.00    -0.268 N 
ATOM      4  H   UNL d   1      30.131 -15.487   2.004  0.00  0.00     0.190 HD
ENDROOT
BRANCH   1   5
ATOM      5  C   UNL d   1      32.063 -15.505   0.149  0.00  0.00     0.114 C 
BRANCH   5   6
ATOM      6  C   UNL d   1      31.257 -16.835   0.107  0.00  0.00     0.112 C 
BRANCH   6   7
ATOM      7  C   UNL d   1      29.773 -16.527  -0.042  0.00  0.00     0.222 C 
ATOM      8  N   UNL d   1      28.900 -17.613  -0.151  0.00  0.00    -0.327 N 
ATOM      9  H   UNL d   1      29.277 -18.554  -0.115  0.00  0.00     0.169 HD
ATOM     10  O   UNL d   1      29.436 -15.343  -0.055  0.00  0.00    -0.273 OA
BRANCH   8  11
ATOM     11  C   UNL d   1      27.475 -17.495  -0.284  0.00  0.00     0.035 A 
ATOM     12  C   UNL d   1      26.605 -18.269   0.485  0.00  0.00     0.030 A 
ATOM     13  C   UNL d   1      25.223 -18.203   0.345  0.00  0.00     0.009 A 
ATOM     14  C   UNL d   1      24.642 -17.334  -0.571  0.00  0.00    -0.056 A 
ATOM     15  C   UNL d   1      23.144 -17.328  -0.685  0.00  0.00     0.049 C 
ATOM     16  C   UNL d   1      25.480 -16.505  -1.344  0.00  0.00    -0.054 A 
ATOM     17  C   UNL d   1      26.894 -16.597  -1.199  0.00  0.00     0.037 A 
ATOM     18  C   UNL d   1      24.865 -15.525  -2.310  0.00  0.00     0.049 C 
ENDBRANCH   8  11
ENDBRANCH   6   7
ENDBRANCH   5   6
ENDBRANCH   1   5
BRANCH   3  19
ATOM     19  N   UNL d   1      30.960 -14.461   3.613  0.00  0.00    -0.268 N 
ATOM     20  C   UNL d   1      29.757 -14.383   4.298  0.00  0.00     0.236 C 
ATOM     21  O   UNL d   1      28.693 -14.771   3.807  0.00  0.00    -0.272 OA
ATOM     22  H   UNL d   1      31.856 -14.149   3.988  0.00  0.00     0.190 HD
BRANCH  20  23
ATOM     23  C   UNL d   1      29.858 -13.785   5.689  0.00  0.00     0.109 C 
BRANCH  23  24
ATOM     24  C   UNL d   1      28.893 -14.427   6.707  0.00  0.00     0.048 C 
BRANCH  24  25
ATOM     25  C   UNL d   1      28.908 -13.787   8.086  0.00  0.00    -0.058 A 
ATOM     26  C   UNL d   1      28.965 -14.592   9.237  0.00  0.00     0.007 A 
ATOM     27  C   UNL d   1      28.832 -14.021  10.509  0.00  0.00     0.001 A 
ATOM     28  C   UNL d   1      28.723 -12.639  10.652  0.00  0.00     0.000 A 
ATOM     29  C   UNL d   1      28.715 -11.829   9.524  0.00  0.00     0.001 A 
ATOM     30  C   UNL d   1      28.803 -12.399   8.258  0.00  0.00     0.007 A 
ENDBRANCH  24  25
ENDBRANCH  23  24
ENDBRANCH  20  23
ENDBRANCH   3  19
TORSDOF 8
ENDMDL
MODEL 7
REMARK VINA RESULT:    -7.438      6.131      9.187
REMARK INTER + INTRA:         -12.220
REMARK INTER:                  -9.825
REMARK INTRA:                  -2.396
REMARK CONF_INDEPENDENT:        2.386
REMARK UNBOUND:                -2.396
REMARK  8 active torsions:
REMARK  status: ('A' for Active; 'I' for Inactive)
REMARK    1  A    between atoms: C_5  and  N_6 
REMARK       I    between atoms: N_6  and  C_7 
REMARK    2  A    between atoms: C_7  and  C_9 
REMARK    3  A    between atoms: C_9  and  C_10 
REMARK    4  A    between atoms: C_10  and  C_11 
REMARK       I    between atoms: C_11  and  N_13 
REMARK    5  A    between atoms: N_13  and  N_14 
REMARK       I    between atoms: N_14  and  C_15 
REMARK    6  A    between atoms: C_15  and  C_17 
REMARK    7  A    between atoms: C_17  and  C_18 
REMARK    8  A    between atoms: C_18  and  C_19 
ROOT
ATOM      1  C   UNL d   1      28.726 -12.612  -4.879  0.00  0.00     0.236 C 
ATOM      2  O   UNL d   1      29.294 -12.321  -3.824  0.00  0.00    -0.272 OA
ATOM      3  N   UNL d   1      27.487 -13.235  -4.900  0.00  0.00    -0.268 N 
ATOM      4  H   UNL d   1      26.981 -13.495  -5.748  0.00  0.00     0.190 HD
ENDROOT
BRANCH   1   5
ATOM      5  C   UNL d   1      29.334 -12.313  -6.241  0.00  0.00     0.114 C 
BRANCH   5   6
ATOM      6  C   UNL d   1      28.824 -13.258  -7.366  0.00  0.00     0.112 C 
BRANCH   6   7
ATOM      7  C   UNL d   1      28.876 -14.701  -6.881  0.00  0.00     0.222 C 
ATOM      8  N   UNL d   1      30.122 -15.334  -6.882  0.00  0.00    -0.327 N 
ATOM      9  H   UNL d   1      30.938 -14.815  -7.187  0.00  0.00     0.169 HD
ATOM     10  O   UNL d   1      27.818 -15.218  -6.519  0.00  0.00    -0.273 OA
BRANCH   8  11
ATOM     11  C   UNL d   1      30.344 -16.684  -6.445  0.00  0.00     0.035 A 
ATOM     12  C   UNL d   1      30.138 -17.063  -5.118  0.00  0.00     0.030 A 
ATOM     13  C   UNL d   1      30.386 -18.353  -4.662  0.00  0.00     0.009 A 
ATOM     14  C   UNL d   1      30.839 -19.339  -5.530  0.00  0.00    -0.056 A 
ATOM     15  C   UNL d   1      31.105 -20.706  -4.967  0.00  0.00     0.049 C 
ATOM     16  C   UNL d   1      31.024 -19.012  -6.888  0.00  0.00    -0.054 A 
ATOM     17  C   UNL d   1      30.781 -17.683  -7.336  0.00  0.00     0.037 A 
ATOM     18  C   UNL d   1      31.471 -20.082  -7.853  0.00  0.00     0.049 C 
ENDBRANCH   8  11
ENDBRANCH   6   7
ENDBRANCH   5   6
ENDBRANCH   1   5
BRANCH   3  19
ATOM     19  N   UNL d   1      26.850 -13.551  -3.672  0.00  0.00    -0.268 N 
ATOM     20  C   UNL d   1      25.693 -14.316  -3.683  0.00  0.00     0.236 C 
ATOM     21  O   UNL d   1      25.187 -14.730  -4.730  0.00  0.00    -0.272 OA
ATOM     22  H   UNL d   1      27.293 -13.192  -2.826  0.00  0.00     0.190 HD
BRANCH  20  23
ATOM     23  C   UNL d   1      25.107 -14.597  -2.312  0.00  0.00     0.109 C 
BRANCH  23  24
ATOM     24  C   UNL d   1      25.646 -15.890  -1.666  0.00  0.00     0.048 C 
BRANCH  24  25
ATOM     25  C   UNL d   1      24.581 -16.784  -1.053  0.00  0.00    -0.058 A 
ATOM     26  C   UNL d   1      24.918 -18.066  -0.584  0.00  0.00     0.007 A 
ATOM     27  C   UNL d   1      23.920 -18.950  -0.154  0.00  0.00     0.001 A 
ATOM     28  C   UNL d   1      22.589 -18.540  -0.109  0.00  0.00     0.000 A 
ATOM     29  C   UNL d   1      22.249 -17.259  -0.522  0.00  0.00     0.001 A 
ATOM     30  C   UNL d   1      23.234 -16.395  -0.991  0.00  0.00     0.007 A 
ENDBRANCH  24  25
ENDBRANCH  23  24
ENDBRANCH  20  23
ENDBRANCH   3  19
TORSDOF 8
ENDMDL
MODEL 8
REMARK VINA RESULT:    -7.362      4.667      7.674
REMARK INTER + INTRA:         -12.425
REMARK INTER:                  -9.748
REMARK INTRA:                  -2.677
REMARK CONF_INDEPENDENT:        2.386
REMARK UNBOUND:                -2.677
REMARK  8 active torsions:
REMARK  status: ('A' for Active; 'I' for Inactive)
REMARK    1  A    between atoms: C_5  and  N_6 
REMARK       I    between atoms: N_6  and  C_7 
REMARK    2  A    between atoms: C_7  and  C_9 
REMARK    3  A    between atoms: C_9  and  C_10 
REMARK    4  A    between atoms: C_10  and  C_11 
REMARK       I    between atoms: C_11  and  N_13 
REMARK    5  A    between atoms: N_13  and  N_14 
REMARK       I    between atoms: N_14  and  C_15 
REMARK    6  A    between atoms: C_15  and  C_17 
REMARK    7  A    between atoms: C_17  and  C_18 
REMARK    8  A    between atoms: C_18  and  C_19 
ROOT
ATOM      1  C   UNL d   1      25.710 -13.869  -3.725  0.00  0.00     0.236 C 
ATOM      2  O   UNL d   1      24.805 -14.667  -3.982  0.00  0.00    -0.272 OA
ATOM      3  N   UNL d   1      26.550 -14.036  -2.634  0.00  0.00    -0.268 N 
ATOM      4  H   UNL d   1      27.309 -13.401  -2.383  0.00  0.00     0.190 HD
ENDROOT
BRANCH   1   5
ATOM      5  C   UNL d   1      25.981 -12.641  -4.581  0.00  0.00     0.114 C 
BRANCH   5   6
ATOM      6  C   UNL d   1      27.056 -12.879  -5.679  0.00  0.00     0.112 C 
BRANCH   6   7
ATOM      7  C   UNL d   1      27.628 -14.283  -5.538  0.00  0.00     0.222 C 
ATOM      8  N   UNL d   1      28.786 -14.430  -4.768  0.00  0.00    -0.327 N 
ATOM      9  H   UNL d   1      29.191 -13.612  -4.328  0.00  0.00     0.169 HD
ATOM     10  O   UNL d   1      27.034 -15.199  -6.107  0.00  0.00    -0.273 OA
BRANCH   8  11
ATOM     11  C   UNL d   1      29.442 -15.684  -4.526  0.00  0.00     0.035 A 
ATOM     12  C   UNL d   1      29.950 -16.455  -5.572  0.00  0.00     0.030 A 
ATOM     13  C   UNL d   1      30.551 -17.691  -5.366  0.00  0.00     0.009 A 
ATOM     14  C   UNL d   1      30.690 -18.210  -4.084  0.00  0.00    -0.056 A 
ATOM     15  C   UNL d   1      31.331 -19.561  -3.935  0.00  0.00     0.049 C 
ATOM     16  C   UNL d   1      30.226 -17.449  -2.992  0.00  0.00    -0.054 A 
ATOM     17  C   UNL d   1      29.598 -16.192  -3.222  0.00  0.00     0.037 A 
ATOM     18  C   UNL d   1      30.409 -17.976  -1.592  0.00  0.00     0.049 C 
ENDBRANCH   8  11
ENDBRANCH   6   7
ENDBRANCH   5   6
ENDBRANCH   1   5
BRANCH   3  19
ATOM     19  N   UNL d   1      26.365 -15.155  -1.782  0.00  0.00    -0.268 N 
ATOM     20  C   UNL d   1      27.177 -15.304  -0.668  0.00  0.00     0.236 C 
ATOM     21  O   UNL d   1      28.067 -14.495  -0.389  0.00  0.00    -0.272 OA
ATOM     22  H   UNL d   1      25.623 -15.805  -2.042  0.00  0.00     0.190 HD
BRANCH  20  23
ATOM     23  C   UNL d   1      26.881 -16.533   0.172  0.00  0.00     0.109 C 
BRANCH  23  24
ATOM     24  C   UNL d   1      26.211 -17.673  -0.622  0.00  0.00     0.048 C 
BRANCH  24  25
ATOM     25  C   UNL d   1      24.696 -17.715  -0.515  0.00  0.00    -0.058 A 
ATOM     26  C   UNL d   1      24.025 -18.949  -0.471  0.00  0.00     0.007 A 
ATOM     27  C   UNL d   1      22.625 -18.999  -0.520  0.00  0.00     0.001 A 
ATOM     28  C   UNL d   1      21.880 -17.822  -0.531  0.00  0.00     0.000 A 
ATOM     29  C   UNL d   1      22.530 -16.595  -0.525  0.00  0.00     0.001 A 
ATOM     30  C   UNL d   1      23.921 -16.546  -0.520  0.00  0.00     0.007 A 
ENDBRANCH  24  25
ENDBRANCH  23  24
ENDBRANCH  20  23
ENDBRANCH   3  19
TORSDOF 8
ENDMDL
MODEL 9
REMARK VINA RESULT:    -7.036      5.732      8.552
REMARK INTER + INTRA:         -12.337
REMARK INTER:                  -9.422
REMARK INTRA:                  -2.915
REMARK CONF_INDEPENDENT:        2.386
REMARK UNBOUND:                -2.915
REMARK  8 active torsions:
REMARK  status: ('A' for Active; 'I' for Inactive)
REMARK    1  A    between atoms: C_5  and  N_6 
REMARK       I    between atoms: N_6  and  C_7 
REMARK    2  A    between atoms: C_7  and  C_9 
REMARK    3  A    between atoms: C_9  and  C_10 
REMARK    4  A    between atoms: C_10  and  C_11 
REMARK       I    between atoms: C_11  and  N_13 
REMARK    5  A    between atoms: N_13  and  N_14 
REMARK       I    between atoms: N_14  and  C_15 
REMARK    6  A    between atoms: C_15  and  C_17 
REMARK    7  A    between atoms: C_17  and  C_18 
REMARK    8  A    between atoms: C_18  and  C_19 
ROOT
ATOM      1  C   UNL d   1      25.915 -10.741  -3.125  0.00  0.00     0.236 C 
ATOM      2  O   UNL d   1      26.670 -10.676  -2.152  0.00  0.00    -0.272 OA
ATOM      3  N   UNL d   1      25.401 -11.946  -3.579  0.00  0.00    -0.268 N 
ATOM      4  H   UNL d   1      24.775 -12.046  -4.379  0.00  0.00     0.190 HD
ENDROOT
BRANCH   1   5
ATOM      5  C   UNL d   1      25.486  -9.507  -3.906  0.00  0.00     0.114 C 
BRANCH   5   6
ATOM      6  C   UNL d   1      26.110  -9.430  -5.329  0.00  0.00     0.112 C 
BRANCH   6   7
ATOM      7  C   UNL d   1      26.602 -10.809  -5.746  0.00  0.00     0.222 C 
ATOM      8  N   UNL d   1      27.943 -11.115  -5.495  0.00  0.00    -0.327 N 
ATOM      9  H   UNL d   1      28.529 -10.423  -5.040  0.00  0.00     0.169 HD
ATOM     10  O   UNL d   1      25.790 -11.567  -6.275  0.00  0.00    -0.273 OA
BRANCH   8  11
ATOM     11  C   UNL d   1      28.559 -12.371  -5.814  0.00  0.00     0.035 A 
ATOM     12  C   UNL d   1      29.331 -12.534  -6.965  0.00  0.00     0.030 A 
ATOM     13  C   UNL d   1      29.903 -13.751  -7.317  0.00  0.00     0.009 A 
ATOM     14  C   UNL d   1      29.741 -14.872  -6.511  0.00  0.00    -0.056 A 
ATOM     15  C   UNL d   1      30.368 -16.161  -6.961  0.00  0.00     0.049 C 
ATOM     16  C   UNL d   1      29.001 -14.746  -5.318  0.00  0.00    -0.054 A 
ATOM     17  C   UNL d   1      28.409 -13.496  -4.980  0.00  0.00     0.037 A 
ATOM     18  C   UNL d   1      28.854 -15.941  -4.409  0.00  0.00     0.049 C 
ENDBRANCH   8  11
ENDBRANCH   6   7
ENDBRANCH   5   6
ENDBRANCH   1   5
BRANCH   3  19
ATOM     19  N   UNL d   1      25.752 -13.145  -2.907  0.00  0.00    -0.268 N 
ATOM     20  C   UNL d   1      25.478 -14.366  -3.507  0.00  0.00     0.236 C 
ATOM     21  O   UNL d   1      24.929 -14.450  -4.609  0.00  0.00    -0.272 OA
ATOM     22  H   UNL d   1      26.201 -13.041  -1.998  0.00  0.00     0.190 HD
BRANCH  20  23
ATOM     23  C   UNL d   1      25.906 -15.577  -2.700  0.00  0.00     0.109 C 
BRANCH  23  24
ATOM     24  C   UNL d   1      25.457 -15.525  -1.225  0.00  0.00     0.048 C 
BRANCH  24  25
ATOM     25  C   UNL d   1      24.459 -16.601  -0.828  0.00  0.00    -0.058 A 
ATOM     26  C   UNL d   1      24.902 -17.902  -0.538  0.00  0.00     0.007 A 
ATOM     27  C   UNL d   1      23.980 -18.933  -0.314  0.00  0.00     0.001 A 
ATOM     28  C   UNL d   1      22.613 -18.662  -0.296  0.00  0.00     0.000 A 
ATOM     29  C   UNL d   1      22.164 -17.369  -0.532  0.00  0.00     0.001 A 
ATOM     30  C   UNL d   1      23.079 -16.354  -0.798  0.00  0.00     0.007 A 
ENDBRANCH  24  25
ENDBRANCH  23  24
ENDBRANCH  20  23
ENDBRANCH   3  19
TORSDOF 8
ENDMDL
