MODEL 1
REMARK VINA RESULT:    -8.814      0.000      0.000
REMARK INTER + INTRA:         -14.695
REMARK INTER:                 -10.902
REMARK INTRA:                  -3.793
REMARK CONF_INDEPENDENT:        2.088
REMARK UNBOUND:                -3.793
REMARK  7 active torsions:
REMARK  status: ('A' for Active; 'I' for Inactive)
REMARK    1  A    between atoms: C_2  and  N_5 
REMARK       I    between atoms: N_5  and  C_6 
REMARK    2  A    between atoms: C_6  and  C_8 
REMARK    3  A    between atoms: C_8  and  C_9 
REMARK    4  A    between atoms: C_8  and  N_19 
REMARK    5  A    between atoms: C_11  and  N_12 
REMARK       I    between atoms: N_19  and  C_20 
REMARK    6  A    between atoms: N_19  and  C_29 
REMARK    7  A    between atoms: C_20  and  C_22 
ROOT
ATOM      1  C   UNL d   1      27.725 -15.444  -0.299  0.00  0.00     0.220 C 
ENDROOT
BRANCH   1   2
ATOM      2  C   UNL d   1      26.595 -16.511  -0.428  0.00  0.00     0.246 C 
ATOM      3  N   UNL d   1      25.253 -16.168  -0.222  0.00  0.00    -0.351 N 
ATOM      4  H   UNL d   1      24.980 -15.247   0.093  0.00  0.00     0.163 HD
ATOM      5  O   UNL d   1      26.952 -17.680  -0.459  0.00  0.00    -0.271 OA
BRANCH   3   6
ATOM      6  C   UNL d   1      24.139 -17.089  -0.566  0.00  0.00     0.022 C 
ATOM      7  C   UNL d   1      22.779 -16.407  -0.564  0.00  0.00     0.037 C 
ATOM      8  C   UNL d   1      24.076 -18.327   0.353  0.00  0.00     0.037 C 
ATOM      9  C   UNL d   1      24.329 -17.451  -2.022  0.00  0.00     0.037 C 
ENDBRANCH   3   6
ENDBRANCH   1   2
BRANCH   1  10
ATOM     10  C   UNL d   1      28.540 -15.834  -1.551  0.00  0.00    -0.002 C 
ATOM     11  C   UNL d   1      27.859 -15.731  -2.794  0.00  0.00     0.047 C 
ATOM     12  C   UNL d   1      28.514 -15.950  -3.997  0.00  0.00     0.103 C 
ATOM     13  C   UNL d   1      29.782 -16.513  -3.987  0.00  0.00     0.038 C 
ATOM     14  C   UNL d   1      30.451 -16.652  -2.776  0.00  0.00     0.027 C 
ATOM     15  C   UNL d   1      29.913 -16.126  -1.605  0.00  0.00     0.043 C 
ATOM     16 CL   UNL d   1      31.061 -15.874  -0.337  0.00  0.00    -0.084 Cl
BRANCH  12  17
ATOM     17  N   UNL d   1      27.882 -15.559  -5.260  0.00  0.00    -0.116 N 
ATOM     18  O   UNL d   1      26.632 -15.575  -5.303  0.00  0.00    -0.532 OA
ATOM     19  O   UNL d   1      28.612 -15.226  -6.190  0.00  0.00    -0.532 OA
ENDBRANCH  12  17
ENDBRANCH   1  10
BRANCH   1  20
ATOM     20  N   UNL d   1      27.307 -13.979  -0.151  0.00  0.00    -0.296 N 
ATOM     21  C   UNL d   1      27.060 -13.338   1.144  0.00  0.00     0.259 C 
ATOM     22  O   UNL d   1      26.298 -12.374   1.296  0.00  0.00    -0.267 OA
BRANCH  21  23
ATOM     23  C   UNL d   1      27.727 -13.718   2.440  0.00  0.00     0.032 C 
ATOM     24  C   UNL d   1      27.030 -13.698   3.642  0.00  0.00     0.018 C 
ATOM     25  C   UNL d   1      27.685 -14.029   4.852  0.00  0.00     0.025 C 
ATOM     26  C   UNL d   1      29.069 -14.171   4.896  0.00  0.00     0.034 C 
ATOM     27 CL   UNL d   1      29.908 -14.029   6.401  0.00  0.00    -0.084 Cl
ATOM     28  C   UNL d   1      29.770 -14.268   3.707  0.00  0.00     0.025 C 
ATOM     29  C   UNL d   1      29.087 -14.114   2.481  0.00  0.00     0.018 C 
ENDBRANCH  21  23
BRANCH  20  30
ATOM     30  C   UNL d   1      26.760 -13.272  -1.367  0.00  0.00     0.038 C 
ATOM     31  C   UNL d   1      25.623 -13.762  -2.020  0.00  0.00     0.030 C 
ATOM     32  C   UNL d   1      25.317 -13.418  -3.352  0.00  0.00     0.002 C 
ATOM     33  C   UNL d   1      26.137 -12.559  -4.070  0.00  0.00     0.000 C 
ATOM     34  C   UNL d   1      27.201 -11.968  -3.417  0.00  0.00     0.002 C 
ATOM     35  C   UNL d   1      27.413 -12.220  -2.047  0.00  0.00     0.030 C 
ENDBRANCH  20  30
ENDBRANCH   1  20
TORSDOF 7
ENDMDL
MODEL 2
REMARK VINA RESULT:    -8.479      3.157      6.095
REMARK INTER + INTRA:         -14.064
REMARK INTER:                 -10.567
REMARK INTRA:                  -3.497
REMARK CONF_INDEPENDENT:        2.088
REMARK UNBOUND:                -3.497
REMARK  7 active torsions:
REMARK  status: ('A' for Active; 'I' for Inactive)
REMARK    1  A    between atoms: C_2  and  N_5 
REMARK       I    between atoms: N_5  and  C_6 
REMARK    2  A    between atoms: C_6  and  C_8 
REMARK    3  A    between atoms: C_8  and  C_9 
REMARK    4  A    between atoms: C_8  and  N_19 
REMARK    5  A    between atoms: C_11  and  N_12 
REMARK       I    between atoms: N_19  and  C_20 
REMARK    6  A    between atoms: N_19  and  C_29 
REMARK    7  A    between atoms: C_20  and  C_22 
ROOT
ATOM      1  C   UNL d   1      26.271 -15.128  -1.391  0.00  0.00     0.220 C 
ENDROOT
BRANCH   1   2
ATOM      2  C   UNL d   1      26.694 -13.736  -0.829  0.00  0.00     0.246 C 
ATOM      3  N   UNL d   1      27.736 -13.009  -1.416  0.00  0.00    -0.351 N 
ATOM      4  H   UNL d   1      28.299 -13.390  -2.164  0.00  0.00     0.163 HD
ATOM      5  O   UNL d   1      26.258 -13.441   0.274  0.00  0.00    -0.271 OA
BRANCH   3   6
ATOM      6  C   UNL d   1      28.008 -11.591  -1.063  0.00  0.00     0.022 C 
ATOM      7  C   UNL d   1      29.355 -11.098  -1.569  0.00  0.00     0.037 C 
ATOM      8  C   UNL d   1      27.917 -11.319   0.453  0.00  0.00     0.037 C 
ATOM      9  C   UNL d   1      27.027 -10.765  -1.865  0.00  0.00     0.037 C 
ENDBRANCH   3   6
ENDBRANCH   1   2
BRANCH   1  10
ATOM     10  C   UNL d   1      26.734 -14.927  -2.850  0.00  0.00    -0.002 C 
ATOM     11  C   UNL d   1      27.903 -15.636  -3.235  0.00  0.00     0.047 C 
ATOM     12  C   UNL d   1      28.358 -15.622  -4.546  0.00  0.00     0.103 C 
ATOM     13  C   UNL d   1      27.815 -14.715  -5.444  0.00  0.00     0.038 C 
ATOM     14  C   UNL d   1      26.690 -13.987  -5.072  0.00  0.00     0.027 C 
ATOM     15  C   UNL d   1      26.043 -14.249  -3.868  0.00  0.00     0.043 C 
ATOM     16 CL   UNL d   1      24.405 -13.700  -3.799  0.00  0.00    -0.084 Cl
BRANCH  12  17
ATOM     17  N   UNL d   1      29.380 -16.579  -4.980  0.00  0.00    -0.116 N 
ATOM     18  O   UNL d   1      29.747 -17.439  -4.149  0.00  0.00    -0.532 OA
ATOM     19  O   UNL d   1      29.799 -16.491  -6.131  0.00  0.00    -0.532 OA
ENDBRANCH  12  17
ENDBRANCH   1  10
BRANCH   1  20
ATOM     20  N   UNL d   1      26.767 -16.375  -0.654  0.00  0.00    -0.296 N 
ATOM     21  C   UNL d   1      25.872 -17.334  -0.001  0.00  0.00     0.259 C 
ATOM     22  O   UNL d   1      26.209 -18.038   0.961  0.00  0.00    -0.267 OA
BRANCH  21  23
ATOM     23  C   UNL d   1      24.460 -17.634  -0.431  0.00  0.00     0.032 C 
ATOM     24  C   UNL d   1      23.504 -16.629  -0.518  0.00  0.00     0.018 C 
ATOM     25  C   UNL d   1      22.175 -16.939  -0.894  0.00  0.00     0.025 C 
ATOM     26  C   UNL d   1      21.750 -18.262  -0.976  0.00  0.00     0.034 C 
ATOM     27 CL   UNL d   1      20.065 -18.637  -0.891  0.00  0.00    -0.084 Cl
ATOM     28  C   UNL d   1      22.696 -19.271  -0.967  0.00  0.00     0.025 C 
ATOM     29  C   UNL d   1      24.056 -18.950  -0.767  0.00  0.00     0.018 C 
ENDBRANCH  21  23
BRANCH  20  30
ATOM     30  C   UNL d   1      28.220 -16.428  -0.252  0.00  0.00     0.038 C 
ATOM     31  C   UNL d   1      28.753 -15.464   0.613  0.00  0.00     0.030 C 
ATOM     32  C   UNL d   1      30.137 -15.211   0.691  0.00  0.00     0.002 C 
ATOM     33  C   UNL d   1      31.036 -15.927  -0.086  0.00  0.00     0.000 C 
ATOM     34  C   UNL d   1      30.553 -16.963  -0.862  0.00  0.00     0.002 C 
ATOM     35  C   UNL d   1      29.183 -17.289  -0.826  0.00  0.00     0.030 C 
ENDBRANCH  20  30
ENDBRANCH   1  20
TORSDOF 7
ENDMDL
MODEL 3
REMARK VINA RESULT:    -8.219      2.718      6.514
REMARK INTER + INTRA:         -13.924
REMARK INTER:                 -10.307
REMARK INTRA:                  -3.618
REMARK CONF_INDEPENDENT:        2.088
REMARK UNBOUND:                -3.618
REMARK  7 active torsions:
REMARK  status: ('A' for Active; 'I' for Inactive)
REMARK    1  A    between atoms: C_2  and  N_5 
REMARK       I    between atoms: N_5  and  C_6 
REMARK    2  A    between atoms: C_6  and  C_8 
REMARK    3  A    between atoms: C_8  and  C_9 
REMARK    4  A    between atoms: C_8  and  N_19 
REMARK    5  A    between atoms: C_11  and  N_12 
REMARK       I    between atoms: N_19  and  C_20 
REMARK    6  A    between atoms: N_19  and  C_29 
REMARK    7  A    between atoms: C_20  and  C_22 
ROOT
ATOM      1  C   UNL d   1      25.853 -14.332  -1.926  0.00  0.00     0.220 C 
ENDROOT
BRANCH   1   2
ATOM      2  C   UNL d   1      26.476 -14.772  -3.285  0.00  0.00     0.246 C 
ATOM      3  N   UNL d   1      27.729 -14.298  -3.690  0.00  0.00    -0.351 N 
ATOM      4  H   UNL d   1      28.232 -13.597  -3.162  0.00  0.00     0.163 HD
ATOM      5  O   UNL d   1      25.725 -15.329  -4.072  0.00  0.00    -0.271 OA
BRANCH   3   6
ATOM      6  C   UNL d   1      28.456 -14.873  -4.852  0.00  0.00     0.022 C 
ATOM      7  C   UNL d   1      27.651 -14.824  -6.142  0.00  0.00     0.037 C 
ATOM      8  C   UNL d   1      28.922 -16.324  -4.612  0.00  0.00     0.037 C 
ATOM      9  C   UNL d   1      29.603 -13.930  -5.138  0.00  0.00     0.037 C 
ENDBRANCH   3   6
ENDBRANCH   1   2
BRANCH   1  10
ATOM     10  C   UNL d   1      25.549 -15.734  -1.357  0.00  0.00    -0.002 C 
ATOM     11  C   UNL d   1      24.179 -16.108  -1.321  0.00  0.00     0.047 C 
ATOM     12  C   UNL d   1      23.786 -17.380  -0.932  0.00  0.00     0.103 C 
ATOM     13  C   UNL d   1      24.712 -18.224  -0.336  0.00  0.00     0.038 C 
ATOM     14  C   UNL d   1      26.055 -17.859  -0.332  0.00  0.00     0.027 C 
ATOM     15  C   UNL d   1      26.483 -16.727  -1.019  0.00  0.00     0.043 C 
ATOM     16 CL   UNL d   1      28.170 -16.712  -1.396  0.00  0.00    -0.084 Cl
BRANCH  12  17
ATOM     17  N   UNL d   1      22.414 -17.834  -1.177  0.00  0.00    -0.116 N 
ATOM     18  O   UNL d   1      22.269 -18.985  -1.646  0.00  0.00    -0.532 OA
ATOM     19  O   UNL d   1      21.496 -17.071  -0.895  0.00  0.00    -0.532 OA
ENDBRANCH  12  17
ENDBRANCH   1  10
BRANCH   1  20
ATOM     20  N   UNL d   1      26.660 -13.369  -1.051  0.00  0.00    -0.296 N 
ATOM     21  C   UNL d   1      27.468 -12.273  -1.592  0.00  0.00     0.259 C 
ATOM     22  O   UNL d   1      28.460 -11.805  -1.017  0.00  0.00    -0.267 OA
BRANCH  21  23
ATOM     23  C   UNL d   1      27.180 -11.534  -2.874  0.00  0.00     0.032 C 
ATOM     24  C   UNL d   1      25.876 -11.259  -3.270  0.00  0.00     0.018 C 
ATOM     25  C   UNL d   1      25.630 -10.592  -4.494  0.00  0.00     0.025 C 
ATOM     26  C   UNL d   1      26.654 -10.391  -5.414  0.00  0.00     0.034 C 
ATOM     27 CL   UNL d   1      26.280 -10.094  -7.075  0.00  0.00    -0.084 Cl
ATOM     28  C   UNL d   1      27.963 -10.589  -5.012  0.00  0.00     0.025 C 
ATOM     29  C   UNL d   1      28.227 -11.091  -3.719  0.00  0.00     0.018 C 
ENDBRANCH  21  23
BRANCH  20  30
ATOM     30  C   UNL d   1      26.948 -13.779   0.373  0.00  0.00     0.038 C 
ATOM     31  C   UNL d   1      26.205 -13.241   1.430  0.00  0.00     0.030 C 
ATOM     32  C   UNL d   1      26.675 -13.249   2.757  0.00  0.00     0.002 C 
ATOM     33  C   UNL d   1      27.905 -13.810   3.073  0.00  0.00     0.000 C 
ATOM     34  C   UNL d   1      28.609 -14.451   2.072  0.00  0.00     0.002 C 
ATOM     35  C   UNL d   1      28.061 -14.549   0.778  0.00  0.00     0.030 C 
ENDBRANCH  20  30
ENDBRANCH   1  20
TORSDOF 7
ENDMDL
MODEL 4
REMARK VINA RESULT:    -8.139      5.441      9.907
REMARK INTER + INTRA:         -13.908
REMARK INTER:                 -10.227
REMARK INTRA:                  -3.681
REMARK CONF_INDEPENDENT:        2.088
REMARK UNBOUND:                -3.681
REMARK  7 active torsions:
REMARK  status: ('A' for Active; 'I' for Inactive)
REMARK    1  A    between atoms: C_2  and  N_5 
REMARK       I    between atoms: N_5  and  C_6 
REMARK    2  A    between atoms: C_6  and  C_8 
REMARK    3  A    between atoms: C_8  and  C_9 
REMARK    4  A    between atoms: C_8  and  N_19 
REMARK    5  A    between atoms: C_11  and  N_12 
REMARK       I    between atoms: N_19  and  C_20 
REMARK    6  A    between atoms: N_19  and  C_29 
REMARK    7  A    between atoms: C_20  and  C_22 
ROOT
ATOM      1  C   UNL d   1      28.274 -11.347   6.450  0.00  0.00     0.220 C 
ENDROOT
BRANCH   1   2
ATOM      2  C   UNL d   1      29.115 -10.232   7.143  0.00  0.00     0.246 C 
ATOM      3  N   UNL d   1      29.148 -10.116   8.537  0.00  0.00    -0.351 N 
ATOM      4  H   UNL d   1      28.571 -10.691   9.135  0.00  0.00     0.163 HD
ATOM      5  O   UNL d   1      29.522  -9.333   6.422  0.00  0.00    -0.271 OA
BRANCH   3   6
ATOM      6  C   UNL d   1      30.116  -9.229   9.235  0.00  0.00     0.022 C 
ATOM      7  C   UNL d   1      30.408  -9.671  10.661  0.00  0.00     0.037 C 
ATOM      8  C   UNL d   1      29.672  -7.752   9.253  0.00  0.00     0.037 C 
ATOM      9  C   UNL d   1      31.445  -9.433   8.543  0.00  0.00     0.037 C 
ENDBRANCH   3   6
ENDBRANCH   1   2
BRANCH   1  10
ATOM     10  C   UNL d   1      28.411 -10.855   4.993  0.00  0.00    -0.002 C 
ATOM     11  C   UNL d   1      27.327 -10.086   4.492  0.00  0.00     0.047 C 
ATOM     12  C   UNL d   1      27.377  -9.498   3.236  0.00  0.00     0.103 C 
ATOM     13  C   UNL d   1      28.386  -9.861   2.357  0.00  0.00     0.038 C 
ATOM     14  C   UNL d   1      29.439 -10.642   2.821  0.00  0.00     0.027 C 
ATOM     15  C   UNL d   1      29.547 -10.956   4.173  0.00  0.00     0.043 C 
ATOM     16 CL   UNL d   1      31.133 -11.421   4.679  0.00  0.00    -0.084 Cl
BRANCH  12  17
ATOM     17  N   UNL d   1      26.390  -8.482   2.859  0.00  0.00    -0.116 N 
ATOM     18  O   UNL d   1      25.396  -8.866   2.204  0.00  0.00    -0.532 OA
ATOM     19  O   UNL d   1      26.588  -7.325   3.221  0.00  0.00    -0.532 OA
ENDBRANCH  12  17
ENDBRANCH   1  10
BRANCH   1  20
ATOM     20  N   UNL d   1      28.641 -12.804   6.746  0.00  0.00    -0.296 N 
ATOM     21  C   UNL d   1      28.326 -13.914   5.843  0.00  0.00     0.259 C 
ATOM     22  O   UNL d   1      28.165 -15.081   6.223  0.00  0.00    -0.267 OA
BRANCH  21  23
ATOM     23  C   UNL d   1      28.209 -13.806   4.344  0.00  0.00     0.032 C 
ATOM     24  C   UNL d   1      27.030 -13.383   3.742  0.00  0.00     0.018 C 
ATOM     25  C   UNL d   1      26.933 -13.319   2.331  0.00  0.00     0.025 C 
ATOM     26  C   UNL d   1      27.923 -13.872   1.525  0.00  0.00     0.034 C 
ATOM     27 CL   UNL d   1      27.573 -14.285  -0.117  0.00  0.00    -0.084 Cl
ATOM     28  C   UNL d   1      29.131 -14.230   2.096  0.00  0.00     0.025 C 
ATOM     29  C   UNL d   1      29.297 -14.128   3.495  0.00  0.00     0.018 C 
ENDBRANCH  21  23
BRANCH  20  30
ATOM     30  C   UNL d   1      28.991 -13.171   8.167  0.00  0.00     0.038 C 
ATOM     31  C   UNL d   1      30.123 -13.950   8.440  0.00  0.00     0.030 C 
ATOM     32  C   UNL d   1      30.270 -14.659   9.647  0.00  0.00     0.002 C 
ATOM     33  C   UNL d   1      29.293 -14.601  10.631  0.00  0.00     0.000 C 
ATOM     34  C   UNL d   1      28.221 -13.751  10.440  0.00  0.00     0.002 C 
ATOM     35  C   UNL d   1      28.156 -12.948   9.285  0.00  0.00     0.030 C 
ENDBRANCH  20  30
ENDBRANCH   1  20
TORSDOF 7
ENDMDL
MODEL 5
REMARK VINA RESULT:    -8.131      1.759      4.903
REMARK INTER + INTRA:         -14.362
REMARK INTER:                 -10.219
REMARK INTRA:                  -4.143
REMARK CONF_INDEPENDENT:        2.088
REMARK UNBOUND:                -4.143
REMARK  7 active torsions:
REMARK  status: ('A' for Active; 'I' for Inactive)
REMARK    1  A    between atoms: C_2  and  N_5 
REMARK       I    between atoms: N_5  and  C_6 
REMARK    2  A    between atoms: C_6  and  C_8 
REMARK    3  A    between atoms: C_8  and  C_9 
REMARK    4  A    between atoms: C_8  and  N_19 
REMARK    5  A    between atoms: C_11  and  N_12 
REMARK       I    between atoms: N_19  and  C_20 
REMARK    6  A    between atoms: N_19  and  C_29 
REMARK    7  A    between atoms: C_20  and  C_22 
ROOT
ATOM      1  C   UNL d   1      27.864 -15.378  -0.102  0.00  0.00     0.220 C 
ENDROOT
BRANCH   1   2
ATOM      2  C   UNL d   1      26.729 -16.429  -0.290  0.00  0.00     0.246 C 
ATOM      3  N   UNL d   1      25.382 -16.063  -0.178  0.00  0.00    -0.351 N 
ATOM      4  H   UNL d   1      25.103 -15.134   0.105  0.00  0.00     0.163 HD
ATOM      5  O   UNL d   1      27.069 -17.603  -0.281  0.00  0.00    -0.271 OA
BRANCH   3   6
ATOM      6  C   UNL d   1      24.278 -16.973  -0.582  0.00  0.00     0.022 C 
ATOM      7  C   UNL d   1      22.909 -16.312  -0.522  0.00  0.00     0.037 C 
ATOM      8  C   UNL d   1      24.238 -18.274   0.246  0.00  0.00     0.037 C 
ATOM      9  C   UNL d   1      24.464 -17.226  -2.061  0.00  0.00     0.037 C 
ENDBRANCH   3   6
ENDBRANCH   1   2
BRANCH   1  10
ATOM     10  C   UNL d   1      28.396 -15.364  -1.552  0.00  0.00    -0.002 C 
ATOM     11  C   UNL d   1      27.430 -15.584  -2.570  0.00  0.00     0.047 C 
ATOM     12  C   UNL d   1      27.762 -15.490  -3.914  0.00  0.00     0.103 C 
ATOM     13  C   UNL d   1      29.099 -15.424  -4.280  0.00  0.00     0.038 C 
ATOM     14  C   UNL d   1      30.061 -15.243  -3.293  0.00  0.00     0.027 C 
ATOM     15  C   UNL d   1      29.688 -15.009  -1.972  0.00  0.00     0.043 C 
ATOM     16 CL   UNL d   1      30.908 -14.262  -1.002  0.00  0.00    -0.084 Cl
BRANCH  12  17
ATOM     17  N   UNL d   1      26.708 -15.431  -4.930  0.00  0.00    -0.116 N 
ATOM     18  O   UNL d   1      25.528 -15.574  -4.539  0.00  0.00    -0.532 OA
ATOM     19  O   UNL d   1      27.041 -15.228  -6.094  0.00  0.00    -0.532 OA
ENDBRANCH  12  17
ENDBRANCH   1  10
BRANCH   1  20
ATOM     20  N   UNL d   1      27.493 -14.034   0.531  0.00  0.00    -0.296 N 
ATOM     21  C   UNL d   1      27.464 -12.773  -0.214  0.00  0.00     0.259 C 
ATOM     22  O   UNL d   1      27.643 -11.665   0.310  0.00  0.00    -0.267 OA
BRANCH  21  23
ATOM     23  C   UNL d   1      27.165 -12.641  -1.685  0.00  0.00     0.032 C 
ATOM     24  C   UNL d   1      28.118 -12.156  -2.574  0.00  0.00     0.018 C 
ATOM     25  C   UNL d   1      27.804 -12.011  -3.946  0.00  0.00     0.025 C 
ATOM     26  C   UNL d   1      26.494 -12.145  -4.394  0.00  0.00     0.034 C 
ATOM     27 CL   UNL d   1      26.020 -11.453  -5.906  0.00  0.00    -0.084 Cl
ATOM     28  C   UNL d   1      25.549 -12.695  -3.547  0.00  0.00     0.025 C 
ATOM     29  C   UNL d   1      25.904 -13.010  -2.217  0.00  0.00     0.018 C 
ENDBRANCH  21  23
BRANCH  20  30
ATOM     30  C   UNL d   1      27.529 -13.926   2.035  0.00  0.00     0.038 C 
ATOM     31  C   UNL d   1      27.033 -12.785   2.677  0.00  0.00     0.030 C 
ATOM     32  C   UNL d   1      27.405 -12.443   3.992  0.00  0.00     0.002 C 
ATOM     33  C   UNL d   1      28.278 -13.244   4.715  0.00  0.00     0.000 C 
ATOM     34  C   UNL d   1      28.691 -14.437   4.153  0.00  0.00     0.002 C 
ATOM     35  C   UNL d   1      28.204 -14.826   2.891  0.00  0.00     0.030 C 
ENDBRANCH  20  30
ENDBRANCH   1  20
TORSDOF 7
ENDMDL
MODEL 6
REMARK VINA RESULT:    -8.106      2.995      6.309
REMARK INTER + INTRA:         -13.974
REMARK INTER:                 -10.194
REMARK INTRA:                  -3.780
REMARK CONF_INDEPENDENT:        2.088
REMARK UNBOUND:                -3.780
REMARK  7 active torsions:
REMARK  status: ('A' for Active; 'I' for Inactive)
REMARK    1  A    between atoms: C_2  and  N_5 
REMARK       I    between atoms: N_5  and  C_6 
REMARK    2  A    between atoms: C_6  and  C_8 
REMARK    3  A    between atoms: C_8  and  C_9 
REMARK    4  A    between atoms: C_8  and  N_19 
REMARK    5  A    between atoms: C_11  and  N_12 
REMARK       I    between atoms: N_19  and  C_20 
REMARK    6  A    between atoms: N_19  and  C_29 
REMARK    7  A    between atoms: C_20  and  C_22 
ROOT
ATOM      1  C   UNL d   1      26.264 -14.721  -0.360  0.00  0.00     0.220 C 
ENDROOT
BRANCH   1   2
ATOM      2  C   UNL d   1      26.679 -14.078   0.998  0.00  0.00     0.246 C 
ATOM      3  N   UNL d   1      27.716 -14.620   1.765  0.00  0.00    -0.351 N 
ATOM      4  H   UNL d   1      28.173 -15.485   1.510  0.00  0.00     0.163 HD
ATOM      5  O   UNL d   1      25.904 -13.258   1.470  0.00  0.00    -0.271 OA
BRANCH   3   6
ATOM      6  C   UNL d   1      28.294 -13.906   2.933  0.00  0.00     0.022 C 
ATOM      7  C   UNL d   1      29.708 -14.357   3.268  0.00  0.00     0.037 C 
ATOM      8  C   UNL d   1      27.423 -14.023   4.201  0.00  0.00     0.037 C 
ATOM      9  C   UNL d   1      28.495 -12.474   2.491  0.00  0.00     0.037 C 
ENDBRANCH   3   6
ENDBRANCH   1   2
BRANCH   1  10
ATOM     10  C   UNL d   1      26.506 -13.496  -1.268  0.00  0.00    -0.002 C 
ATOM     11  C   UNL d   1      27.482 -12.569  -0.815  0.00  0.00     0.047 C 
ATOM     12  C   UNL d   1      27.866 -11.485  -1.591  0.00  0.00     0.103 C 
ATOM     13  C   UNL d   1      27.121 -11.158  -2.716  0.00  0.00     0.038 C 
ATOM     14  C   UNL d   1      26.139 -12.039  -3.156  0.00  0.00     0.027 C 
ATOM     15  C   UNL d   1      25.983 -13.284  -2.555  0.00  0.00     0.043 C 
ATOM     16 CL   UNL d   1      25.155 -14.451  -3.525  0.00  0.00    -0.084 Cl
BRANCH  12  17
ATOM     17  N   UNL d   1      29.064 -10.717  -1.242  0.00  0.00    -0.116 N 
ATOM     18  O   UNL d   1      30.171 -11.218  -1.539  0.00  0.00    -0.532 OA
ATOM     19  O   UNL d   1      28.910  -9.627  -0.698  0.00  0.00    -0.532 OA
ENDBRANCH  12  17
ENDBRANCH   1  10
BRANCH   1  20
ATOM     20  N   UNL d   1      26.930 -16.042  -0.756  0.00  0.00    -0.296 N 
ATOM     21  C   UNL d   1      26.345 -17.355  -0.472  0.00  0.00     0.259 C 
ATOM     22  O   UNL d   1      27.016 -18.387  -0.333  0.00  0.00    -0.267 OA
BRANCH  21  23
ATOM     23  C   UNL d   1      24.870 -17.644  -0.366  0.00  0.00     0.032 C 
ATOM     24  C   UNL d   1      24.399 -18.942  -0.211  0.00  0.00     0.018 C 
ATOM     25  C   UNL d   1      23.007 -19.192  -0.145  0.00  0.00     0.025 C 
ATOM     26  C   UNL d   1      22.090 -18.190  -0.444  0.00  0.00     0.034 C 
ATOM     27 CL   UNL d   1      20.473 -18.602  -0.895  0.00  0.00    -0.084 Cl
ATOM     28  C   UNL d   1      22.530 -16.881  -0.528  0.00  0.00     0.025 C 
ATOM     29  C   UNL d   1      23.910 -16.602  -0.417  0.00  0.00     0.018 C 
ENDBRANCH  21  23
BRANCH  20  30
ATOM     30  C   UNL d   1      28.398 -16.019  -1.101  0.00  0.00     0.038 C 
ATOM     31  C   UNL d   1      29.354 -16.431  -0.164  0.00  0.00     0.030 C 
ATOM     32  C   UNL d   1      30.707 -16.052  -0.258  0.00  0.00     0.002 C 
ATOM     33  C   UNL d   1      31.152 -15.256  -1.304  0.00  0.00     0.000 C 
ATOM     34  C   UNL d   1      30.258 -14.930  -2.306  0.00  0.00     0.002 C 
ATOM     35  C   UNL d   1      28.942 -15.429  -2.264  0.00  0.00     0.030 C 
ENDBRANCH  20  30
ENDBRANCH   1  20
TORSDOF 7
ENDMDL
MODEL 7
REMARK VINA RESULT:    -7.724      1.998      4.440
REMARK INTER + INTRA:         -13.635
REMARK INTER:                  -9.812
REMARK INTRA:                  -3.823
REMARK CONF_INDEPENDENT:        2.088
REMARK UNBOUND:                -3.823
REMARK  7 active torsions:
REMARK  status: ('A' for Active; 'I' for Inactive)
REMARK    1  A    between atoms: C_2  and  N_5 
REMARK       I    between atoms: N_5  and  C_6 
REMARK    2  A    between atoms: C_6  and  C_8 
REMARK    3  A    between atoms: C_8  and  C_9 
REMARK    4  A    between atoms: C_8  and  N_19 
REMARK    5  A    between atoms: C_11  and  N_12 
REMARK       I    between atoms: N_19  and  C_20 
REMARK    6  A    between atoms: N_19  and  C_29 
REMARK    7  A    between atoms: C_20  and  C_22 
ROOT
ATOM      1  C   UNL d   1      27.531 -14.828   0.501  0.00  0.00     0.220 C 
ENDROOT
BRANCH   1   2
ATOM      2  C   UNL d   1      27.223 -13.394  -0.026  0.00  0.00     0.246 C 
ATOM      3  N   UNL d   1      28.154 -12.696  -0.804  0.00  0.00    -0.351 N 
ATOM      4  H   UNL d   1      29.081 -13.059  -0.982  0.00  0.00     0.163 HD
ATOM      5  O   UNL d   1      26.265 -12.825   0.477  0.00  0.00    -0.271 OA
BRANCH   3   6
ATOM      6  C   UNL d   1      27.807 -11.439  -1.517  0.00  0.00     0.022 C 
ATOM      7  C   UNL d   1      27.460 -10.296  -0.575  0.00  0.00     0.037 C 
ATOM      8  C   UNL d   1      26.654 -11.619  -2.527  0.00  0.00     0.037 C 
ATOM      9  C   UNL d   1      29.085 -10.960  -2.168  0.00  0.00     0.037 C 
ENDBRANCH   3   6
ENDBRANCH   1   2
BRANCH   1  10
ATOM     10  C   UNL d   1      26.619 -15.619  -0.462  0.00  0.00    -0.002 C 
ATOM     11  C   UNL d   1      26.376 -15.015  -1.724  0.00  0.00     0.047 C 
ATOM     12  C   UNL d   1      25.661 -15.672  -2.715  0.00  0.00     0.103 C 
ATOM     13  C   UNL d   1      24.965 -16.829  -2.395  0.00  0.00     0.038 C 
ATOM     14  C   UNL d   1      25.166 -17.417  -1.151  0.00  0.00     0.027 C 
ATOM     15  C   UNL d   1      26.138 -16.926  -0.284  0.00  0.00     0.043 C 
ATOM     16 CL   UNL d   1      26.654 -18.049   0.925  0.00  0.00    -0.084 Cl
BRANCH  12  17
ATOM     17  N   UNL d   1      25.669 -15.164  -4.090  0.00  0.00    -0.116 N 
ATOM     18  O   UNL d   1      26.578 -15.575  -4.845  0.00  0.00    -0.532 OA
ATOM     19  O   UNL d   1      24.781 -14.384  -4.420  0.00  0.00    -0.532 OA
ENDBRANCH  12  17
ENDBRANCH   1  10
BRANCH   1  20
ATOM     20  N   UNL d   1      29.000 -15.251   0.596  0.00  0.00    -0.296 N 
ATOM     21  C   UNL d   1      29.899 -14.806   1.664  0.00  0.00     0.259 C 
ATOM     22  O   UNL d   1      31.127 -14.719   1.533  0.00  0.00    -0.267 OA
BRANCH  21  23
ATOM     23  C   UNL d   1      29.472 -14.450   3.065  0.00  0.00     0.032 C 
ATOM     24  C   UNL d   1      28.129 -14.412   3.421  0.00  0.00     0.018 C 
ATOM     25  C   UNL d   1      27.750 -14.044   4.735  0.00  0.00     0.025 C 
ATOM     26  C   UNL d   1      28.682 -13.515   5.622  0.00  0.00     0.034 C 
ATOM     27 CL   UNL d   1      28.155 -12.581   6.977  0.00  0.00    -0.084 Cl
ATOM     28  C   UNL d   1      30.028 -13.612   5.316  0.00  0.00     0.025 C 
ATOM     29  C   UNL d   1      30.423 -14.145   4.070  0.00  0.00     0.018 C 
ENDBRANCH  21  23
BRANCH  20  30
ATOM     30  C   UNL d   1      29.652 -15.828  -0.636  0.00  0.00     0.038 C 
ATOM     31  C   UNL d   1      29.604 -15.137  -1.853  0.00  0.00     0.030 C 
ATOM     32  C   UNL d   1      29.810 -15.780  -3.089  0.00  0.00     0.002 C 
ATOM     33  C   UNL d   1      30.086 -17.140  -3.146  0.00  0.00     0.000 C 
ATOM     34  C   UNL d   1      30.256 -17.825  -1.958  0.00  0.00     0.002 C 
ATOM     35  C   UNL d   1      30.177 -17.136  -0.731  0.00  0.00     0.030 C 
ENDBRANCH  20  30
ENDBRANCH   1  20
TORSDOF 7
ENDMDL
MODEL 8
REMARK VINA RESULT:    -7.697      3.471      7.461
REMARK INTER + INTRA:         -13.495
REMARK INTER:                  -9.785
REMARK INTRA:                  -3.710
REMARK CONF_INDEPENDENT:        2.088
REMARK UNBOUND:                -3.710
REMARK  7 active torsions:
REMARK  status: ('A' for Active; 'I' for Inactive)
REMARK    1  A    between atoms: C_2  and  N_5 
REMARK       I    between atoms: N_5  and  C_6 
REMARK    2  A    between atoms: C_6  and  C_8 
REMARK    3  A    between atoms: C_8  and  C_9 
REMARK    4  A    between atoms: C_8  and  N_19 
REMARK    5  A    between atoms: C_11  and  N_12 
REMARK       I    between atoms: N_19  and  C_20 
REMARK    6  A    between atoms: N_19  and  C_29 
REMARK    7  A    between atoms: C_20  and  C_22 
ROOT
ATOM      1  C   UNL d   1      27.477 -13.776   1.877  0.00  0.00     0.220 C 
ENDROOT
BRANCH   1   2
ATOM      2  C   UNL d   1      27.615 -13.689   3.428  0.00  0.00     0.246 C 
ATOM      3  N   UNL d   1      28.860 -13.468   4.029  0.00  0.00    -0.351 N 
ATOM      4  H   UNL d   1      29.715 -13.439   3.491  0.00  0.00     0.163 HD
ATOM      5  O   UNL d   1      26.655 -14.071   4.081  0.00  0.00    -0.271 OA
BRANCH   3   6
ATOM      6  C   UNL d   1      28.995 -13.143   5.473  0.00  0.00     0.022 C 
ATOM      7  C   UNL d   1      27.806 -12.370   6.024  0.00  0.00     0.037 C 
ATOM      8  C   UNL d   1      30.287 -12.365   5.796  0.00  0.00     0.037 C 
ATOM      9  C   UNL d   1      28.907 -14.462   6.209  0.00  0.00     0.037 C 
ENDBRANCH   3   6
ENDBRANCH   1   2
BRANCH   1  10
ATOM     10  C   UNL d   1      27.295 -12.271   1.586  0.00  0.00    -0.002 C 
ATOM     11  C   UNL d   1      27.138 -11.432   2.722  0.00  0.00     0.047 C 
ATOM     12  C   UNL d   1      27.073 -10.052   2.598  0.00  0.00     0.103 C 
ATOM     13  C   UNL d   1      26.912  -9.490   1.340  0.00  0.00     0.038 C 
ATOM     14  C   UNL d   1      27.030 -10.302   0.217  0.00  0.00     0.027 C 
ATOM     15  C   UNL d   1      27.422 -11.632   0.342  0.00  0.00     0.043 C 
ATOM     16 CL   UNL d   1      28.058 -12.332  -1.105  0.00  0.00    -0.084 Cl
BRANCH  12  17
ATOM     17  N   UNL d   1      27.203  -9.200   3.784  0.00  0.00    -0.116 N 
ATOM     18  O   UNL d   1      27.885  -9.644   4.734  0.00  0.00    -0.532 OA
ATOM     19  O   UNL d   1      26.655  -8.101   3.766  0.00  0.00    -0.532 OA
ENDBRANCH  12  17
ENDBRANCH   1  10
BRANCH   1  20
ATOM     20  N   UNL d   1      28.569 -14.522   1.106  0.00  0.00    -0.296 N 
ATOM     21  C   UNL d   1      28.380 -15.856   0.529  0.00  0.00     0.259 C 
ATOM     22  O   UNL d   1      29.306 -16.656   0.340  0.00  0.00    -0.267 OA
BRANCH  21  23
ATOM     23  C   UNL d   1      27.067 -16.412   0.042  0.00  0.00     0.032 C 
ATOM     24  C   UNL d   1      26.193 -15.639  -0.714  0.00  0.00     0.018 C 
ATOM     25  C   UNL d   1      24.951 -16.173  -1.133  0.00  0.00     0.025 C 
ATOM     26  C   UNL d   1      24.491 -17.385  -0.629  0.00  0.00     0.034 C 
ATOM     27 CL   UNL d   1      22.806 -17.767  -0.694  0.00  0.00    -0.084 Cl
ATOM     28  C   UNL d   1      25.370 -18.201   0.061  0.00  0.00     0.025 C 
ATOM     29  C   UNL d   1      26.678 -17.743   0.332  0.00  0.00     0.018 C 
ENDBRANCH  21  23
BRANCH  20  30
ATOM     30  C   UNL d   1      29.994 -14.053   1.265  0.00  0.00     0.038 C 
ATOM     31  C   UNL d   1      30.927 -14.838   1.954  0.00  0.00     0.030 C 
ATOM     32  C   UNL d   1      32.112 -14.297   2.488  0.00  0.00     0.002 C 
ATOM     33  C   UNL d   1      32.411 -12.950   2.338  0.00  0.00     0.000 C 
ATOM     34  C   UNL d   1      31.569 -12.175   1.564  0.00  0.00     0.002 C 
ATOM     35  C   UNL d   1      30.459 -12.762   0.927  0.00  0.00     0.030 C 
ENDBRANCH  20  30
ENDBRANCH   1  20
TORSDOF 7
ENDMDL
MODEL 9
REMARK VINA RESULT:    -7.002      2.968      6.553
REMARK INTER + INTRA:         -13.453
REMARK INTER:                  -9.090
REMARK INTRA:                  -4.363
REMARK CONF_INDEPENDENT:        2.088
REMARK UNBOUND:                -4.363
REMARK  7 active torsions:
REMARK  status: ('A' for Active; 'I' for Inactive)
REMARK    1  A    between atoms: C_2  and  N_5 
REMARK       I    between atoms: N_5  and  C_6 
REMARK    2  A    between atoms: C_6  and  C_8 
REMARK    3  A    between atoms: C_8  and  C_9 
REMARK    4  A    between atoms: C_8  and  N_19 
REMARK    5  A    between atoms: C_11  and  N_12 
REMARK       I    between atoms: N_19  and  C_20 
REMARK    6  A    between atoms: N_19  and  C_29 
REMARK    7  A    between atoms: C_20  and  C_22 
ROOT
ATOM      1  C   UNL d   1      27.620 -15.425  -1.571  0.00  0.00     0.220 C 
ENDROOT
BRANCH   1   2
ATOM      2  C   UNL d   1      28.797 -15.758  -2.539  0.00  0.00     0.246 C 
ATOM      3  N   UNL d   1      28.573 -15.947  -3.908  0.00  0.00    -0.351 N 
ATOM      4  H   UNL d   1      27.641 -15.957  -4.300  0.00  0.00     0.163 HD
ATOM      5  O   UNL d   1      29.851 -16.091  -2.018  0.00  0.00    -0.271 OA
BRANCH   3   6
ATOM      6  C   UNL d   1      29.686 -16.027  -4.888  0.00  0.00     0.022 C 
ATOM      7  C   UNL d   1      29.285 -15.574  -6.284  0.00  0.00     0.037 C 
ATOM      8  C   UNL d   1      30.305 -17.438  -4.983  0.00  0.00     0.037 C 
ATOM      9  C   UNL d   1      30.689 -14.976  -4.471  0.00  0.00     0.037 C 
ENDBRANCH   3   6
ENDBRANCH   1   2
BRANCH   1  10
ATOM     10  C   UNL d   1      27.968 -13.946  -1.300  0.00  0.00    -0.002 C 
ATOM     11  C   UNL d   1      28.632 -13.260  -2.352  0.00  0.00     0.047 C 
ATOM     12  C   UNL d   1      28.903 -11.902  -2.272  0.00  0.00     0.103 C 
ATOM     13  C   UNL d   1      28.747 -11.248  -1.058  0.00  0.00     0.038 C 
ATOM     14  C   UNL d   1      28.128 -11.916  -0.006  0.00  0.00     0.027 C 
ATOM     15  C   UNL d   1      27.563 -13.173  -0.199  0.00  0.00     0.043 C 
ATOM     16 CL   UNL d   1      26.378 -13.616   0.979  0.00  0.00    -0.084 Cl
BRANCH  12  17
ATOM     17  N   UNL d   1      29.319 -11.162  -3.467  0.00  0.00    -0.116 N 
ATOM     18  O   UNL d   1      29.023  -9.948  -3.519  0.00  0.00    -0.532 OA
ATOM     19  O   UNL d   1      29.943 -11.771  -4.332  0.00  0.00    -0.532 OA
ENDBRANCH  12  17
ENDBRANCH   1  10
BRANCH   1  20
ATOM     20  N   UNL d   1      26.199 -15.747  -2.042  0.00  0.00    -0.296 N 
ATOM     21  C   UNL d   1      25.350 -14.789  -2.756  0.00  0.00     0.259 C 
ATOM     22  O   UNL d   1      24.113 -14.817  -2.726  0.00  0.00    -0.267 OA
BRANCH  21  23
ATOM     23  C   UNL d   1      25.851 -13.688  -3.654  0.00  0.00     0.032 C 
ATOM     24  C   UNL d   1      25.552 -12.355  -3.396  0.00  0.00     0.018 C 
ATOM     25  C   UNL d   1      26.007 -11.341  -4.272  0.00  0.00     0.025 C 
ATOM     26  C   UNL d   1      26.570 -11.663  -5.502  0.00  0.00     0.034 C 
ATOM     27 CL   UNL d   1      26.618 -10.486  -6.768  0.00  0.00    -0.084 Cl
ATOM     28  C   UNL d   1      26.943 -12.973  -5.746  0.00  0.00     0.025 C 
ATOM     29  C   UNL d   1      26.648 -13.970  -4.792  0.00  0.00     0.018 C 
ENDBRANCH  21  23
BRANCH  20  30
ATOM     30  C   UNL d   1      25.503 -16.937  -1.429  0.00  0.00     0.038 C 
ATOM     31  C   UNL d   1      24.335 -17.450  -2.006  0.00  0.00     0.030 C 
ATOM     32  C   UNL d   1      23.432 -18.254  -1.283  0.00  0.00     0.002 C 
ATOM     33  C   UNL d   1      23.678 -18.584   0.043  0.00  0.00     0.000 C 
ATOM     34  C   UNL d   1      24.878 -18.191   0.604  0.00  0.00     0.002 C 
ATOM     35  C   UNL d   1      25.827 -17.501  -0.175  0.00  0.00     0.030 C 
ENDBRANCH  20  30
ENDBRANCH   1  20
TORSDOF 7
ENDMDL
