MODEL 1
REMARK VINA RESULT:    -9.580      0.000      0.000
REMARK INTER + INTRA:         -13.150
REMARK INTER:                 -11.966
REMARK INTRA:                  -1.184
REMARK CONF_INDEPENDENT:        2.386
REMARK UNBOUND:                -1.184
REMARK  8 active torsions:
REMARK  status: ('A' for Active; 'I' for Inactive)
REMARK    1  A    between atoms: C_2  and  N_3 
REMARK    2  A    between atoms: N_6  and  C_7 
REMARK    3  A    between atoms: C_10  and  C_11 
REMARK    4  A    between atoms: C_11  and  O_13 
REMARK    5  A    between atoms: C_16  and  N_17 
REMARK    6  A    between atoms: N_17  and  C_18 
REMARK    7  A    between atoms: C_18  and  N_20 
REMARK       I    between atoms: N_20  and  C_21 
REMARK    8  A    between atoms: C_21  and  C_23 
ROOT
ATOM      1  C   UNL d   1      28.373 -11.979   3.814  0.00  0.00     0.052 A 
ATOM      2  C   UNL d   1      28.747 -10.662   4.204  0.00  0.00     0.032 A 
ATOM      3  C   UNL d   1      28.051  -9.502   3.806  0.00  0.00     0.020 A 
ATOM      4  C   UNL d   1      26.967  -9.585   2.931  0.00  0.00     0.041 A 
ATOM      5  C   UNL d   1      26.593 -10.871   2.480  0.00  0.00     0.043 A 
ATOM      6  C   UNL d   1      27.300 -12.076   2.859  0.00  0.00     0.042 A 
ENDROOT
BRANCH   6   7
ATOM      7  N   UNL d   1      26.831 -13.334   2.198  0.00  0.00    -0.234 NA
ATOM      8  H   UNL d   1      26.925 -14.074   2.896  0.00  0.00     0.136 HD
BRANCH   7   9
ATOM      9  C   UNL d   1      27.366 -13.825   1.000  0.00  0.00     0.157 C 
ATOM     10  S   UNL d   1      29.024 -13.994   0.861  0.00  0.00    -0.046 SA
BRANCH   9  11
ATOM     11  N   UNL d   1      26.415 -14.478   0.086  0.00  0.00    -0.304 N 
ATOM     12  C   UNL d   1      26.364 -15.793  -0.572  0.00  0.00     0.259 C 
ATOM     13  O   UNL d   1      27.157 -16.250  -1.400  0.00  0.00    -0.267 OA
ATOM     14  H   UNL d   1      25.487 -14.249   0.409  0.00  0.00     0.171 HD
BRANCH  12  15
ATOM     15  C   UNL d   1      25.214 -16.658  -0.731  0.00  0.00     0.054 A 
ATOM     16  C   UNL d   1      23.956 -16.062  -1.096  0.00  0.00     0.020 A 
ATOM     17  C   UNL d   1      22.760 -16.736  -0.899  0.00  0.00     0.025 A 
ATOM     18  C   UNL d   1      22.828 -18.025  -0.397  0.00  0.00     0.035 A 
ATOM     19 CL   UNL d   1      21.414 -18.990  -0.388  0.00  0.00    -0.084 Cl
ATOM     20  C   UNL d   1      24.039 -18.573   0.045  0.00  0.00     0.048 A 
ATOM     21  C   UNL d   1      25.231 -17.878  -0.085  0.00  0.00     0.051 A 
ATOM     22 CL   UNL d   1      26.656 -18.523   0.643  0.00  0.00    -0.083 Cl
ENDBRANCH  12  15
ENDBRANCH   9  11
ENDBRANCH   7   9
ENDBRANCH   6   7
BRANCH   1  23
ATOM     23  N   UNL d   1      29.070 -13.029   4.409  0.00  0.00    -0.376 N 
ATOM     24  C   UNL d   1      28.510 -14.347   4.578  0.00  0.00     0.150 C 
ATOM     25  C   UNL d   1      28.529 -14.691   6.061  0.00  0.00     0.254 C 
ATOM     26  N   UNL d   1      29.690 -14.335   7.042  0.00  0.00    -0.068 N 
ATOM     27  C   UNL d   1      30.410 -13.067   6.569  0.00  0.00     0.254 C 
ATOM     28  H   UNL d   1      30.278 -15.169   7.016  0.00  0.00     0.280 HD
ATOM     29  C   UNL d   1      30.416 -12.910   5.023  0.00  0.00     0.150 C 
BRANCH  26  30
ATOM     30  C   UNL d   1      29.340 -14.159   8.579  0.00  0.00     0.230 C 
ATOM     31  C   UNL d   1      28.532 -12.906   8.847  0.00  0.00     0.034 C 
ENDBRANCH  26  30
ENDBRANCH   1  23
BRANCH   4  32
ATOM     32  C   UNL d   1      26.341  -8.297   2.460  0.00  0.00     0.293 C 
ATOM     33  O   UNL d   1      26.620  -7.200   2.972  0.00  0.00    -0.259 OA
BRANCH  32  34
ATOM     34  O   UNL d   1      25.505  -8.454   1.407  0.00  0.00    -0.323 OA
ATOM     35  C   UNL d   1      25.325  -7.274   0.595  0.00  0.00     0.213 C 
ENDBRANCH  32  34
ENDBRANCH   4  32
TORSDOF 8
ENDMDL
MODEL 2
REMARK VINA RESULT:    -9.288      6.029      8.740
REMARK INTER + INTRA:         -13.641
REMARK INTER:                 -11.674
REMARK INTRA:                  -1.966
REMARK CONF_INDEPENDENT:        2.386
REMARK UNBOUND:                -1.966
REMARK  8 active torsions:
REMARK  status: ('A' for Active; 'I' for Inactive)
REMARK    1  A    between atoms: C_2  and  N_3 
REMARK    2  A    between atoms: N_6  and  C_7 
REMARK    3  A    between atoms: C_10  and  C_11 
REMARK    4  A    between atoms: C_11  and  O_13 
REMARK    5  A    between atoms: C_16  and  N_17 
REMARK    6  A    between atoms: N_17  and  C_18 
REMARK    7  A    between atoms: C_18  and  N_20 
REMARK       I    between atoms: N_20  and  C_21 
REMARK    8  A    between atoms: C_21  and  C_23 
ROOT
ATOM      1  C   UNL d   1      26.160 -17.031  -0.193  0.00  0.00     0.052 A 
ATOM      2  C   UNL d   1      25.470 -18.114   0.419  0.00  0.00     0.032 A 
ATOM      3  C   UNL d   1      24.126 -18.441   0.145  0.00  0.00     0.020 A 
ATOM      4  C   UNL d   1      23.362 -17.653  -0.717  0.00  0.00     0.041 A 
ATOM      5  C   UNL d   1      23.994 -16.537  -1.309  0.00  0.00     0.043 A 
ATOM      6  C   UNL d   1      25.367 -16.169  -1.032  0.00  0.00     0.042 A 
ENDROOT
BRANCH   6   7
ATOM      7  N   UNL d   1      25.834 -14.895  -1.663  0.00  0.00    -0.234 NA
ATOM      8  H   UNL d   1      25.323 -14.144  -1.196  0.00  0.00     0.136 HD
BRANCH   7   9
ATOM      9  C   UNL d   1      25.774 -14.644  -3.039  0.00  0.00     0.157 C 
ATOM     10  S   UNL d   1      24.527 -13.703  -3.638  0.00  0.00    -0.046 SA
BRANCH   9  11
ATOM     11  N   UNL d   1      26.997 -14.935  -3.805  0.00  0.00    -0.304 N 
ATOM     12  C   UNL d   1      27.345 -14.896  -5.234  0.00  0.00     0.259 C 
ATOM     13  O   UNL d   1      26.860 -15.573  -6.143  0.00  0.00    -0.267 OA
ATOM     14  H   UNL d   1      27.772 -14.562  -3.279  0.00  0.00     0.171 HD
BRANCH  12  15
ATOM     15  C   UNL d   1      28.565 -14.394  -5.833  0.00  0.00     0.054 A 
ATOM     16  C   UNL d   1      28.470 -13.300  -6.762  0.00  0.00     0.020 A 
ATOM     17  C   UNL d   1      29.501 -13.020  -7.645  0.00  0.00     0.025 A 
ATOM     18  C   UNL d   1      30.647 -13.791  -7.555  0.00  0.00     0.035 A 
ATOM     19 CL   UNL d   1      32.040 -13.318  -8.432  0.00  0.00    -0.084 Cl
ATOM     20  C   UNL d   1      30.708 -14.912  -6.717  0.00  0.00     0.048 A 
ATOM     21  C   UNL d   1      29.653 -15.241  -5.881  0.00  0.00     0.051 A 
ATOM     22 CL   UNL d   1      29.711 -16.731  -5.013  0.00  0.00    -0.083 Cl
ENDBRANCH  12  15
ENDBRANCH   9  11
ENDBRANCH   7   9
ENDBRANCH   6   7
BRANCH   1  23
ATOM     23  N   UNL d   1      27.524 -16.929   0.069  0.00  0.00    -0.376 N 
ATOM     24  C   UNL d   1      28.091 -15.882   0.883  0.00  0.00     0.150 C 
ATOM     25  C   UNL d   1      29.116 -15.126   0.049  0.00  0.00     0.254 C 
ATOM     26  N   UNL d   1      30.106 -15.789  -0.961  0.00  0.00    -0.068 N 
ATOM     27  C   UNL d   1      29.497 -17.076  -1.528  0.00  0.00     0.254 C 
ATOM     28  H   UNL d   1      30.940 -15.950  -0.394  0.00  0.00     0.280 HD
ATOM     29  C   UNL d   1      28.567 -17.806  -0.520  0.00  0.00     0.150 C 
BRANCH  26  30
ATOM     30  C   UNL d   1      30.629 -14.914  -2.175  0.00  0.00     0.230 C 
ATOM     31  C   UNL d   1      29.815 -13.652  -2.371  0.00  0.00     0.034 C 
ENDBRANCH  26  30
ENDBRANCH   1  23
BRANCH   4  32
ATOM     32  C   UNL d   1      21.902 -17.995  -0.876  0.00  0.00     0.293 C 
ATOM     33  O   UNL d   1      21.026 -17.121  -0.991  0.00  0.00    -0.259 OA
BRANCH  32  34
ATOM     34  O   UNL d   1      21.662 -19.325  -0.938  0.00  0.00    -0.323 OA
ATOM     35  C   UNL d   1      20.312 -19.713  -0.606  0.00  0.00     0.213 C 
ENDBRANCH  32  34
ENDBRANCH   4  32
TORSDOF 8
ENDMDL
MODEL 3
REMARK VINA RESULT:    -9.083      3.958      8.593
REMARK INTER + INTRA:         -12.974
REMARK INTER:                 -11.470
REMARK INTRA:                  -1.504
REMARK CONF_INDEPENDENT:        2.386
REMARK UNBOUND:                -1.504
REMARK  8 active torsions:
REMARK  status: ('A' for Active; 'I' for Inactive)
REMARK    1  A    between atoms: C_2  and  N_3 
REMARK    2  A    between atoms: N_6  and  C_7 
REMARK    3  A    between atoms: C_10  and  C_11 
REMARK    4  A    between atoms: C_11  and  O_13 
REMARK    5  A    between atoms: C_16  and  N_17 
REMARK    6  A    between atoms: N_17  and  C_18 
REMARK    7  A    between atoms: C_18  and  N_20 
REMARK       I    between atoms: N_20  and  C_21 
REMARK    8  A    between atoms: C_21  and  C_23 
ROOT
ATOM      1  C   UNL d   1      25.534 -16.369  -1.576  0.00  0.00     0.052 A 
ATOM      2  C   UNL d   1      24.920 -15.552  -2.567  0.00  0.00     0.032 A 
ATOM      3  C   UNL d   1      25.615 -14.993  -3.660  0.00  0.00     0.020 A 
ATOM      4  C   UNL d   1      26.994 -15.165  -3.791  0.00  0.00     0.041 A 
ATOM      5  C   UNL d   1      27.651 -15.929  -2.802  0.00  0.00     0.043 A 
ATOM      6  C   UNL d   1      26.966 -16.499  -1.661  0.00  0.00     0.042 A 
ENDROOT
BRANCH   6   7
ATOM      7  N   UNL d   1      27.841 -17.182  -0.658  0.00  0.00    -0.234 NA
ATOM      8  H   UNL d   1      27.430 -16.988   0.257  0.00  0.00     0.136 HD
BRANCH   7   9
ATOM      9  C   UNL d   1      29.219 -16.956  -0.549  0.00  0.00     0.157 C 
ATOM     10  S   UNL d   1      30.230 -17.525  -1.755  0.00  0.00    -0.046 SA
BRANCH   9  11
ATOM     11  N   UNL d   1      29.634 -15.942   0.432  0.00  0.00    -0.304 N 
ATOM     12  C   UNL d   1      29.141 -14.604   0.794  0.00  0.00     0.259 C 
ATOM     13  O   UNL d   1      29.103 -13.599   0.079  0.00  0.00    -0.267 OA
ATOM     14  H   UNL d   1      29.875 -16.432   1.281  0.00  0.00     0.171 HD
BRANCH  12  15
ATOM     15  C   UNL d   1      28.986 -14.048   2.123  0.00  0.00     0.054 A 
ATOM     16  C   UNL d   1      29.918 -14.450   3.144  0.00  0.00     0.020 A 
ATOM     17  C   UNL d   1      29.625 -14.276   4.488  0.00  0.00     0.025 A 
ATOM     18  C   UNL d   1      28.433 -13.647   4.807  0.00  0.00     0.035 A 
ATOM     19 CL   UNL d   1      28.151 -13.171   6.427  0.00  0.00    -0.084 Cl
ATOM     20  C   UNL d   1      27.486 -13.339   3.822  0.00  0.00     0.048 A 
ATOM     21  C   UNL d   1      27.742 -13.572   2.481  0.00  0.00     0.051 A 
ATOM     22 CL   UNL d   1      26.470 -13.346   1.337  0.00  0.00    -0.083 Cl
ENDBRANCH  12  15
ENDBRANCH   9  11
ENDBRANCH   7   9
ENDBRANCH   6   7
BRANCH   1  23
ATOM     23  N   UNL d   1      24.687 -16.966  -0.645  0.00  0.00    -0.376 N 
ATOM     24  C   UNL d   1      24.901 -18.295  -0.128  0.00  0.00     0.150 C 
ATOM     25  C   UNL d   1      23.670 -19.135  -0.438  0.00  0.00     0.254 C 
ATOM     26  N   UNL d   1      22.198 -18.622  -0.354  0.00  0.00    -0.068 N 
ATOM     27  C   UNL d   1      22.149 -17.114  -0.624  0.00  0.00     0.254 C 
ATOM     28  H   UNL d   1      21.919 -18.873   0.596  0.00  0.00     0.280 HD
ATOM     29  C   UNL d   1      23.425 -16.367  -0.144  0.00  0.00     0.150 C 
BRANCH  26  30
ATOM     30  C   UNL d   1      21.110 -19.322  -1.271  0.00  0.00     0.230 C 
ATOM     31  C   UNL d   1      19.700 -19.110  -0.760  0.00  0.00     0.034 C 
ENDBRANCH  26  30
ENDBRANCH   1  23
BRANCH   4  32
ATOM     32  C   UNL d   1      27.688 -14.448  -4.922  0.00  0.00     0.293 C 
ATOM     33  O   UNL d   1      28.096 -13.280  -4.813  0.00  0.00    -0.259 OA
BRANCH  32  34
ATOM     34  O   UNL d   1      27.866 -15.216  -6.022  0.00  0.00    -0.323 OA
ATOM     35  C   UNL d   1      29.201 -15.187  -6.572  0.00  0.00     0.213 C 
ENDBRANCH  32  34
ENDBRANCH   4  32
TORSDOF 8
ENDMDL
MODEL 4
REMARK VINA RESULT:    -8.923      1.944      2.483
REMARK INTER + INTRA:         -12.930
REMARK INTER:                 -11.309
REMARK INTRA:                  -1.622
REMARK CONF_INDEPENDENT:        2.386
REMARK UNBOUND:                -1.622
REMARK  8 active torsions:
REMARK  status: ('A' for Active; 'I' for Inactive)
REMARK    1  A    between atoms: C_2  and  N_3 
REMARK    2  A    between atoms: N_6  and  C_7 
REMARK    3  A    between atoms: C_10  and  C_11 
REMARK    4  A    between atoms: C_11  and  O_13 
REMARK    5  A    between atoms: C_16  and  N_17 
REMARK    6  A    between atoms: N_17  and  C_18 
REMARK    7  A    between atoms: C_18  and  N_20 
REMARK       I    between atoms: N_20  and  C_21 
REMARK    8  A    between atoms: C_21  and  C_23 
ROOT
ATOM      1  C   UNL d   1      27.946 -11.849   1.842  0.00  0.00     0.052 A 
ATOM      2  C   UNL d   1      27.226 -11.248   2.913  0.00  0.00     0.032 A 
ATOM      3  C   UNL d   1      26.461 -10.070   2.778  0.00  0.00     0.020 A 
ATOM      4  C   UNL d   1      26.426  -9.379   1.566  0.00  0.00     0.041 A 
ATOM      5  C   UNL d   1      27.167  -9.914   0.490  0.00  0.00     0.043 A 
ATOM      6  C   UNL d   1      27.973 -11.112   0.606  0.00  0.00     0.042 A 
ENDROOT
BRANCH   6   7
ATOM      7  N   UNL d   1      28.776 -11.468  -0.605  0.00  0.00    -0.234 NA
ATOM      8  H   UNL d   1      28.381 -10.930  -1.378  0.00  0.00     0.136 HD
BRANCH   7   9
ATOM      9  C   UNL d   1      28.949 -12.781  -1.061  0.00  0.00     0.157 C 
ATOM     10  S   UNL d   1      30.439 -13.518  -0.865  0.00  0.00    -0.046 SA
BRANCH   9  11
ATOM     11  N   UNL d   1      27.719 -13.530  -1.363  0.00  0.00    -0.304 N 
ATOM     12  C   UNL d   1      27.409 -14.955  -1.558  0.00  0.00     0.259 C 
ATOM     13  O   UNL d   1      27.836 -15.702  -2.442  0.00  0.00    -0.267 OA
ATOM     14  H   UNL d   1      26.978 -13.116  -0.818  0.00  0.00     0.171 HD
BRANCH  12  15
ATOM     15  C   UNL d   1      26.265 -15.687  -1.054  0.00  0.00     0.054 A 
ATOM     16  C   UNL d   1      26.502 -16.817  -0.194  0.00  0.00     0.020 A 
ATOM     17  C   UNL d   1      25.522 -17.775   0.015  0.00  0.00     0.025 A 
ATOM     18  C   UNL d   1      24.290 -17.571  -0.584  0.00  0.00     0.035 A 
ATOM     19 CL   UNL d   1      22.974 -18.575  -0.145  0.00  0.00    -0.084 Cl
ATOM     20  C   UNL d   1      24.085 -16.525  -1.493  0.00  0.00     0.048 A 
ATOM     21  C   UNL d   1      25.083 -15.601  -1.760  0.00  0.00     0.051 A 
ATOM     22 CL   UNL d   1      24.837 -14.450  -3.022  0.00  0.00    -0.083 Cl
ENDBRANCH  12  15
ENDBRANCH   9  11
ENDBRANCH   7   9
ENDBRANCH   6   7
BRANCH   1  23
ATOM     23  N   UNL d   1      28.529 -13.088   2.098  0.00  0.00    -0.376 N 
ATOM     24  C   UNL d   1      27.760 -14.280   2.353  0.00  0.00     0.150 C 
ATOM     25  C   UNL d   1      28.155 -14.825   3.718  0.00  0.00     0.254 C 
ATOM     26  N   UNL d   1      29.612 -14.845   4.280  0.00  0.00    -0.068 N 
ATOM     27  C   UNL d   1      30.423 -13.690   3.683  0.00  0.00     0.254 C 
ATOM     28  H   UNL d   1      29.954 -15.767   4.004  0.00  0.00     0.280 HD
ATOM     29  C   UNL d   1      29.988 -13.323   2.237  0.00  0.00     0.150 C 
BRANCH  26  30
ATOM     30  C   UNL d   1      29.804 -14.821   5.854  0.00  0.00     0.230 C 
ATOM     31  C   UNL d   1      28.862 -13.851   6.536  0.00  0.00     0.034 C 
ENDBRANCH  26  30
ENDBRANCH   1  23
BRANCH   4  32
ATOM     32  C   UNL d   1      25.680  -8.069   1.524  0.00  0.00     0.293 C 
ATOM     33  O   UNL d   1      25.921  -7.144   2.318  0.00  0.00    -0.259 OA
BRANCH  32  34
ATOM     34  O   UNL d   1      24.780  -7.990   0.516  0.00  0.00    -0.323 OA
ATOM     35  C   UNL d   1      25.061  -6.972  -0.468  0.00  0.00     0.213 C 
ENDBRANCH  32  34
ENDBRANCH   4  32
TORSDOF 8
ENDMDL
MODEL 5
REMARK VINA RESULT:    -8.762      6.104      8.650
REMARK INTER + INTRA:         -13.399
REMARK INTER:                 -11.148
REMARK INTRA:                  -2.250
REMARK CONF_INDEPENDENT:        2.386
REMARK UNBOUND:                -2.250
REMARK  8 active torsions:
REMARK  status: ('A' for Active; 'I' for Inactive)
REMARK    1  A    between atoms: C_2  and  N_3 
REMARK    2  A    between atoms: N_6  and  C_7 
REMARK    3  A    between atoms: C_10  and  C_11 
REMARK    4  A    between atoms: C_11  and  O_13 
REMARK    5  A    between atoms: C_16  and  N_17 
REMARK    6  A    between atoms: N_17  and  C_18 
REMARK    7  A    between atoms: C_18  and  N_20 
REMARK       I    between atoms: N_20  and  C_21 
REMARK    8  A    between atoms: C_21  and  C_23 
ROOT
ATOM      1  C   UNL d   1      25.852 -17.104  -0.130  0.00  0.00     0.052 A 
ATOM      2  C   UNL d   1      25.191 -18.195   0.501  0.00  0.00     0.032 A 
ATOM      3  C   UNL d   1      23.869 -18.587   0.203  0.00  0.00     0.020 A 
ATOM      4  C   UNL d   1      23.099 -17.863  -0.707  0.00  0.00     0.041 A 
ATOM      5  C   UNL d   1      23.701 -16.742  -1.321  0.00  0.00     0.043 A 
ATOM      6  C   UNL d   1      25.049 -16.307  -1.020  0.00  0.00     0.042 A 
ENDROOT
BRANCH   6   7
ATOM      7  N   UNL d   1      25.480 -15.036  -1.683  0.00  0.00    -0.234 NA
ATOM      8  H   UNL d   1      24.850 -14.309  -1.340  0.00  0.00     0.136 HD
BRANCH   7   9
ATOM      9  C   UNL d   1      25.576 -14.880  -3.071  0.00  0.00     0.157 C 
ATOM     10  S   UNL d   1      24.697 -13.664  -3.812  0.00  0.00    -0.046 SA
BRANCH   9  11
ATOM     11  N   UNL d   1      26.700 -15.568  -3.725  0.00  0.00    -0.304 N 
ATOM     12  C   UNL d   1      27.380 -15.416  -5.021  0.00  0.00     0.259 C 
ATOM     13  O   UNL d   1      26.898 -15.574  -6.145  0.00  0.00    -0.267 OA
ATOM     14  H   UNL d   1      27.399 -15.733  -3.017  0.00  0.00     0.171 HD
BRANCH  12  15
ATOM     15  C   UNL d   1      28.804 -15.462  -5.282  0.00  0.00     0.054 A 
ATOM     16  C   UNL d   1      29.570 -16.539  -4.711  0.00  0.00     0.020 A 
ATOM     17  C   UNL d   1      30.948 -16.452  -4.591  0.00  0.00     0.025 A 
ATOM     18  C   UNL d   1      31.564 -15.320  -5.098  0.00  0.00     0.035 A 
ATOM     19 CL   UNL d   1      33.272 -15.284  -5.216  0.00  0.00    -0.084 Cl
ATOM     20  C   UNL d   1      30.817 -14.233  -5.570  0.00  0.00     0.048 A 
ATOM     21  C   UNL d   1      29.433 -14.284  -5.629  0.00  0.00     0.051 A 
ATOM     22 CL   UNL d   1      28.563 -12.853  -6.042  0.00  0.00    -0.083 Cl
ENDBRANCH  12  15
ENDBRANCH   9  11
ENDBRANCH   7   9
ENDBRANCH   6   7
BRANCH   1  23
ATOM     23  N   UNL d   1      27.203 -16.936   0.166  0.00  0.00    -0.376 N 
ATOM     24  C   UNL d   1      27.682 -15.964   1.117  0.00  0.00     0.150 C 
ATOM     25  C   UNL d   1      28.652 -15.031   0.404  0.00  0.00     0.254 C 
ATOM     26  N   UNL d   1      29.697 -15.482  -0.665  0.00  0.00    -0.068 N 
ATOM     27  C   UNL d   1      29.192 -16.727  -1.404  0.00  0.00     0.254 C 
ATOM     28  H   UNL d   1      30.537 -15.652  -0.111  0.00  0.00     0.280 HD
ATOM     29  C   UNL d   1      28.313 -17.649  -0.514  0.00  0.00     0.150 C 
BRANCH  26  30
ATOM     30  C   UNL d   1      30.160 -14.421  -1.748  0.00  0.00     0.230 C 
ATOM     31  C   UNL d   1      29.014 -13.565  -2.246  0.00  0.00     0.034 C 
ENDBRANCH  26  30
ENDBRANCH   1  23
BRANCH   4  32
ATOM     32  C   UNL d   1      21.660 -18.272  -0.895  0.00  0.00     0.293 C 
ATOM     33  O   UNL d   1      20.767 -17.450  -1.162  0.00  0.00    -0.259 OA
BRANCH  32  34
ATOM     34  O   UNL d   1      21.460 -19.607  -0.801  0.00  0.00    -0.323 OA
ATOM     35  C   UNL d   1      20.244 -19.992  -0.124  0.00  0.00     0.213 C 
ENDBRANCH  32  34
ENDBRANCH   4  32
TORSDOF 8
ENDMDL
MODEL 6
REMARK VINA RESULT:    -8.738      6.038      8.685
REMARK INTER + INTRA:         -12.724
REMARK INTER:                 -11.124
REMARK INTRA:                  -1.599
REMARK CONF_INDEPENDENT:        2.386
REMARK UNBOUND:                -1.599
REMARK  8 active torsions:
REMARK  status: ('A' for Active; 'I' for Inactive)
REMARK    1  A    between atoms: C_2  and  N_3 
REMARK    2  A    between atoms: N_6  and  C_7 
REMARK    3  A    between atoms: C_10  and  C_11 
REMARK    4  A    between atoms: C_11  and  O_13 
REMARK    5  A    between atoms: C_16  and  N_17 
REMARK    6  A    between atoms: N_17  and  C_18 
REMARK    7  A    between atoms: C_18  and  N_20 
REMARK       I    between atoms: N_20  and  C_21 
REMARK    8  A    between atoms: C_21  and  C_23 
ROOT
ATOM      1  C   UNL d   1      26.430 -16.561  -1.149  0.00  0.00     0.052 A 
ATOM      2  C   UNL d   1      26.252 -17.472  -0.070  0.00  0.00     0.032 A 
ATOM      3  C   UNL d   1      25.045 -18.155   0.187  0.00  0.00     0.020 A 
ATOM      4  C   UNL d   1      23.911 -17.914  -0.589  0.00  0.00     0.041 A 
ATOM      5  C   UNL d   1      24.030 -16.980  -1.642  0.00  0.00     0.043 A 
ATOM      6  C   UNL d   1      25.251 -16.252  -1.916  0.00  0.00     0.042 A 
ENDROOT
BRANCH   6   7
ATOM      7  N   UNL d   1      25.160 -15.223  -2.999  0.00  0.00    -0.234 NA
ATOM      8  H   UNL d   1      25.171 -15.737  -3.881  0.00  0.00     0.136 HD
BRANCH   7   9
ATOM      9  C   UNL d   1      26.057 -14.155  -3.130  0.00  0.00     0.157 C 
ATOM     10  S   UNL d   1      25.905 -12.839  -2.108  0.00  0.00    -0.046 SA
BRANCH   9  11
ATOM     11  N   UNL d   1      27.270 -14.421  -3.919  0.00  0.00    -0.304 N 
ATOM     12  C   UNL d   1      27.552 -14.538  -5.358  0.00  0.00     0.259 C 
ATOM     13  O   UNL d   1      27.105 -15.376  -6.145  0.00  0.00    -0.267 OA
ATOM     14  H   UNL d   1      28.023 -13.904  -3.489  0.00  0.00     0.171 HD
BRANCH  12  15
ATOM     15  C   UNL d   1      28.684 -14.000  -6.084  0.00  0.00     0.054 A 
ATOM     16  C   UNL d   1      28.460 -12.895  -6.978  0.00  0.00     0.020 A 
ATOM     17  C   UNL d   1      29.378 -12.578  -7.968  0.00  0.00     0.025 A 
ATOM     18  C   UNL d   1      30.543 -13.325  -8.022  0.00  0.00     0.035 A 
ATOM     19 CL   UNL d   1      31.816 -12.807  -9.044  0.00  0.00    -0.084 Cl
ATOM     20  C   UNL d   1      30.723 -14.455  -7.216  0.00  0.00     0.048 A 
ATOM     21  C   UNL d   1      29.778 -14.820  -6.270  0.00  0.00     0.051 A 
ATOM     22 CL   UNL d   1      29.966 -16.320  -5.439  0.00  0.00    -0.083 Cl
ENDBRANCH  12  15
ENDBRANCH   9  11
ENDBRANCH   7   9
ENDBRANCH   6   7
BRANCH   1  23
ATOM     23  N   UNL d   1      27.721 -16.082  -1.357  0.00  0.00    -0.376 N 
ATOM     24  C   UNL d   1      28.634 -16.673  -2.304  0.00  0.00     0.150 C 
ATOM     25  C   UNL d   1      29.888 -17.107  -1.558  0.00  0.00     0.254 C 
ATOM     26  N   UNL d   1      30.563 -16.298  -0.406  0.00  0.00    -0.068 N 
ATOM     27  C   UNL d   1      29.513 -15.463   0.337  0.00  0.00     0.254 C 
ATOM     28  H   UNL d   1      31.257 -15.733  -0.896  0.00  0.00     0.280 HD
ATOM     29  C   UNL d   1      28.352 -14.986  -0.580  0.00  0.00     0.150 C 
BRANCH  26  30
ATOM     30  C   UNL d   1      31.408 -17.098   0.671  0.00  0.00     0.230 C 
ATOM     31  C   UNL d   1      31.988 -16.193   1.738  0.00  0.00     0.034 C 
ENDBRANCH  26  30
ENDBRANCH   1  23
BRANCH   4  32
ATOM     32  C   UNL d   1      22.626 -18.595  -0.189  0.00  0.00     0.293 C 
ATOM     33  O   UNL d   1      22.203 -18.576   0.978  0.00  0.00    -0.259 OA
BRANCH  32  34
ATOM     34  O   UNL d   1      21.970 -19.165  -1.227  0.00  0.00    -0.323 OA
ATOM     35  C   UNL d   1      20.549 -19.327  -1.030  0.00  0.00     0.213 C 
ENDBRANCH  32  34
ENDBRANCH   4  32
TORSDOF 8
ENDMDL
MODEL 7
REMARK VINA RESULT:    -8.370      3.722      5.712
REMARK INTER + INTRA:         -12.677
REMARK INTER:                 -10.756
REMARK INTRA:                  -1.921
REMARK CONF_INDEPENDENT:        2.386
REMARK UNBOUND:                -1.921
REMARK  8 active torsions:
REMARK  status: ('A' for Active; 'I' for Inactive)
REMARK    1  A    between atoms: C_2  and  N_3 
REMARK    2  A    between atoms: N_6  and  C_7 
REMARK    3  A    between atoms: C_10  and  C_11 
REMARK    4  A    between atoms: C_11  and  O_13 
REMARK    5  A    between atoms: C_16  and  N_17 
REMARK    6  A    between atoms: N_17  and  C_18 
REMARK    7  A    between atoms: C_18  and  N_20 
REMARK       I    between atoms: N_20  and  C_21 
REMARK    8  A    between atoms: C_21  and  C_23 
ROOT
ATOM      1  C   UNL d   1      30.875 -14.959  -0.524  0.00  0.00     0.052 A 
ATOM      2  C   UNL d   1      31.693 -15.038  -1.686  0.00  0.00     0.032 A 
ATOM      3  C   UNL d   1      31.188 -15.261  -2.985  0.00  0.00     0.020 A 
ATOM      4  C   UNL d   1      29.827 -15.487  -3.191  0.00  0.00     0.041 A 
ATOM      5  C   UNL d   1      28.985 -15.465  -2.057  0.00  0.00     0.043 A 
ATOM      6  C   UNL d   1      29.479 -15.256  -0.712  0.00  0.00     0.042 A 
ENDROOT
BRANCH   6   7
ATOM      7  N   UNL d   1      28.458 -15.377   0.376  0.00  0.00    -0.234 NA
ATOM      8  H   UNL d   1      28.060 -16.313   0.289  0.00  0.00     0.136 HD
BRANCH   7   9
ATOM      9  C   UNL d   1      27.390 -14.485   0.539  0.00  0.00     0.157 C 
ATOM     10  S   UNL d   1      27.716 -12.901   0.966  0.00  0.00    -0.046 SA
BRANCH   9  11
ATOM     11  N   UNL d   1      26.096 -14.916  -0.012  0.00  0.00    -0.304 N 
ATOM     12  C   UNL d   1      25.695 -15.851  -1.075  0.00  0.00     0.259 C 
ATOM     13  O   UNL d   1      25.949 -15.772  -2.280  0.00  0.00    -0.267 OA
ATOM     14  H   UNL d   1      25.466 -15.033   0.767  0.00  0.00     0.171 HD
BRANCH  12  15
ATOM     15  C   UNL d   1      24.609 -16.809  -1.047  0.00  0.00     0.054 A 
ATOM     16  C   UNL d   1      23.270 -16.330  -1.268  0.00  0.00     0.020 A 
ATOM     17  C   UNL d   1      22.169 -17.082  -0.889  0.00  0.00     0.025 A 
ATOM     18  C   UNL d   1      22.406 -18.335  -0.349  0.00  0.00     0.035 A 
ATOM     19 CL   UNL d   1      21.089 -19.404  -0.116  0.00  0.00    -0.084 Cl
ATOM     20  C   UNL d   1      23.705 -18.766  -0.049  0.00  0.00     0.048 A 
ATOM     21  C   UNL d   1      24.809 -17.989  -0.362  0.00  0.00     0.051 A 
ATOM     22 CL   UNL d   1      26.363 -18.486   0.198  0.00  0.00    -0.083 Cl
ENDBRANCH  12  15
ENDBRANCH   9  11
ENDBRANCH   7   9
ENDBRANCH   6   7
BRANCH   1  23
ATOM     23  N   UNL d   1      31.506 -14.587   0.661  0.00  0.00    -0.376 N 
ATOM     24  C   UNL d   1      32.303 -15.498   1.444  0.00  0.00     0.150 C 
ATOM     25  C   UNL d   1      31.710 -15.574   2.844  0.00  0.00     0.254 C 
ATOM     26  N   UNL d   1      31.128 -14.357   3.632  0.00  0.00    -0.068 N 
ATOM     27  C   UNL d   1      30.584 -13.308   2.655  0.00  0.00     0.254 C 
ATOM     28  H   UNL d   1      31.928 -14.030   4.175  0.00  0.00     0.280 HD
ATOM     29  C   UNL d   1      31.366 -13.261   1.313  0.00  0.00     0.150 C 
BRANCH  26  30
ATOM     30  C   UNL d   1      30.013 -14.640   4.723  0.00  0.00     0.230 C 
ATOM     31  C   UNL d   1      28.670 -14.054   4.341  0.00  0.00     0.034 C 
ENDBRANCH  26  30
ENDBRANCH   1  23
BRANCH   4  32
ATOM     32  C   UNL d   1      29.374 -15.828  -4.588  0.00  0.00     0.293 C 
ATOM     33  O   UNL d   1      28.172 -15.933  -4.887  0.00  0.00    -0.259 OA
BRANCH  32  34
ATOM     34  O   UNL d   1      30.390 -15.948  -5.473  0.00  0.00    -0.323 OA
ATOM     35  C   UNL d   1      30.022 -15.733  -6.852  0.00  0.00     0.213 C 
ENDBRANCH  32  34
ENDBRANCH   4  32
TORSDOF 8
ENDMDL
MODEL 8
REMARK VINA RESULT:    -8.222      5.240      7.977
REMARK INTER + INTRA:         -13.010
REMARK INTER:                 -10.609
REMARK INTRA:                  -2.402
REMARK CONF_INDEPENDENT:        2.386
REMARK UNBOUND:                -2.402
REMARK  8 active torsions:
REMARK  status: ('A' for Active; 'I' for Inactive)
REMARK    1  A    between atoms: C_2  and  N_3 
REMARK    2  A    between atoms: N_6  and  C_7 
REMARK    3  A    between atoms: C_10  and  C_11 
REMARK    4  A    between atoms: C_11  and  O_13 
REMARK    5  A    between atoms: C_16  and  N_17 
REMARK    6  A    between atoms: N_17  and  C_18 
REMARK    7  A    between atoms: C_18  and  N_20 
REMARK       I    between atoms: N_20  and  C_21 
REMARK    8  A    between atoms: C_21  and  C_23 
ROOT
ATOM      1  C   UNL d   1      26.196 -16.407  -0.849  0.00  0.00     0.052 A 
ATOM      2  C   UNL d   1      25.999 -17.507   0.032  0.00  0.00     0.032 A 
ATOM      3  C   UNL d   1      24.778 -18.202   0.157  0.00  0.00     0.020 A 
ATOM      4  C   UNL d   1      23.648 -17.790  -0.552  0.00  0.00     0.041 A 
ATOM      5  C   UNL d   1      23.786 -16.671  -1.402  0.00  0.00     0.043 A 
ATOM      6  C   UNL d   1      25.023 -15.929  -1.535  0.00  0.00     0.042 A 
ENDROOT
BRANCH   6   7
ATOM      7  N   UNL d   1      24.953 -14.706  -2.395  0.00  0.00    -0.234 NA
ATOM      8  H   UNL d   1      23.960 -14.496  -2.510  0.00  0.00     0.136 HD
BRANCH   7   9
ATOM      9  C   UNL d   1      25.546 -14.614  -3.660  0.00  0.00     0.157 C 
ATOM     10  S   UNL d   1      25.155 -13.319  -4.645  0.00  0.00    -0.046 SA
BRANCH   9  11
ATOM     11  N   UNL d   1      26.722 -15.468  -3.889  0.00  0.00    -0.304 N 
ATOM     12  C   UNL d   1      27.904 -15.372  -4.759  0.00  0.00     0.259 C 
ATOM     13  O   UNL d   1      27.930 -15.358  -5.993  0.00  0.00    -0.267 OA
ATOM     14  H   UNL d   1      27.018 -15.813  -2.989  0.00  0.00     0.171 HD
BRANCH  12  15
ATOM     15  C   UNL d   1      29.278 -15.683  -4.421  0.00  0.00     0.054 A 
ATOM     16  C   UNL d   1      29.655 -17.066  -4.298  0.00  0.00     0.020 A 
ATOM     17  C   UNL d   1      30.808 -17.437  -3.624  0.00  0.00     0.025 A 
ATOM     18  C   UNL d   1      31.613 -16.424  -3.130  0.00  0.00     0.035 A 
ATOM     19 CL   UNL d   1      33.169 -16.815  -2.530  0.00  0.00    -0.084 Cl
ATOM     20  C   UNL d   1      31.205 -15.084  -3.166  0.00  0.00     0.048 A 
ATOM     21  C   UNL d   1      30.018 -14.712  -3.778  0.00  0.00     0.051 A 
ATOM     22 CL   UNL d   1      29.480 -13.080  -3.629  0.00  0.00    -0.083 Cl
ENDBRANCH  12  15
ENDBRANCH   9  11
ENDBRANCH   7   9
ENDBRANCH   6   7
BRANCH   1  23
ATOM     23  N   UNL d   1      27.497 -15.923  -0.966  0.00  0.00    -0.376 N 
ATOM     24  C   UNL d   1      28.659 -16.775  -0.909  0.00  0.00     0.150 C 
ATOM     25  C   UNL d   1      29.549 -16.299   0.230  0.00  0.00     0.254 C 
ATOM     26  N   UNL d   1      29.808 -14.802   0.590  0.00  0.00    -0.068 N 
ATOM     27  C   UNL d   1      28.601 -13.946   0.190  0.00  0.00     0.254 C 
ATOM     28  H   UNL d   1      30.655 -14.580   0.064  0.00  0.00     0.280 HD
ATOM     29  C   UNL d   1      27.860 -14.488  -1.065  0.00  0.00     0.150 C 
BRANCH  26  30
ATOM     30  C   UNL d   1      30.185 -14.450   2.090  0.00  0.00     0.230 C 
ATOM     31  C   UNL d   1      28.966 -14.343   2.982  0.00  0.00     0.034 C 
ENDBRANCH  26  30
ENDBRANCH   1  23
BRANCH   4  32
ATOM     32  C   UNL d   1      22.350 -18.509  -0.287  0.00  0.00     0.293 C 
ATOM     33  O   UNL d   1      21.850 -18.575   0.849  0.00  0.00    -0.259 OA
BRANCH  32  34
ATOM     34  O   UNL d   1      21.772 -19.014  -1.402  0.00  0.00    -0.323 OA
ATOM     35  C   UNL d   1      20.369 -19.325  -1.270  0.00  0.00     0.213 C 
ENDBRANCH  32  34
ENDBRANCH   4  32
TORSDOF 8
ENDMDL
MODEL 9
REMARK VINA RESULT:    -8.027      3.430      5.934
REMARK INTER + INTRA:         -12.794
REMARK INTER:                 -10.413
REMARK INTRA:                  -2.381
REMARK CONF_INDEPENDENT:        2.386
REMARK UNBOUND:                -2.381
REMARK  8 active torsions:
REMARK  status: ('A' for Active; 'I' for Inactive)
REMARK    1  A    between atoms: C_2  and  N_3 
REMARK    2  A    between atoms: N_6  and  C_7 
REMARK    3  A    between atoms: C_10  and  C_11 
REMARK    4  A    between atoms: C_11  and  O_13 
REMARK    5  A    between atoms: C_16  and  N_17 
REMARK    6  A    between atoms: N_17  and  C_18 
REMARK    7  A    between atoms: C_18  and  N_20 
REMARK       I    between atoms: N_20  and  C_21 
REMARK    8  A    between atoms: C_21  and  C_23 
ROOT
ATOM      1  C   UNL d   1      28.599 -13.737  -1.549  0.00  0.00     0.052 A 
ATOM      2  C   UNL d   1      27.927 -12.940  -2.518  0.00  0.00     0.032 A 
ATOM      3  C   UNL d   1      27.452 -13.439  -3.748  0.00  0.00     0.020 A 
ATOM      4  C   UNL d   1      27.683 -14.765  -4.117  0.00  0.00     0.041 A 
ATOM      5  C   UNL d   1      28.390 -15.580  -3.205  0.00  0.00     0.043 A 
ATOM      6  C   UNL d   1      28.903 -15.089  -1.943  0.00  0.00     0.042 A 
ENDROOT
BRANCH   6   7
ATOM      7  N   UNL d   1      29.723 -16.063  -1.157  0.00  0.00    -0.234 NA
ATOM      8  H   UNL d   1      30.623 -16.127  -1.634  0.00  0.00     0.136 HD
BRANCH   7   9
ATOM      9  C   UNL d   1      29.310 -17.371  -0.873  0.00  0.00     0.157 C 
ATOM     10  S   UNL d   1      30.424 -18.615  -0.987  0.00  0.00    -0.046 SA
BRANCH   9  11
ATOM     11  N   UNL d   1      28.028 -17.507  -0.165  0.00  0.00    -0.304 N 
ATOM     12  C   UNL d   1      26.877 -16.616   0.052  0.00  0.00     0.259 C 
ATOM     13  O   UNL d   1      26.864 -15.542   0.658  0.00  0.00    -0.267 OA
ATOM     14  H   UNL d   1      27.679 -18.434  -0.357  0.00  0.00     0.171 HD
BRANCH  12  15
ATOM     15  C   UNL d   1      25.471 -16.956  -0.014  0.00  0.00     0.054 A 
ATOM     16  C   UNL d   1      25.041 -18.199   0.571  0.00  0.00     0.020 A 
ATOM     17  C   UNL d   1      23.824 -18.768   0.229  0.00  0.00     0.025 A 
ATOM     18  C   UNL d   1      23.014 -18.065  -0.648  0.00  0.00     0.035 A 
ATOM     19 CL   UNL d   1      21.402 -18.589  -0.892  0.00  0.00    -0.084 Cl
ATOM     20  C   UNL d   1      23.467 -16.905  -1.288  0.00  0.00     0.048 A 
ATOM     21  C   UNL d   1      24.711 -16.366  -1.003  0.00  0.00     0.051 A 
ATOM     22 CL   UNL d   1      25.287 -15.048  -1.955  0.00  0.00    -0.083 Cl
ENDBRANCH  12  15
ENDBRANCH   9  11
ENDBRANCH   7   9
ENDBRANCH   6   7
BRANCH   1  23
ATOM     23  N   UNL d   1      28.874 -13.134  -0.324  0.00  0.00    -0.376 N 
ATOM     24  C   UNL d   1      30.132 -13.292   0.364  0.00  0.00     0.150 C 
ATOM     25  C   UNL d   1      29.857 -13.880   1.740  0.00  0.00     0.254 C 
ATOM     26  N   UNL d   1      28.650 -13.490   2.651  0.00  0.00    -0.068 N 
ATOM     27  C   UNL d   1      27.464 -13.042   1.789  0.00  0.00     0.254 C 
ATOM     28  H   UNL d   1      29.032 -12.745   3.235  0.00  0.00     0.280 HD
ATOM     29  C   UNL d   1      27.898 -12.346   0.469  0.00  0.00     0.150 C 
BRANCH  26  30
ATOM     30  C   UNL d   1      28.124 -14.564   3.693  0.00  0.00     0.230 C 
ATOM     31  C   UNL d   1      28.683 -14.340   5.083  0.00  0.00     0.034 C 
ENDBRANCH  26  30
ENDBRANCH   1  23
BRANCH   4  32
ATOM     32  C   UNL d   1      27.245 -15.200  -5.492  0.00  0.00     0.293 C 
ATOM     33  O   UNL d   1      26.084 -15.571  -5.731  0.00  0.00    -0.259 OA
BRANCH  32  34
ATOM     34  O   UNL d   1      28.215 -15.091  -6.429  0.00  0.00    -0.323 OA
ATOM     35  C   UNL d   1      28.517 -13.738  -6.834  0.00  0.00     0.213 C 
ENDBRANCH  32  34
ENDBRANCH   4  32
TORSDOF 8
ENDMDL
