MODEL 1
REMARK VINA RESULT:   -31.825      0.000      0.000
REMARK INTER + INTRA:         -35.229
REMARK INTER:                 -34.510
REMARK INTRA:                  -0.719
REMARK CONF_INDEPENDENT:        2.685
REMARK UNBOUND:                -0.719
REMARK  9 active torsions:
REMARK  status: ('A' for Active; 'I' for Inactive)
REMARK    1  A    between atoms: C_3  and  C_2 
REMARK    2  A    between atoms: C_3  and  O_5 
REMARK    3  A    between atoms: O_5  and  C_6 
REMARK    4  A    between atoms: C_10  and  N_11 
REMARK       I    between atoms: N_11  and  C_12 
REMARK       I    between atoms: C_12  and  N_14 
REMARK    5  A    between atoms: N_14  and  C_15 
REMARK    6  A    between atoms: C_15  and  C_16 
REMARK    7  A    between atoms: C_16  and  C_17 
REMARK    8  A    between atoms: C_17  and  C_18 
REMARK    9  A    between atoms: C_21  and  N_22 
ROOT
ATOM      1  C   UNL d   1      20.511 -19.301   0.060  0.00  0.00     0.079 A 
ATOM      2  N   UNL d   1      19.897 -19.325  -1.134  0.00  0.00    -0.176 NA
ATOM      3  N   UNL d   1      18.774 -20.030  -0.907  0.00  0.00    -0.261 N 
ATOM      4  C   UNL d   1      18.660 -20.481   0.381  0.00  0.00     0.138 A 
ATOM      5  C   UNL d   1      19.794 -20.046   1.022  0.00  0.00     0.115 A 
ATOM      6  C   UNL d   1      20.150 -20.274   2.393  0.00  0.00     0.105 C 
ATOM      7  N   UNL d   1      20.447 -20.452   3.483  0.00  0.00    -0.191 NA
ATOM      8  H   UNL d   1      18.119 -20.156  -1.669  0.00  0.00     0.191 HD
ENDROOT
BRANCH   4   9
ATOM      9  N   UNL d   1      17.592 -21.186   0.798  0.00  0.00    -0.383 N 
ATOM     10  H   UNL d   1      17.348 -22.114   0.464  0.00  0.00     0.157 HD
ATOM     11  H   UNL d   1      16.930 -20.801   1.472  0.00  0.00     0.157 HD
ENDBRANCH   4   9
BRANCH   1  12
ATOM     12  C   UNL d   1      21.766 -18.508   0.263  0.00  0.00     0.064 C 
BRANCH  12  13
ATOM     13  C   UNL d   1      22.943 -19.145  -0.489  0.00  0.00     0.026 C 
BRANCH  13  14
ATOM     14  C   UNL d   1      24.139 -18.230  -0.636  0.00  0.00     0.125 C 
BRANCH  14  15
ATOM     15  N   UNL d   1      23.773 -16.870  -1.162  0.00  0.00    -0.343 N 
ATOM     16  C   UNL d   1      24.764 -16.212  -1.864  0.00  0.00     0.320 C 
ATOM     17  N   UNL d   1      24.460 -15.043  -2.565  0.00  0.00    -0.309 N 
ATOM     18  O   UNL d   1      25.863 -16.733  -1.770  0.00  0.00    -0.247 OA
ATOM     19  H   UNL d   1      23.758 -14.465  -2.131  0.00  0.00     0.170 HD
ATOM     20  H   UNL d   1      23.178 -16.308  -0.569  0.00  0.00     0.164 HD
BRANCH  17  21
ATOM     21  C   UNL d   1      25.314 -14.345  -3.550  0.00  0.00     0.039 C 
ATOM     22  C   UNL d   1      25.230 -13.004  -3.860  0.00  0.00     0.030 C 
ATOM     23  C   UNL d   1      26.085 -12.439  -4.872  0.00  0.00     0.005 C 
ATOM     24  C   UNL d   1      27.025 -13.201  -5.623  0.00  0.00     0.037 C 
ATOM     25  C   UNL d   1      27.132 -14.537  -5.345  0.00  0.00     0.071 C 
ATOM     26  C   UNL d   1      26.205 -14.983  -4.411  0.00  0.00     0.066 C 
BRANCH  25  27
ATOM     27  O   UNL d   1      28.033 -15.390  -5.939  0.00  0.00    -0.346 OA
BRANCH  27  28
ATOM     28  C   UNL d   1      29.375 -15.621  -5.392  0.00  0.00     0.124 C 
ATOM     29  C   UNL d   1      29.222 -15.884  -3.873  0.00  0.00     0.040 C 
BRANCH  28  30
ATOM     30  C   UNL d   1      30.252 -16.852  -5.752  0.00  0.00     0.027 C 
ATOM     31  C   UNL d   1      30.637 -17.184  -7.138  0.00  0.00     0.007 C 
ENDBRANCH  28  30
ENDBRANCH  27  28
ENDBRANCH  25  27
ENDBRANCH  17  21
ENDBRANCH  14  15
ENDBRANCH  13  14
ENDBRANCH  12  13
ENDBRANCH   1  12
TORSDOF 9
ENDMDL
MODEL 2
REMARK VINA RESULT:   -30.078      4.132      5.541
REMARK INTER + INTRA:         -33.427
REMARK INTER:                 -32.763
REMARK INTRA:                  -0.664
REMARK CONF_INDEPENDENT:        2.685
REMARK UNBOUND:                -0.664
REMARK  9 active torsions:
REMARK  status: ('A' for Active; 'I' for Inactive)
REMARK    1  A    between atoms: C_3  and  C_2 
REMARK    2  A    between atoms: C_3  and  O_5 
REMARK    3  A    between atoms: O_5  and  C_6 
REMARK    4  A    between atoms: C_10  and  N_11 
REMARK       I    between atoms: N_11  and  C_12 
REMARK       I    between atoms: C_12  and  N_14 
REMARK    5  A    between atoms: N_14  and  C_15 
REMARK    6  A    between atoms: C_15  and  C_16 
REMARK    7  A    between atoms: C_16  and  C_17 
REMARK    8  A    between atoms: C_17  and  C_18 
REMARK    9  A    between atoms: C_21  and  N_22 
ROOT
ATOM      1  C   UNL d   1      20.459 -19.342   0.170  0.00  0.00     0.079 A 
ATOM      2  N   UNL d   1      19.882 -19.325  -1.043  0.00  0.00    -0.176 NA
ATOM      3  N   UNL d   1      18.742 -20.019  -0.869  0.00  0.00    -0.261 N 
ATOM      4  C   UNL d   1      18.581 -20.502   0.402  0.00  0.00     0.138 A 
ATOM      5  C   UNL d   1      19.702 -20.102   1.089  0.00  0.00     0.115 A 
ATOM      6  C   UNL d   1      20.012 -20.372   2.463  0.00  0.00     0.105 C 
ATOM      7  N   UNL d   1      20.272 -20.584   3.557  0.00  0.00    -0.191 NA
ATOM      8  H   UNL d   1      18.109 -20.114  -1.654  0.00  0.00     0.191 HD
ENDROOT
BRANCH   4   9
ATOM      9  N   UNL d   1      17.491 -21.201   0.767  0.00  0.00    -0.383 N 
ATOM     10  H   UNL d   1      17.010 -21.096   1.656  0.00  0.00     0.157 HD
ATOM     11  H   UNL d   1      17.093 -21.921   0.164  0.00  0.00     0.157 HD
ENDBRANCH   4   9
BRANCH   1  12
ATOM     12  C   UNL d   1      21.719 -18.575   0.432  0.00  0.00     0.064 C 
BRANCH  12  13
ATOM     13  C   UNL d   1      22.245 -17.929  -0.857  0.00  0.00     0.026 C 
BRANCH  13  14
ATOM     14  C   UNL d   1      23.535 -18.538  -1.362  0.00  0.00     0.125 C 
BRANCH  14  15
ATOM     15  N   UNL d   1      24.507 -17.511  -1.870  0.00  0.00    -0.343 N 
ATOM     16  C   UNL d   1      25.260 -16.871  -0.906  0.00  0.00     0.320 C 
ATOM     17  N   UNL d   1      26.329 -16.056  -1.287  0.00  0.00    -0.309 N 
ATOM     18  O   UNL d   1      24.876 -17.071   0.234  0.00  0.00    -0.247 OA
ATOM     19  H   UNL d   1      26.189 -15.558  -2.152  0.00  0.00     0.170 HD
ATOM     20  H   UNL d   1      24.199 -16.957  -2.658  0.00  0.00     0.164 HD
BRANCH  17  21
ATOM     21  C   UNL d   1      27.378 -15.490  -0.410  0.00  0.00     0.039 C 
ATOM     22  C   UNL d   1      28.706 -15.353  -0.754  0.00  0.00     0.030 C 
ATOM     23  C   UNL d   1      29.650 -14.830   0.199  0.00  0.00     0.005 C 
ATOM     24  C   UNL d   1      29.302 -14.459   1.530  0.00  0.00     0.037 C 
ATOM     25  C   UNL d   1      27.992 -14.588   1.907  0.00  0.00     0.071 C 
ATOM     26  C   UNL d   1      27.193 -15.175   0.934  0.00  0.00     0.066 C 
BRANCH  25  27
ATOM     27  O   UNL d   1      27.491 -14.215   3.133  0.00  0.00    -0.346 OA
BRANCH  27  28
ATOM     28  C   UNL d   1      28.249 -13.379   4.071  0.00  0.00     0.124 C 
ATOM     29  C   UNL d   1      27.550 -13.472   5.449  0.00  0.00     0.040 C 
BRANCH  28  30
ATOM     30  C   UNL d   1      29.701 -13.692   4.526  0.00  0.00     0.027 C 
ATOM     31  C   UNL d   1      30.718 -12.644   4.741  0.00  0.00     0.007 C 
ENDBRANCH  28  30
ENDBRANCH  27  28
ENDBRANCH  25  27
ENDBRANCH  17  21
ENDBRANCH  14  15
ENDBRANCH  13  14
ENDBRANCH  12  13
ENDBRANCH   1  12
TORSDOF 9
ENDMDL
MODEL 3
REMARK VINA RESULT:   -29.467      2.436      3.553
REMARK INTER + INTRA:         -32.894
REMARK INTER:                 -32.152
REMARK INTRA:                  -0.742
REMARK CONF_INDEPENDENT:        2.685
REMARK UNBOUND:                -0.742
REMARK  9 active torsions:
REMARK  status: ('A' for Active; 'I' for Inactive)
REMARK    1  A    between atoms: C_3  and  C_2 
REMARK    2  A    between atoms: C_3  and  O_5 
REMARK    3  A    between atoms: O_5  and  C_6 
REMARK    4  A    between atoms: C_10  and  N_11 
REMARK       I    between atoms: N_11  and  C_12 
REMARK       I    between atoms: C_12  and  N_14 
REMARK    5  A    between atoms: N_14  and  C_15 
REMARK    6  A    between atoms: C_15  and  C_16 
REMARK    7  A    between atoms: C_16  and  C_17 
REMARK    8  A    between atoms: C_17  and  C_18 
REMARK    9  A    between atoms: C_21  and  N_22 
ROOT
ATOM      1  C   UNL d   1      20.484 -19.343   0.149  0.00  0.00     0.079 A 
ATOM      2  N   UNL d   1      19.905 -19.325  -1.063  0.00  0.00    -0.176 NA
ATOM      3  N   UNL d   1      18.780 -20.043  -0.895  0.00  0.00    -0.261 N 
ATOM      4  C   UNL d   1      18.631 -20.543   0.371  0.00  0.00     0.138 A 
ATOM      5  C   UNL d   1      19.744 -20.128   1.060  0.00  0.00     0.115 A 
ATOM      6  C   UNL d   1      20.061 -20.406   2.431  0.00  0.00     0.105 C 
ATOM      7  N   UNL d   1      20.327 -20.624   3.523  0.00  0.00    -0.191 NA
ATOM      8  H   UNL d   1      18.148 -20.143  -1.681  0.00  0.00     0.191 HD
ENDROOT
BRANCH   4   9
ATOM      9  N   UNL d   1      17.556 -21.268   0.730  0.00  0.00    -0.383 N 
ATOM     10  H   UNL d   1      17.498 -22.281   0.673  0.00  0.00     0.157 HD
ATOM     11  H   UNL d   1      16.699 -20.823   1.060  0.00  0.00     0.157 HD
ENDBRANCH   4   9
BRANCH   1  12
ATOM     12  C   UNL d   1      21.729 -18.553   0.418  0.00  0.00     0.064 C 
BRANCH  12  13
ATOM     13  C   UNL d   1      22.534 -18.343  -0.872  0.00  0.00     0.026 C 
BRANCH  13  14
ATOM     14  C   UNL d   1      24.032 -18.421  -0.675  0.00  0.00     0.125 C 
BRANCH  14  15
ATOM     15  N   UNL d   1      24.654 -17.081  -0.394  0.00  0.00    -0.343 N 
ATOM     16  C   UNL d   1      25.120 -16.394  -1.498  0.00  0.00     0.320 C 
ATOM     17  N   UNL d   1      25.523 -15.063  -1.368  0.00  0.00    -0.309 N 
ATOM     18  O   UNL d   1      25.160 -17.065  -2.515  0.00  0.00    -0.247 OA
ATOM     19  H   UNL d   1      25.954 -14.840  -0.485  0.00  0.00     0.170 HD
ATOM     20  H   UNL d   1      25.196 -17.011   0.456  0.00  0.00     0.164 HD
BRANCH  17  21
ATOM     21  C   UNL d   1      25.819 -14.109  -2.460  0.00  0.00     0.039 C 
ATOM     22  C   UNL d   1      25.097 -13.999  -3.629  0.00  0.00     0.030 C 
ATOM     23  C   UNL d   1      25.505 -13.064  -4.645  0.00  0.00     0.005 C 
ATOM     24  C   UNL d   1      26.659 -12.236  -4.537  0.00  0.00     0.037 C 
ATOM     25  C   UNL d   1      27.402 -12.324  -3.390  0.00  0.00     0.071 C 
ATOM     26  C   UNL d   1      26.960 -13.312  -2.520  0.00  0.00     0.066 C 
BRANCH  25  27
ATOM     27  O   UNL d   1      28.504 -11.549  -3.112  0.00  0.00    -0.346 OA
BRANCH  27  28
ATOM     28  C   UNL d   1      28.517 -10.562  -2.026  0.00  0.00     0.124 C 
ATOM     29  C   UNL d   1      28.367  -9.160  -2.666  0.00  0.00     0.040 C 
BRANCH  28  30
ATOM     30  C   UNL d   1      27.400 -10.447  -0.952  0.00  0.00     0.027 C 
ATOM     31  C   UNL d   1      27.602  -9.775   0.346  0.00  0.00     0.007 C 
ENDBRANCH  28  30
ENDBRANCH  27  28
ENDBRANCH  25  27
ENDBRANCH  17  21
ENDBRANCH  14  15
ENDBRANCH  13  14
ENDBRANCH  12  13
ENDBRANCH   1  12
TORSDOF 9
ENDMDL
