MODEL 1
REMARK VINA RESULT:   -32.378      0.000      0.000
REMARK INTER + INTRA:         -34.646
REMARK INTER:                 -33.870
REMARK INTRA:                  -0.776
REMARK CONF_INDEPENDENT:        1.492
REMARK UNBOUND:                -0.776
REMARK  5 active torsions:
REMARK  status: ('A' for Active; 'I' for Inactive)
REMARK    1  A    between atoms: O_2  and  C_3 
REMARK    2  A    between atoms: C_3  and  C_5 
REMARK    3  A    between atoms: C_8  and  N_7 
REMARK    4  A    between atoms: C_15  and  N_16 
REMARK       I    between atoms: N_16  and  C_17 
REMARK       I    between atoms: C_17  and  N_19 
REMARK    5  A    between atoms: N_19  and  C_20 
ROOT
ATOM      1  C   UNL d   1      23.099 -18.958  -0.590  0.00  0.00     0.161 C 
ATOM      2  C   UNL d   1      23.525 -18.597  -2.005  0.00  0.00     0.198 C 
ATOM      3  O   UNL d   1      23.703 -17.178  -2.034  0.00  0.00    -0.379 OA
ATOM      4  C   UNL d   1      24.164 -16.756  -0.743  0.00  0.00     0.177 C 
ATOM      5  C   UNL d   1      23.836 -17.891   0.229  0.00  0.00     0.179 C 
ATOM      6  O   UNL d   1      25.116 -18.401   0.688  0.00  0.00    -0.379 OA
ATOM      7  C   UNL d   1      26.065 -17.323   0.570  0.00  0.00     0.196 C 
ATOM      8  C   UNL d   1      25.701 -16.588  -0.713  0.00  0.00     0.141 C 
ENDROOT
BRANCH   8   9
ATOM      9  N   UNL d   1      26.162 -15.183  -0.792  0.00  0.00    -0.334 N 
ATOM     10  C   UNL d   1      26.152 -14.537  -2.015  0.00  0.00     0.321 C 
ATOM     11  O   UNL d   1      25.788 -15.124  -3.028  0.00  0.00    -0.247 OA
ATOM     12  N   UNL d   1      26.577 -13.214  -1.992  0.00  0.00    -0.308 N 
ATOM     13  H   UNL d   1      27.135 -12.890  -1.220  0.00  0.00     0.170 HD
ATOM     14  H   UNL d   1      26.538 -14.726   0.025  0.00  0.00     0.164 HD
BRANCH  12  15
ATOM     15  C   UNL d   1      26.560 -12.412  -3.186  0.00  0.00     0.047 A 
ATOM     16  C   UNL d   1      25.875 -11.187  -3.140  0.00  0.00     0.030 A 
ATOM     17  C   UNL d   1      25.784 -10.358  -4.254  0.00  0.00     0.003 A 
ATOM     18  C   UNL d   1      26.376 -10.738  -5.450  0.00  0.00     0.012 A 
ATOM     19  C   UNL d   1      27.107 -11.929  -5.536  0.00  0.00    -0.024 A 
ATOM     20  C   UNL d   1      27.714 -12.265  -6.759  0.00  0.00     0.012 A 
ATOM     21  C   UNL d   1      27.220 -12.788  -4.398  0.00  0.00     0.001 A 
ATOM     22  C   UNL d   1      28.436 -13.446  -6.896  0.00  0.00     0.001 A 
ATOM     23  C   UNL d   1      28.548 -14.306  -5.811  0.00  0.00     0.001 A 
ATOM     24  C   UNL d   1      27.945 -13.988  -4.584  0.00  0.00     0.014 A 
ENDBRANCH  12  15
ENDBRANCH   8   9
BRANCH   1  25
ATOM     25  N   UNL d   1      21.645 -19.042  -0.514  0.00  0.00    -0.273 N 
ATOM     26  C   UNL d   1      20.922 -19.934   0.245  0.00  0.00     0.148 A 
ATOM     27  C   UNL d   1      19.596 -19.645  -0.022  0.00  0.00     0.166 A 
ATOM     28  N   UNL d   1      19.570 -18.577  -0.895  0.00  0.00    -0.152 NA
ATOM     29  N   UNL d   1      20.821 -18.198  -1.155  0.00  0.00     0.005 NA
BRANCH  27  30
ATOM     30  C   UNL d   1      18.403 -20.341   0.455  0.00  0.00     0.314 C 
ATOM     31  O   UNL d   1      17.670 -21.013  -0.273  0.00  0.00    -0.257 OA
BRANCH  30  32
ATOM     32  O   UNL d   1      18.181 -20.182   1.800  0.00  0.00    -0.321 OA
ATOM     33  C   UNL d   1      19.317 -20.453   2.637  0.00  0.00     0.213 C 
ENDBRANCH  30  32
ENDBRANCH  27  30
ENDBRANCH   1  25
TORSDOF 5
ENDMDL
MODEL 2
REMARK VINA RESULT:   -32.094      3.910      5.678
REMARK INTER + INTRA:         -33.828
REMARK INTER:                 -33.586
REMARK INTRA:                  -0.243
REMARK CONF_INDEPENDENT:        1.492
REMARK UNBOUND:                -0.243
REMARK  5 active torsions:
REMARK  status: ('A' for Active; 'I' for Inactive)
REMARK    1  A    between atoms: O_2  and  C_3 
REMARK    2  A    between atoms: C_3  and  C_5 
REMARK    3  A    between atoms: C_8  and  N_7 
REMARK    4  A    between atoms: C_15  and  N_16 
REMARK       I    between atoms: N_16  and  C_17 
REMARK       I    between atoms: C_17  and  N_19 
REMARK    5  A    between atoms: N_19  and  C_20 
ROOT
ATOM      1  C   UNL d   1      23.222 -18.903  -0.758  0.00  0.00     0.161 C 
ATOM      2  C   UNL d   1      23.579 -18.137  -2.023  0.00  0.00     0.198 C 
ATOM      3  O   UNL d   1      23.747 -16.768  -1.644  0.00  0.00    -0.379 OA
ATOM      4  C   UNL d   1      24.264 -16.731  -0.308  0.00  0.00     0.177 C 
ATOM      5  C   UNL d   1      23.990 -18.107   0.304  0.00  0.00     0.179 C 
ATOM      6  O   UNL d   1      25.294 -18.702   0.538  0.00  0.00    -0.379 OA
ATOM      7  C   UNL d   1      26.229 -17.618   0.699  0.00  0.00     0.196 C 
ATOM      8  C   UNL d   1      25.800 -16.549  -0.297  0.00  0.00     0.141 C 
ENDROOT
BRANCH   8   9
ATOM      9  N   UNL d   1      26.248 -15.173   0.018  0.00  0.00    -0.334 N 
ATOM     10  C   UNL d   1      27.285 -14.988   0.914  0.00  0.00     0.321 C 
ATOM     11  O   UNL d   1      27.816 -15.949   1.460  0.00  0.00    -0.247 OA
ATOM     12  N   UNL d   1      27.655 -13.667   1.132  0.00  0.00    -0.308 N 
ATOM     13  H   UNL d   1      27.008 -12.930   0.903  0.00  0.00     0.170 HD
ATOM     14  H   UNL d   1      25.758 -14.380  -0.368  0.00  0.00     0.164 HD
BRANCH  12  15
ATOM     15  C   UNL d   1      28.758 -13.340   1.996  0.00  0.00     0.047 A 
ATOM     16  C   UNL d   1      29.849 -12.657   1.434  0.00  0.00     0.030 A 
ATOM     17  C   UNL d   1      30.970 -12.325   2.188  0.00  0.00     0.003 A 
ATOM     18  C   UNL d   1      31.030 -12.672   3.530  0.00  0.00     0.012 A 
ATOM     19  C   UNL d   1      29.951 -13.315   4.148  0.00  0.00    -0.024 A 
ATOM     20  C   UNL d   1      30.041 -13.627   5.516  0.00  0.00     0.012 A 
ATOM     21  C   UNL d   1      28.786 -13.655   3.390  0.00  0.00     0.001 A 
ATOM     22  C   UNL d   1      29.000 -14.280   6.168  0.00  0.00     0.001 A 
ATOM     23  C   UNL d   1      27.864 -14.635   5.453  0.00  0.00     0.001 A 
ATOM     24  C   UNL d   1      27.760 -14.336   4.086  0.00  0.00     0.014 A 
ENDBRANCH  12  15
ENDBRANCH   8   9
BRANCH   1  25
ATOM     25  N   UNL d   1      21.775 -19.034  -0.648  0.00  0.00    -0.273 N 
ATOM     26  C   UNL d   1      21.097 -20.038   0.006  0.00  0.00     0.148 A 
ATOM     27  C   UNL d   1      19.757 -19.751  -0.177  0.00  0.00     0.166 A 
ATOM     28  N   UNL d   1      19.677 -18.576  -0.895  0.00  0.00    -0.152 NA
ATOM     29  N   UNL d   1      20.910 -18.133  -1.142  0.00  0.00     0.005 NA
BRANCH  27  30
ATOM     30  C   UNL d   1      18.597 -20.536   0.241  0.00  0.00     0.314 C 
ATOM     31  O   UNL d   1      17.655 -20.807  -0.507  0.00  0.00    -0.257 OA
BRANCH  30  32
ATOM     32  O   UNL d   1      18.661 -20.952   1.546  0.00  0.00    -0.321 OA
ATOM     33  C   UNL d   1      19.409 -20.090   2.420  0.00  0.00     0.213 C 
ENDBRANCH  30  32
ENDBRANCH  27  30
ENDBRANCH   1  25
TORSDOF 5
ENDMDL
MODEL 3
REMARK VINA RESULT:   -31.755      0.596      2.054
REMARK INTER + INTRA:         -34.002
REMARK INTER:                 -33.247
REMARK INTRA:                  -0.755
REMARK CONF_INDEPENDENT:        1.492
REMARK UNBOUND:                -0.755
REMARK  5 active torsions:
REMARK  status: ('A' for Active; 'I' for Inactive)
REMARK    1  A    between atoms: O_2  and  C_3 
REMARK    2  A    between atoms: C_3  and  C_5 
REMARK    3  A    between atoms: C_8  and  N_7 
REMARK    4  A    between atoms: C_15  and  N_16 
REMARK       I    between atoms: N_16  and  C_17 
REMARK       I    between atoms: C_17  and  N_19 
REMARK    5  A    between atoms: N_19  and  C_20 
ROOT
ATOM      1  C   UNL d   1      23.058 -19.088  -0.523  0.00  0.00     0.161 C 
ATOM      2  C   UNL d   1      23.506 -18.910  -1.966  0.00  0.00     0.198 C 
ATOM      3  O   UNL d   1      23.671 -17.505  -2.178  0.00  0.00    -0.379 OA
ATOM      4  C   UNL d   1      24.103 -16.912  -0.946  0.00  0.00     0.177 C 
ATOM      5  C   UNL d   1      23.769 -17.914   0.161  0.00  0.00     0.179 C 
ATOM      6  O   UNL d   1      25.046 -18.343   0.703  0.00  0.00    -0.379 OA
ATOM      7  C   UNL d   1      25.985 -17.278   0.461  0.00  0.00     0.196 C 
ATOM      8  C   UNL d   1      25.638 -16.722  -0.913  0.00  0.00     0.141 C 
ENDROOT
BRANCH   8   9
ATOM      9  N   UNL d   1      26.085 -15.334  -1.169  0.00  0.00    -0.334 N 
ATOM     10  C   UNL d   1      26.277 -14.916  -2.473  0.00  0.00     0.321 C 
ATOM     11  O   UNL d   1      26.101 -15.688  -3.408  0.00  0.00    -0.247 OA
ATOM     12  N   UNL d   1      26.674 -13.592  -2.620  0.00  0.00    -0.308 N 
ATOM     13  H   UNL d   1      27.086 -13.112  -1.838  0.00  0.00     0.170 HD
ATOM     14  H   UNL d   1      26.309 -14.724  -0.397  0.00  0.00     0.164 HD
BRANCH  12  15
ATOM     15  C   UNL d   1      26.851 -13.014  -3.926  0.00  0.00     0.047 A 
ATOM     16  C   UNL d   1      27.539 -13.771  -4.888  0.00  0.00     0.030 A 
ATOM     17  C   UNL d   1      27.780 -13.282  -6.168  0.00  0.00     0.003 A 
ATOM     18  C   UNL d   1      27.338 -12.015  -6.519  0.00  0.00     0.012 A 
ATOM     19  C   UNL d   1      26.609 -11.238  -5.611  0.00  0.00    -0.024 A 
ATOM     20  C   UNL d   1      26.156  -9.969  -6.015  0.00  0.00     0.012 A 
ATOM     21  C   UNL d   1      26.343 -11.729  -4.294  0.00  0.00     0.001 A 
ATOM     22  C   UNL d   1      25.443  -9.155  -5.141  0.00  0.00     0.001 A 
ATOM     23  C   UNL d   1      25.184  -9.602  -3.852  0.00  0.00     0.001 A 
ATOM     24  C   UNL d   1      25.633 -10.863  -3.431  0.00  0.00     0.014 A 
ENDBRANCH  12  15
ENDBRANCH   8   9
BRANCH   1  25
ATOM     25  N   UNL d   1      21.604 -19.179  -0.462  0.00  0.00    -0.273 N 
ATOM     26  C   UNL d   1      20.877 -20.032   0.337  0.00  0.00     0.148 A 
ATOM     27  C   UNL d   1      19.553 -19.770   0.037  0.00  0.00     0.166 A 
ATOM     28  N   UNL d   1      19.530 -18.753  -0.895  0.00  0.00    -0.152 NA
ATOM     29  N   UNL d   1      20.782 -18.379  -1.160  0.00  0.00     0.005 NA
BRANCH  27  30
ATOM     30  C   UNL d   1      18.359 -20.448   0.538  0.00  0.00     0.314 C 
ATOM     31  O   UNL d   1      17.661 -21.194  -0.152  0.00  0.00    -0.257 OA
BRANCH  30  32
ATOM     32  O   UNL d   1      18.093 -20.181   1.857  0.00  0.00    -0.321 OA
ATOM     33  C   UNL d   1      19.180 -20.450   2.759  0.00  0.00     0.213 C 
ENDBRANCH  30  32
ENDBRANCH  27  30
ENDBRANCH   1  25
TORSDOF 5
ENDMDL
MODEL 4
REMARK VINA RESULT:   -31.330      1.384      1.684
REMARK INTER + INTRA:         -33.335
REMARK INTER:                 -32.821
REMARK INTRA:                  -0.514
REMARK CONF_INDEPENDENT:        1.492
REMARK UNBOUND:                -0.514
REMARK  5 active torsions:
REMARK  status: ('A' for Active; 'I' for Inactive)
REMARK    1  A    between atoms: O_2  and  C_3 
REMARK    2  A    between atoms: C_3  and  C_5 
REMARK    3  A    between atoms: C_8  and  N_7 
REMARK    4  A    between atoms: C_15  and  N_16 
REMARK       I    between atoms: N_16  and  C_17 
REMARK       I    between atoms: C_17  and  N_19 
REMARK    5  A    between atoms: N_19  and  C_20 
ROOT
ATOM      1  C   UNL d   1      23.089 -18.976  -0.638  0.00  0.00     0.161 C 
ATOM      2  C   UNL d   1      23.516 -18.554  -2.035  0.00  0.00     0.198 C 
ATOM      3  O   UNL d   1      23.685 -17.134  -2.005  0.00  0.00    -0.379 OA
ATOM      4  C   UNL d   1      24.139 -16.763  -0.696  0.00  0.00     0.177 C 
ATOM      5  C   UNL d   1      23.816 -17.940   0.227  0.00  0.00     0.179 C 
ATOM      6  O   UNL d   1      25.099 -18.459   0.668  0.00  0.00    -0.379 OA
ATOM      7  C   UNL d   1      26.040 -17.372   0.598  0.00  0.00     0.196 C 
ATOM      8  C   UNL d   1      25.675 -16.586  -0.655  0.00  0.00     0.141 C 
ENDROOT
BRANCH   8   9
ATOM      9  N   UNL d   1      26.127 -15.177  -0.674  0.00  0.00    -0.334 N 
ATOM     10  C   UNL d   1      26.297 -14.538  -1.889  0.00  0.00     0.321 C 
ATOM     11  O   UNL d   1      26.098 -15.136  -2.941  0.00  0.00    -0.247 OA
ATOM     12  N   UNL d   1      26.698 -13.210  -1.812  0.00  0.00    -0.308 N 
ATOM     13  H   UNL d   1      27.128 -12.874  -0.967  0.00  0.00     0.170 HD
ATOM     14  H   UNL d   1      26.368 -14.710   0.187  0.00  0.00     0.164 HD
BRANCH  12  15
ATOM     15  C   UNL d   1      26.855 -12.415  -3.001  0.00  0.00     0.047 A 
ATOM     16  C   UNL d   1      25.826 -12.459  -3.956  0.00  0.00     0.030 A 
ATOM     17  C   UNL d   1      25.905 -11.744  -5.147  0.00  0.00     0.003 A 
ATOM     18  C   UNL d   1      27.021 -10.964  -5.415  0.00  0.00     0.012 A 
ATOM     19  C   UNL d   1      28.053 -10.853  -4.477  0.00  0.00    -0.024 A 
ATOM     20  C   UNL d   1      29.156 -10.033  -4.776  0.00  0.00     0.012 A 
ATOM     21  C   UNL d   1      27.985 -11.573  -3.243  0.00  0.00     0.001 A 
ATOM     22  C   UNL d   1      30.213  -9.904  -3.881  0.00  0.00     0.001 A 
ATOM     23  C   UNL d   1      30.179 -10.605  -2.682  0.00  0.00     0.001 A 
ATOM     24  C   UNL d   1      29.089 -11.431  -2.370  0.00  0.00     0.014 A 
ENDBRANCH  12  15
ENDBRANCH   8   9
BRANCH   1  25
ATOM     25  N   UNL d   1      21.635 -19.073  -0.570  0.00  0.00    -0.273 N 
ATOM     26  C   UNL d   1      20.915 -20.045   0.087  0.00  0.00     0.148 A 
ATOM     27  C   UNL d   1      19.589 -19.733  -0.146  0.00  0.00     0.166 A 
ATOM     28  N   UNL d   1      19.558 -18.575  -0.895  0.00  0.00    -0.152 NA
ATOM     29  N   UNL d   1      20.808 -18.166  -1.114  0.00  0.00     0.005 NA
BRANCH  27  30
ATOM     30  C   UNL d   1      18.398 -20.481   0.254  0.00  0.00     0.314 C 
ATOM     31  O   UNL d   1      17.522 -20.839  -0.537  0.00  0.00    -0.257 OA
BRANCH  30  32
ATOM     32  O   UNL d   1      18.353 -20.758   1.597  0.00  0.00    -0.321 OA
ATOM     33  C   UNL d   1      19.354 -20.092   2.385  0.00  0.00     0.213 C 
ENDBRANCH  30  32
ENDBRANCH  27  30
ENDBRANCH   1  25
TORSDOF 5
ENDMDL
MODEL 5
REMARK VINA RESULT:   -30.999      1.467      2.016
REMARK INTER + INTRA:         -33.483
REMARK INTER:                 -32.490
REMARK INTRA:                  -0.993
REMARK CONF_INDEPENDENT:        1.492
REMARK UNBOUND:                -0.993
REMARK  5 active torsions:
REMARK  status: ('A' for Active; 'I' for Inactive)
REMARK    1  A    between atoms: O_2  and  C_3 
REMARK    2  A    between atoms: C_3  and  C_5 
REMARK    3  A    between atoms: C_8  and  N_7 
REMARK    4  A    between atoms: C_15  and  N_16 
REMARK       I    between atoms: N_16  and  C_17 
REMARK       I    between atoms: C_17  and  N_19 
REMARK    5  A    between atoms: N_19  and  C_20 
ROOT
ATOM      1  C   UNL d   1      23.415 -18.915  -0.750  0.00  0.00     0.161 C 
ATOM      2  C   UNL d   1      23.723 -18.167  -2.039  0.00  0.00     0.198 C 
ATOM      3  O   UNL d   1      23.835 -16.783  -1.697  0.00  0.00    -0.379 OA
ATOM      4  C   UNL d   1      24.367 -16.689  -0.369  0.00  0.00     0.177 C 
ATOM      5  C   UNL d   1      24.160 -18.059   0.281  0.00  0.00     0.179 C 
ATOM      6  O   UNL d   1      25.491 -18.591   0.513  0.00  0.00    -0.379 OA
ATOM      7  C   UNL d   1      26.380 -17.464   0.634  0.00  0.00     0.196 C 
ATOM      8  C   UNL d   1      25.893 -16.440  -0.383  0.00  0.00     0.141 C 
ENDROOT
BRANCH   8   9
ATOM      9  N   UNL d   1      26.284 -15.038  -0.109  0.00  0.00    -0.334 N 
ATOM     10  C   UNL d   1      26.928 -14.312  -1.094  0.00  0.00     0.321 C 
ATOM     11  O   UNL d   1      27.194 -14.826  -2.175  0.00  0.00    -0.247 OA
ATOM     12  N   UNL d   1      27.236 -12.999  -0.760  0.00  0.00    -0.308 N 
ATOM     13  H   UNL d   1      27.271 -12.733   0.210  0.00  0.00     0.170 HD
ATOM     14  H   UNL d   1      26.139 -14.641   0.807  0.00  0.00     0.164 HD
BRANCH  12  15
ATOM     15  C   UNL d   1      27.854 -12.118  -1.716  0.00  0.00     0.047 A 
ATOM     16  C   UNL d   1      29.075 -11.523  -1.362  0.00  0.00     0.030 A 
ATOM     17  C   UNL d   1      29.730 -10.637  -2.212  0.00  0.00     0.003 A 
ATOM     18  C   UNL d   1      29.175 -10.322  -3.444  0.00  0.00     0.012 A 
ATOM     19  C   UNL d   1      27.982 -10.921  -3.862  0.00  0.00    -0.024 A 
ATOM     20  C   UNL d   1      27.466 -10.594  -5.129  0.00  0.00     0.012 A 
ATOM     21  C   UNL d   1      27.300 -11.842  -3.005  0.00  0.00     0.001 A 
ATOM     22  C   UNL d   1      26.275 -11.153  -5.580  0.00  0.00     0.001 A 
ATOM     23  C   UNL d   1      25.584 -12.038  -4.761  0.00  0.00     0.001 A 
ATOM     24  C   UNL d   1      26.082 -12.372  -3.493  0.00  0.00     0.014 A 
ENDBRANCH  12  15
ENDBRANCH   8   9
BRANCH   1  25
ATOM     25  N   UNL d   1      21.976 -19.105  -0.618  0.00  0.00    -0.273 N 
ATOM     26  C   UNL d   1      21.284 -19.273   0.560  0.00  0.00     0.148 A 
ATOM     27  C   UNL d   1      19.963 -19.434   0.186  0.00  0.00     0.166 A 
ATOM     28  N   UNL d   1      19.902 -19.323  -1.188  0.00  0.00    -0.152 NA
ATOM     29  N   UNL d   1      21.128 -19.086  -1.658  0.00  0.00     0.005 NA
BRANCH  27  30
ATOM     30  C   UNL d   1      18.809 -19.727   1.034  0.00  0.00     0.314 C 
ATOM     31  O   UNL d   1      18.587 -19.154   2.102  0.00  0.00    -0.257 OA
BRANCH  30  32
ATOM     32  O   UNL d   1      17.987 -20.698   0.520  0.00  0.00    -0.321 OA
ATOM     33  C   UNL d   1      17.982 -21.936   1.251  0.00  0.00     0.213 C 
ENDBRANCH  30  32
ENDBRANCH  27  30
ENDBRANCH   1  25
TORSDOF 5
ENDMDL
MODEL 6
REMARK VINA RESULT:   -30.895      2.563      3.878
REMARK INTER + INTRA:         -33.231
REMARK INTER:                 -32.387
REMARK INTRA:                  -0.844
REMARK CONF_INDEPENDENT:        1.492
REMARK UNBOUND:                -0.844
REMARK  5 active torsions:
REMARK  status: ('A' for Active; 'I' for Inactive)
REMARK    1  A    between atoms: O_2  and  C_3 
REMARK    2  A    between atoms: C_3  and  C_5 
REMARK    3  A    between atoms: C_8  and  N_7 
REMARK    4  A    between atoms: C_15  and  N_16 
REMARK       I    between atoms: N_16  and  C_17 
REMARK       I    between atoms: C_17  and  N_19 
REMARK    5  A    between atoms: N_19  and  C_20 
ROOT
ATOM      1  C   UNL d   1      23.453 -18.833  -0.933  0.00  0.00     0.161 C 
ATOM      2  C   UNL d   1      23.724 -17.729  -1.944  0.00  0.00     0.198 C 
ATOM      3  O   UNL d   1      24.005 -16.543  -1.196  0.00  0.00    -0.379 OA
ATOM      4  C   UNL d   1      24.655 -16.924   0.024  0.00  0.00     0.177 C 
ATOM      5  C   UNL d   1      24.367 -18.413   0.225  0.00  0.00     0.179 C 
ATOM      6  O   UNL d   1      25.652 -19.082   0.123  0.00  0.00    -0.379 OA
ATOM      7  C   UNL d   1      26.658 -18.120   0.494  0.00  0.00     0.196 C 
ATOM      8  C   UNL d   1      26.193 -16.789  -0.084  0.00  0.00     0.141 C 
ENDROOT
BRANCH   8   9
ATOM      9  N   UNL d   1      26.746 -15.584   0.574  0.00  0.00    -0.334 N 
ATOM     10  C   UNL d   1      26.847 -14.408  -0.146  0.00  0.00     0.321 C 
ATOM     11  O   UNL d   1      26.504 -14.365  -1.323  0.00  0.00    -0.247 OA
ATOM     12  N   UNL d   1      27.354 -13.321   0.556  0.00  0.00    -0.308 N 
ATOM     13  H   UNL d   1      27.887 -13.482   1.395  0.00  0.00     0.170 HD
ATOM     14  H   UNL d   1      27.103 -15.639   1.516  0.00  0.00     0.164 HD
BRANCH  12  15
ATOM     15  C   UNL d   1      27.456 -12.025  -0.059  0.00  0.00     0.047 A 
ATOM     16  C   UNL d   1      27.925 -11.964  -1.382  0.00  0.00     0.030 A 
ATOM     17  C   UNL d   1      28.081 -10.752  -2.047  0.00  0.00     0.003 A 
ATOM     18  C   UNL d   1      27.772  -9.563  -1.402  0.00  0.00     0.012 A 
ATOM     19  C   UNL d   1      27.260  -9.572  -0.099  0.00  0.00    -0.024 A 
ATOM     20  C   UNL d   1      26.935  -8.347   0.510  0.00  0.00     0.012 A 
ATOM     21  C   UNL d   1      27.083 -10.810   0.596  0.00  0.00     0.001 A 
ATOM     22  C   UNL d   1      26.438  -8.306   1.809  0.00  0.00     0.001 A 
ATOM     23  C   UNL d   1      26.271  -9.492   2.512  0.00  0.00     0.001 A 
ATOM     24  C   UNL d   1      26.595 -10.723   1.921  0.00  0.00     0.014 A 
ENDBRANCH  12  15
ENDBRANCH   8   9
BRANCH   1  25
ATOM     25  N   UNL d   1      22.019 -18.958  -0.704  0.00  0.00    -0.273 N 
ATOM     26  C   UNL d   1      21.408 -19.826   0.172  0.00  0.00     0.148 A 
ATOM     27  C   UNL d   1      20.052 -19.595   0.027  0.00  0.00     0.166 A 
ATOM     28  N   UNL d   1      19.899 -18.580  -0.896  0.00  0.00    -0.152 NA
ATOM     29  N   UNL d   1      21.104 -18.178  -1.303  0.00  0.00     0.005 NA
BRANCH  27  30
ATOM     30  C   UNL d   1      18.939 -20.299   0.661  0.00  0.00     0.314 C 
ATOM     31  O   UNL d   1      18.252 -21.143   0.084  0.00  0.00    -0.257 OA
BRANCH  30  32
ATOM     32  O   UNL d   1      18.739 -19.935   1.969  0.00  0.00    -0.321 OA
ATOM     33  C   UNL d   1      19.796 -20.309   2.869  0.00  0.00     0.213 C 
ENDBRANCH  30  32
ENDBRANCH  27  30
ENDBRANCH   1  25
TORSDOF 5
ENDMDL
MODEL 7
REMARK VINA RESULT:   -30.536      3.954      4.966
REMARK INTER + INTRA:         -32.447
REMARK INTER:                 -32.028
REMARK INTRA:                  -0.419
REMARK CONF_INDEPENDENT:        1.492
REMARK UNBOUND:                -0.419
REMARK  5 active torsions:
REMARK  status: ('A' for Active; 'I' for Inactive)
REMARK    1  A    between atoms: O_2  and  C_3 
REMARK    2  A    between atoms: C_3  and  C_5 
REMARK    3  A    between atoms: C_8  and  N_7 
REMARK    4  A    between atoms: C_15  and  N_16 
REMARK       I    between atoms: N_16  and  C_17 
REMARK       I    between atoms: C_17  and  N_19 
REMARK    5  A    between atoms: N_19  and  C_20 
ROOT
ATOM      1  C   UNL d   1      23.366 -18.933  -0.806  0.00  0.00     0.161 C 
ATOM      2  C   UNL d   1      23.657 -18.069  -2.024  0.00  0.00     0.198 C 
ATOM      3  O   UNL d   1      23.787 -16.724  -1.556  0.00  0.00    -0.379 OA
ATOM      4  C   UNL d   1      24.344 -16.760  -0.235  0.00  0.00     0.177 C 
ATOM      5  C   UNL d   1      24.138 -18.183   0.287  0.00  0.00     0.179 C 
ATOM      6  O   UNL d   1      25.468 -18.743   0.442  0.00  0.00    -0.379 OA
ATOM      7  C   UNL d   1      26.369 -17.638   0.652  0.00  0.00     0.196 C 
ATOM      8  C   UNL d   1      25.872 -16.520  -0.255  0.00  0.00     0.141 C 
ENDROOT
BRANCH   8   9
ATOM      9  N   UNL d   1      26.279 -15.153   0.142  0.00  0.00    -0.334 N 
ATOM     10  C   UNL d   1      27.388 -14.987   0.952  0.00  0.00     0.321 C 
ATOM     11  O   UNL d   1      28.016 -15.959   1.357  0.00  0.00    -0.247 OA
ATOM     12  N   UNL d   1      27.712 -13.670   1.254  0.00  0.00    -0.308 N 
ATOM     13  H   UNL d   1      27.011 -12.955   1.154  0.00  0.00     0.170 HD
ATOM     14  H   UNL d   1      25.717 -14.359  -0.124  0.00  0.00     0.164 HD
BRANCH  12  15
ATOM     15  C   UNL d   1      28.876 -13.357   2.040  0.00  0.00     0.047 A 
ATOM     16  C   UNL d   1      28.703 -12.532   3.164  0.00  0.00     0.030 A 
ATOM     17  C   UNL d   1      29.777 -12.156   3.965  0.00  0.00     0.003 A 
ATOM     18  C   UNL d   1      31.057 -12.595   3.660  0.00  0.00     0.012 A 
ATOM     19  C   UNL d   1      31.275 -13.453   2.576  0.00  0.00    -0.024 A 
ATOM     20  C   UNL d   1      32.584 -13.897   2.315  0.00  0.00     0.012 A 
ATOM     21  C   UNL d   1      30.182 -13.859   1.747  0.00  0.00     0.001 A 
ATOM     22  C   UNL d   1      32.851 -14.738   1.240  0.00  0.00     0.001 A 
ATOM     23  C   UNL d   1      31.811 -15.134   0.410  0.00  0.00     0.001 A 
ATOM     24  C   UNL d   1      30.500 -14.697   0.653  0.00  0.00     0.014 A 
ENDBRANCH  12  15
ENDBRANCH   8   9
BRANCH   1  25
ATOM     25  N   UNL d   1      21.928 -19.126  -0.664  0.00  0.00    -0.273 N 
ATOM     26  C   UNL d   1      21.248 -19.325   0.516  0.00  0.00     0.148 A 
ATOM     27  C   UNL d   1      19.923 -19.475   0.150  0.00  0.00     0.166 A 
ATOM     28  N   UNL d   1      19.849 -19.325  -1.220  0.00  0.00    -0.152 NA
ATOM     29  N   UNL d   1      21.070 -19.077  -1.695  0.00  0.00     0.005 NA
BRANCH  27  30
ATOM     30  C   UNL d   1      18.777 -19.790   1.001  0.00  0.00     0.314 C 
ATOM     31  O   UNL d   1      18.587 -19.273   2.105  0.00  0.00    -0.257 OA
BRANCH  30  32
ATOM     32  O   UNL d   1      17.925 -20.711   0.449  0.00  0.00    -0.321 OA
ATOM     33  C   UNL d   1      18.043 -22.041   0.981  0.00  0.00     0.213 C 
ENDBRANCH  30  32
ENDBRANCH  27  30
ENDBRANCH   1  25
TORSDOF 5
ENDMDL
MODEL 8
REMARK VINA RESULT:   -30.362      2.032      2.853
REMARK INTER + INTRA:         -32.611
REMARK INTER:                 -31.853
REMARK INTRA:                  -0.758
REMARK CONF_INDEPENDENT:        1.492
REMARK UNBOUND:                -0.758
REMARK  5 active torsions:
REMARK  status: ('A' for Active; 'I' for Inactive)
REMARK    1  A    between atoms: O_2  and  C_3 
REMARK    2  A    between atoms: C_3  and  C_5 
REMARK    3  A    between atoms: C_8  and  N_7 
REMARK    4  A    between atoms: C_15  and  N_16 
REMARK       I    between atoms: N_16  and  C_17 
REMARK       I    between atoms: C_17  and  N_19 
REMARK    5  A    between atoms: N_19  and  C_20 
ROOT
ATOM      1  C   UNL d   1      22.985 -18.134  -0.146  0.00  0.00     0.161 C 
ATOM      2  C   UNL d   1      23.870 -19.020  -1.009  0.00  0.00     0.198 C 
ATOM      3  O   UNL d   1      24.038 -18.346  -2.259  0.00  0.00    -0.379 OA
ATOM      4  C   UNL d   1      24.022 -16.933  -2.013  0.00  0.00     0.177 C 
ATOM      5  C   UNL d   1      23.387 -16.737  -0.635  0.00  0.00     0.179 C 
ATOM      6  O   UNL d   1      24.435 -16.188   0.208  0.00  0.00    -0.379 OA
ATOM      7  C   UNL d   1      25.358 -15.504  -0.660  0.00  0.00     0.196 C 
ATOM      8  C   UNL d   1      25.454 -16.355  -1.918  0.00  0.00     0.141 C 
ENDROOT
BRANCH   8   9
ATOM      9  N   UNL d   1      25.905 -15.641  -3.135  0.00  0.00    -0.334 N 
ATOM     10  C   UNL d   1      27.229 -15.259  -3.242  0.00  0.00     0.321 C 
ATOM     11  O   UNL d   1      28.020 -15.488  -2.333  0.00  0.00    -0.247 OA
ATOM     12  N   UNL d   1      27.569 -14.617  -4.427  0.00  0.00    -0.308 N 
ATOM     13  H   UNL d   1      26.844 -14.196  -4.984  0.00  0.00     0.170 HD
ATOM     14  H   UNL d   1      25.238 -15.381  -3.846  0.00  0.00     0.164 HD
BRANCH  12  15
ATOM     15  C   UNL d   1      28.927 -14.220  -4.689  0.00  0.00     0.047 A 
ATOM     16  C   UNL d   1      29.269 -12.875  -4.472  0.00  0.00     0.030 A 
ATOM     17  C   UNL d   1      30.551 -12.397  -4.725  0.00  0.00     0.003 A 
ATOM     18  C   UNL d   1      31.528 -13.256  -5.206  0.00  0.00     0.012 A 
ATOM     19  C   UNL d   1      31.250 -14.614  -5.398  0.00  0.00    -0.024 A 
ATOM     20  C   UNL d   1      32.275 -15.458  -5.863  0.00  0.00     0.012 A 
ATOM     21  C   UNL d   1      29.940 -15.126  -5.134  0.00  0.00     0.001 A 
ATOM     22  C   UNL d   1      32.041 -16.811  -6.083  0.00  0.00     0.001 A 
ATOM     23  C   UNL d   1      30.774 -17.330  -5.849  0.00  0.00     0.001 A 
ATOM     24  C   UNL d   1      29.739 -16.502  -5.390  0.00  0.00     0.014 A 
ENDBRANCH  12  15
ENDBRANCH   8   9
BRANCH   1  25
ATOM     25  N   UNL d   1      21.595 -18.559  -0.258  0.00  0.00    -0.273 N 
ATOM     26  C   UNL d   1      21.018 -19.627   0.391  0.00  0.00     0.148 A 
ATOM     27  C   UNL d   1      19.704 -19.646  -0.040  0.00  0.00     0.166 A 
ATOM     28  N   UNL d   1      19.530 -18.578  -0.896  0.00  0.00    -0.152 NA
ATOM     29  N   UNL d   1      20.678 -17.906  -0.989  0.00  0.00     0.005 NA
BRANCH  27  30
ATOM     30  C   UNL d   1      18.662 -20.623   0.272  0.00  0.00     0.314 C 
ATOM     31  O   UNL d   1      17.715 -20.870  -0.478  0.00  0.00    -0.257 OA
BRANCH  30  32
ATOM     32  O   UNL d   1      18.844 -21.248   1.479  0.00  0.00    -0.321 OA
ATOM     33  C   UNL d   1      19.249 -20.382   2.553  0.00  0.00     0.213 C 
ENDBRANCH  30  32
ENDBRANCH  27  30
ENDBRANCH   1  25
TORSDOF 5
ENDMDL
MODEL 9
REMARK VINA RESULT:   -29.874      3.369      4.171
REMARK INTER + INTRA:         -32.345
REMARK INTER:                 -31.365
REMARK INTRA:                  -0.980
REMARK CONF_INDEPENDENT:        1.492
REMARK UNBOUND:                -0.980
REMARK  5 active torsions:
REMARK  status: ('A' for Active; 'I' for Inactive)
REMARK    1  A    between atoms: O_2  and  C_3 
REMARK    2  A    between atoms: C_3  and  C_5 
REMARK    3  A    between atoms: C_8  and  N_7 
REMARK    4  A    between atoms: C_15  and  N_16 
REMARK       I    between atoms: N_16  and  C_17 
REMARK       I    between atoms: C_17  and  N_19 
REMARK    5  A    between atoms: N_19  and  C_20 
ROOT
ATOM      1  C   UNL d   1      23.237 -18.942  -0.705  0.00  0.00     0.161 C 
ATOM      2  C   UNL d   1      23.593 -18.209  -1.989  0.00  0.00     0.198 C 
ATOM      3  O   UNL d   1      23.836 -16.845  -1.633  0.00  0.00    -0.379 OA
ATOM      4  C   UNL d   1      24.394 -16.818  -0.312  0.00  0.00     0.177 C 
ATOM      5  C   UNL d   1      24.073 -18.171   0.325  0.00  0.00     0.179 C 
ATOM      6  O   UNL d   1      25.353 -18.825   0.530  0.00  0.00    -0.379 OA
ATOM      7  C   UNL d   1      26.342 -17.786   0.650  0.00  0.00     0.196 C 
ATOM      8  C   UNL d   1      25.936 -16.708  -0.347  0.00  0.00     0.141 C 
ENDROOT
BRANCH   8   9
ATOM      9  N   UNL d   1      26.457 -15.352  -0.063  0.00  0.00    -0.334 N 
ATOM     10  C   UNL d   1      27.782 -15.066  -0.339  0.00  0.00     0.321 C 
ATOM     11  O   UNL d   1      28.525 -15.929  -0.793  0.00  0.00    -0.247 OA
ATOM     12  N   UNL d   1      28.178 -13.762  -0.064  0.00  0.00    -0.308 N 
ATOM     13  H   UNL d   1      27.632 -13.205   0.571  0.00  0.00     0.170 HD
ATOM     14  H   UNL d   1      25.869 -14.666   0.386  0.00  0.00     0.164 HD
BRANCH  12  15
ATOM     15  C   UNL d   1      29.515 -13.318  -0.360  0.00  0.00     0.047 A 
ATOM     16  C   UNL d   1      29.673 -12.341  -1.356  0.00  0.00     0.030 A 
ATOM     17  C   UNL d   1      30.929 -11.872  -1.727  0.00  0.00     0.003 A 
ATOM     18  C   UNL d   1      32.066 -12.374  -1.109  0.00  0.00     0.012 A 
ATOM     19  C   UNL d   1      31.959 -13.318  -0.081  0.00  0.00    -0.024 A 
ATOM     20  C   UNL d   1      33.134 -13.782   0.538  0.00  0.00     0.012 A 
ATOM     21  C   UNL d   1      30.675 -13.803   0.320  0.00  0.00     0.001 A 
ATOM     22  C   UNL d   1      33.078 -14.732   1.553  0.00  0.00     0.001 A 
ATOM     23  C   UNL d   1      31.845 -15.231   1.950  0.00  0.00     0.001 A 
ATOM     24  C   UNL d   1      30.663 -14.782   1.341  0.00  0.00     0.014 A 
ENDBRANCH  12  15
ENDBRANCH   8   9
BRANCH   1  25
ATOM     25  N   UNL d   1      21.789 -19.003  -0.551  0.00  0.00    -0.273 N 
ATOM     26  C   UNL d   1      21.099 -19.779   0.353  0.00  0.00     0.148 A 
ATOM     27  C   UNL d   1      19.763 -19.517   0.111  0.00  0.00     0.166 A 
ATOM     28  N   UNL d   1      19.698 -18.575  -0.895  0.00  0.00    -0.152 NA
ATOM     29  N   UNL d   1      20.937 -18.245  -1.261  0.00  0.00     0.005 NA
BRANCH  27  30
ATOM     30  C   UNL d   1      18.592 -20.133   0.732  0.00  0.00     0.314 C 
ATOM     31  O   UNL d   1      17.862 -20.942   0.155  0.00  0.00    -0.257 OA
BRANCH  30  32
ATOM     32  O   UNL d   1      18.388 -19.731   2.027  0.00  0.00    -0.321 OA
ATOM     33  C   UNL d   1      19.102 -20.491   3.017  0.00  0.00     0.213 C 
ENDBRANCH  30  32
ENDBRANCH  27  30
ENDBRANCH   1  25
TORSDOF 5
ENDMDL
