MODEL 1
REMARK VINA RESULT:    -9.973      0.000      0.000
REMARK INTER + INTRA:         -15.062
REMARK INTER:                 -12.360
REMARK INTRA:                  -2.702
REMARK CONF_INDEPENDENT:        2.386
REMARK UNBOUND:                -2.702
REMARK  8 active torsions:
REMARK  status: ('A' for Active; 'I' for Inactive)
REMARK       I    between atoms: C_2  and  N_3 
REMARK    1  A    between atoms: C_2  and  C_27 
REMARK    2  A    between atoms: N_3  and  C_4 
REMARK    3  A    between atoms: C_7  and  C_8 
REMARK    4  A    between atoms: C_8  and  C_9 
REMARK    5  A    between atoms: C_12  and  N_13 
REMARK       I    between atoms: N_13  and  C_14 
REMARK    6  A    between atoms: C_14  and  C_16 
REMARK    7  A    between atoms: C_21  and  O_22 
REMARK    8  A    between atoms: C_25  and  O_26 
ROOT
ATOM      1  C   UNL d   1      26.768 -16.315  -1.426  0.00  0.00     0.077 C 
ENDROOT
BRANCH   1   2
ATOM      2  C   UNL d   1      25.452 -16.840  -0.890  0.00  0.00    -0.051 A 
ATOM      3  C   UNL d   1      24.430 -15.939  -0.571  0.00  0.00     0.010 A 
ATOM      4  C   UNL d   1      23.171 -16.410  -0.167  0.00  0.00     0.033 A 
ATOM      5  C   UNL d   1      22.928 -17.786  -0.055  0.00  0.00     0.068 A 
ATOM      6  C   UNL d   1      23.952 -18.679  -0.364  0.00  0.00     0.092 A 
ATOM      7  C   UNL d   1      25.204 -18.212  -0.730  0.00  0.00     0.046 A 
BRANCH   5   8
ATOM      8  N   UNL d   1      21.649 -18.249   0.331  0.00  0.00    -0.323 N 
ATOM      9  C   UNL d   1      20.832 -18.976  -0.534  0.00  0.00     0.251 C 
ATOM     10  O   UNL d   1      21.176 -19.384  -1.646  0.00  0.00    -0.270 OA
ATOM     11  H   UNL d   1      21.411 -18.188   1.310  0.00  0.00     0.169 HD
BRANCH   9  12
ATOM     12  C   UNL d   1      19.449 -19.349   0.038  0.00  0.00     0.213 C 
ATOM     13  C   UNL d   1      19.531 -19.463   1.559  0.00  0.00     0.044 C 
ATOM     14  C   UNL d   1      18.560 -20.563   1.888  0.00  0.00     0.029 C 
ATOM     15  C   UNL d   1      18.650 -21.456   0.673  0.00  0.00     0.168 C 
ATOM     16  O   UNL d   1      18.968 -20.614  -0.444  0.00  0.00    -0.376 OA
ENDBRANCH   9  12
ENDBRANCH   5   8
BRANCH   6  17
ATOM     17  O   UNL d   1      23.709 -20.022  -0.463  0.00  0.00    -0.358 OA
ATOM     18  H   UNL d   1      23.000 -20.171  -1.107  0.00  0.00     0.217 HD
ENDBRANCH   6  17
ENDBRANCH   1   2
BRANCH   1  19
ATOM     19  C   UNL d   1      26.644 -15.068  -2.268  0.00  0.00    -0.051 A 
ATOM     20  C   UNL d   1      27.467 -13.941  -2.126  0.00  0.00     0.010 A 
ATOM     21  C   UNL d   1      27.156 -12.733  -2.787  0.00  0.00     0.033 A 
ATOM     22  C   UNL d   1      26.058 -12.650  -3.674  0.00  0.00     0.068 A 
ATOM     23  C   UNL d   1      25.299 -13.827  -3.833  0.00  0.00     0.092 A 
ATOM     24  C   UNL d   1      25.574 -14.992  -3.134  0.00  0.00     0.046 A 
BRANCH  22  25
ATOM     25  N   UNL d   1      25.807 -11.390  -4.325  0.00  0.00    -0.323 N 
ATOM     26  C   UNL d   1      26.305 -10.161  -3.926  0.00  0.00     0.251 C 
ATOM     27  O   UNL d   1      27.029 -10.005  -2.936  0.00  0.00    -0.270 OA
ATOM     28  H   UNL d   1      25.203 -11.423  -5.141  0.00  0.00     0.169 HD
BRANCH  26  29
ATOM     29  C   UNL d   1      25.932  -8.899  -4.693  0.00  0.00     0.213 C 
ATOM     30  C   UNL d   1      25.212  -7.858  -3.870  0.00  0.00     0.044 C 
ATOM     31  C   UNL d   1      24.142  -7.358  -4.814  0.00  0.00     0.029 C 
ATOM     32  C   UNL d   1      23.785  -8.586  -5.610  0.00  0.00     0.168 C 
ATOM     33  O   UNL d   1      25.012  -9.295  -5.747  0.00  0.00    -0.376 OA
ENDBRANCH  26  29
ENDBRANCH  22  25
BRANCH  23  34
ATOM     34  O   UNL d   1      24.214 -14.053  -4.623  0.00  0.00    -0.358 OA
ATOM     35  H   UNL d   1      24.103 -13.299  -5.229  0.00  0.00     0.217 HD
ENDBRANCH  23  34
ENDBRANCH   1  19
TORSDOF 8
ENDMDL
MODEL 2
REMARK VINA RESULT:    -9.931      1.090     10.141
REMARK INTER + INTRA:         -15.452
REMARK INTER:                 -12.318
REMARK INTRA:                  -3.135
REMARK CONF_INDEPENDENT:        2.386
REMARK UNBOUND:                -3.135
REMARK  8 active torsions:
REMARK  status: ('A' for Active; 'I' for Inactive)
REMARK       I    between atoms: C_2  and  N_3 
REMARK    1  A    between atoms: C_2  and  C_27 
REMARK    2  A    between atoms: N_3  and  C_4 
REMARK    3  A    between atoms: C_7  and  C_8 
REMARK    4  A    between atoms: C_8  and  C_9 
REMARK    5  A    between atoms: C_12  and  N_13 
REMARK       I    between atoms: N_13  and  C_14 
REMARK    6  A    between atoms: C_14  and  C_16 
REMARK    7  A    between atoms: C_21  and  O_22 
REMARK    8  A    between atoms: C_25  and  O_26 
ROOT
ATOM      1  C   UNL d   1      26.893 -15.568  -0.807  0.00  0.00     0.077 C 
ENDROOT
BRANCH   1   2
ATOM      2  C   UNL d   1      26.461 -14.430  -1.709  0.00  0.00    -0.051 A 
ATOM      3  C   UNL d   1      26.910 -13.132  -1.442  0.00  0.00     0.010 A 
ATOM      4  C   UNL d   1      26.602 -12.081  -2.320  0.00  0.00     0.033 A 
ATOM      5  C   UNL d   1      25.821 -12.312  -3.462  0.00  0.00     0.068 A 
ATOM      6  C   UNL d   1      25.369 -13.605  -3.717  0.00  0.00     0.092 A 
ATOM      7  C   UNL d   1      25.645 -14.634  -2.832  0.00  0.00     0.046 A 
BRANCH   5   8
ATOM      8  N   UNL d   1      25.537 -11.250  -4.350  0.00  0.00    -0.323 N 
ATOM      9  C   UNL d   1      26.393 -10.159  -4.500  0.00  0.00     0.251 C 
ATOM     10  O   UNL d   1      27.509 -10.068  -3.982  0.00  0.00    -0.270 OA
ATOM     11  H   UNL d   1      24.781 -11.385  -5.005  0.00  0.00     0.169 HD
BRANCH   9  12
ATOM     12  C   UNL d   1      25.895  -9.070  -5.472  0.00  0.00     0.213 C 
ATOM     13  C   UNL d   1      25.569  -7.794  -4.698  0.00  0.00     0.044 C 
ATOM     14  C   UNL d   1      24.400  -7.212  -5.443  0.00  0.00     0.029 C 
ATOM     15  C   UNL d   1      23.693  -8.443  -5.958  0.00  0.00     0.168 C 
ATOM     16  O   UNL d   1      24.694  -9.449  -6.165  0.00  0.00    -0.376 OA
ENDBRANCH   9  12
ENDBRANCH   5   8
BRANCH   6  17
ATOM     17  O   UNL d   1      24.779 -13.920  -4.911  0.00  0.00    -0.358 OA
ATOM     18  H   UNL d   1      24.139 -13.229  -5.143  0.00  0.00     0.217 HD
ENDBRANCH   6  17
ENDBRANCH   1   2
BRANCH   1  19
ATOM     19  C   UNL d   1      25.794 -16.545  -0.469  0.00  0.00    -0.051 A 
ATOM     20  C   UNL d   1      26.005 -17.912  -0.235  0.00  0.00     0.010 A 
ATOM     21  C   UNL d   1      24.914 -18.804  -0.145  0.00  0.00     0.033 A 
ATOM     22  C   UNL d   1      23.583 -18.335  -0.204  0.00  0.00     0.068 A 
ATOM     23  C   UNL d   1      23.421 -16.945  -0.377  0.00  0.00     0.092 A 
ATOM     24  C   UNL d   1      24.496 -16.083  -0.524  0.00  0.00     0.046 A 
BRANCH  22  25
ATOM     25  N   UNL d   1      22.518 -19.300  -0.092  0.00  0.00    -0.323 N 
ATOM     26  C   UNL d   1      21.249 -19.167  -0.629  0.00  0.00     0.251 C 
ATOM     27  O   UNL d   1      20.876 -18.178  -1.270  0.00  0.00    -0.270 OA
ATOM     28  H   UNL d   1      22.732 -20.139   0.438  0.00  0.00     0.169 HD
BRANCH  26  29
ATOM     29  C   UNL d   1      20.207 -20.256  -0.406  0.00  0.00     0.213 C 
ATOM     30  C   UNL d   1      18.780 -19.760  -0.382  0.00  0.00     0.044 C 
ATOM     31  C   UNL d   1      18.164 -20.550   0.751  0.00  0.00     0.029 C 
ATOM     32  C   UNL d   1      19.304 -20.700   1.724  0.00  0.00     0.168 C 
ATOM     33  O   UNL d   1      20.462 -20.830   0.906  0.00  0.00    -0.376 OA
ENDBRANCH  26  29
ENDBRANCH  22  25
BRANCH  23  34
ATOM     34  O   UNL d   1      22.277 -16.213  -0.448  0.00  0.00    -0.358 OA
ATOM     35  H   UNL d   1      21.903 -16.297  -1.342  0.00  0.00     0.217 HD
ENDBRANCH  23  34
ENDBRANCH   1  19
TORSDOF 8
ENDMDL
MODEL 3
REMARK VINA RESULT:    -9.269      1.666      2.009
REMARK INTER + INTRA:         -15.147
REMARK INTER:                 -11.655
REMARK INTRA:                  -3.492
REMARK CONF_INDEPENDENT:        2.386
REMARK UNBOUND:                -3.492
REMARK  8 active torsions:
REMARK  status: ('A' for Active; 'I' for Inactive)
REMARK       I    between atoms: C_2  and  N_3 
REMARK    1  A    between atoms: C_2  and  C_27 
REMARK    2  A    between atoms: N_3  and  C_4 
REMARK    3  A    between atoms: C_7  and  C_8 
REMARK    4  A    between atoms: C_8  and  C_9 
REMARK    5  A    between atoms: C_12  and  N_13 
REMARK       I    between atoms: N_13  and  C_14 
REMARK    6  A    between atoms: C_14  and  C_16 
REMARK    7  A    between atoms: C_21  and  O_22 
REMARK    8  A    between atoms: C_25  and  O_26 
ROOT
ATOM      1  C   UNL d   1      27.000 -16.353  -1.328  0.00  0.00     0.077 C 
ENDROOT
BRANCH   1   2
ATOM      2  C   UNL d   1      25.684 -16.964  -0.891  0.00  0.00    -0.051 A 
ATOM      3  C   UNL d   1      25.689 -18.057  -0.019  0.00  0.00     0.010 A 
ATOM      4  C   UNL d   1      24.481 -18.575   0.475  0.00  0.00     0.033 A 
ATOM      5  C   UNL d   1      23.254 -18.020   0.082  0.00  0.00     0.068 A 
ATOM      6  C   UNL d   1      23.256 -16.938  -0.795  0.00  0.00     0.092 A 
ATOM      7  C   UNL d   1      24.446 -16.450  -1.308  0.00  0.00     0.046 A 
BRANCH   5   8
ATOM      8  N   UNL d   1      22.046 -18.536   0.604  0.00  0.00    -0.323 N 
ATOM      9  C   UNL d   1      20.995 -18.938  -0.219  0.00  0.00     0.251 C 
ATOM     10  O   UNL d   1      21.052 -19.000  -1.449  0.00  0.00    -0.270 OA
ATOM     11  H   UNL d   1      22.029 -18.768   1.586  0.00  0.00     0.169 HD
BRANCH   9  12
ATOM     12  C   UNL d   1      19.734 -19.422   0.527  0.00  0.00     0.213 C 
ATOM     13  C   UNL d   1      19.967 -20.825   1.083  0.00  0.00     0.044 C 
ATOM     14  C   UNL d   1      18.618 -21.480   0.980  0.00  0.00     0.029 C 
ATOM     15  C   UNL d   1      18.028 -20.825  -0.246  0.00  0.00     0.168 C 
ATOM     16  O   UNL d   1      18.580 -19.503  -0.324  0.00  0.00    -0.376 OA
ENDBRANCH   9  12
ENDBRANCH   5   8
BRANCH   6  17
ATOM     17  O   UNL d   1      22.107 -16.239  -1.051  0.00  0.00    -0.358 OA
ATOM     18  H   UNL d   1      21.387 -16.863  -1.228  0.00  0.00     0.217 HD
ENDBRANCH   6  17
ENDBRANCH   1   2
BRANCH   1  19
ATOM     19  C   UNL d   1      26.859 -15.175  -2.261  0.00  0.00    -0.051 A 
ATOM     20  C   UNL d   1      26.499 -13.884  -1.847  0.00  0.00     0.010 A 
ATOM     21  C   UNL d   1      26.171 -12.889  -2.791  0.00  0.00     0.033 A 
ATOM     22  C   UNL d   1      26.274 -13.139  -4.179  0.00  0.00     0.068 A 
ATOM     23  C   UNL d   1      26.701 -14.431  -4.546  0.00  0.00     0.092 A 
ATOM     24  C   UNL d   1      26.964 -15.422  -3.614  0.00  0.00     0.046 A 
BRANCH  22  25
ATOM     25  N   UNL d   1      25.935 -12.072  -5.087  0.00  0.00    -0.323 N 
ATOM     26  C   UNL d   1      26.699 -11.658  -6.165  0.00  0.00     0.251 C 
ATOM     27  O   UNL d   1      27.786 -12.163  -6.469  0.00  0.00    -0.270 OA
ATOM     28  H   UNL d   1      25.063 -11.588  -4.899  0.00  0.00     0.169 HD
BRANCH  26  29
ATOM     29  C   UNL d   1      26.233 -10.492  -7.028  0.00  0.00     0.213 C 
ATOM     30  C   UNL d   1      27.125  -9.275  -6.967  0.00  0.00     0.044 C 
ATOM     31  C   UNL d   1      26.137  -8.131  -6.922  0.00  0.00     0.029 C 
ATOM     32  C   UNL d   1      24.984  -8.704  -6.139  0.00  0.00     0.168 C 
ATOM     33  O   UNL d   1      24.936 -10.075  -6.520  0.00  0.00    -0.376 OA
ENDBRANCH  26  29
ENDBRANCH  22  25
BRANCH  23  34
ATOM     34  O   UNL d   1      26.911 -14.949  -5.787  0.00  0.00    -0.358 OA
ATOM     35  H   UNL d   1      27.188 -14.233  -6.385  0.00  0.00     0.217 HD
ENDBRANCH  23  34
ENDBRANCH   1  19
TORSDOF 8
ENDMDL
MODEL 4
REMARK VINA RESULT:    -9.173      4.329     10.362
REMARK INTER + INTRA:         -14.480
REMARK INTER:                 -11.560
REMARK INTRA:                  -2.921
REMARK CONF_INDEPENDENT:        2.386
REMARK UNBOUND:                -2.921
REMARK  8 active torsions:
REMARK  status: ('A' for Active; 'I' for Inactive)
REMARK       I    between atoms: C_2  and  N_3 
REMARK    1  A    between atoms: C_2  and  C_27 
REMARK    2  A    between atoms: N_3  and  C_4 
REMARK    3  A    between atoms: C_7  and  C_8 
REMARK    4  A    between atoms: C_8  and  C_9 
REMARK    5  A    between atoms: C_12  and  N_13 
REMARK       I    between atoms: N_13  and  C_14 
REMARK    6  A    between atoms: C_14  and  C_16 
REMARK    7  A    between atoms: C_21  and  O_22 
REMARK    8  A    between atoms: C_25  and  O_26 
ROOT
ATOM      1  C   UNL d   1      27.145 -15.320  -0.794  0.00  0.00     0.077 C 
ENDROOT
BRANCH   1   2
ATOM      2  C   UNL d   1      27.889 -15.618  -2.079  0.00  0.00    -0.051 A 
ATOM      3  C   UNL d   1      29.035 -16.420  -2.041  0.00  0.00     0.010 A 
ATOM      4  C   UNL d   1      29.682 -16.788  -3.231  0.00  0.00     0.033 A 
ATOM      5  C   UNL d   1      29.204 -16.339  -4.471  0.00  0.00     0.068 A 
ATOM      6  C   UNL d   1      28.068 -15.533  -4.502  0.00  0.00     0.092 A 
ATOM      7  C   UNL d   1      27.451 -15.142  -3.325  0.00  0.00     0.046 A 
BRANCH   5   8
ATOM      8  N   UNL d   1      29.850 -16.736  -5.663  0.00  0.00    -0.323 N 
ATOM      9  C   UNL d   1      30.405 -18.007  -5.819  0.00  0.00     0.251 C 
ATOM     10  O   UNL d   1      30.286 -18.927  -5.007  0.00  0.00    -0.270 OA
ATOM     11  H   UNL d   1      29.749 -16.134  -6.466  0.00  0.00     0.169 HD
BRANCH   9  12
ATOM     12  C   UNL d   1      31.118 -18.244  -7.166  0.00  0.00     0.213 C 
ATOM     13  C   UNL d   1      32.571 -18.644  -6.919  0.00  0.00     0.044 C 
ATOM     14  C   UNL d   1      33.312 -18.033  -8.076  0.00  0.00     0.029 C 
ATOM     15  C   UNL d   1      32.507 -16.787  -8.360  0.00  0.00     0.168 C 
ATOM     16  O   UNL d   1      31.149 -17.071  -7.994  0.00  0.00    -0.376 OA
ENDBRANCH   9  12
ENDBRANCH   5   8
BRANCH   6  17
ATOM     17  O   UNL d   1      27.450 -15.235  -5.686  0.00  0.00    -0.358 OA
ATOM     18  H   UNL d   1      26.492 -15.340  -5.581  0.00  0.00     0.217 HD
ENDBRANCH   6  17
ENDBRANCH   1   2
BRANCH   1  19
ATOM     19  C   UNL d   1      26.036 -16.295  -0.477  0.00  0.00    -0.051 A 
ATOM     20  C   UNL d   1      26.250 -17.609  -0.036  0.00  0.00     0.010 A 
ATOM     21  C   UNL d   1      25.182 -18.530   0.027  0.00  0.00     0.033 A 
ATOM     22  C   UNL d   1      23.859 -18.134  -0.272  0.00  0.00     0.068 A 
ATOM     23  C   UNL d   1      23.685 -16.787  -0.649  0.00  0.00     0.092 A 
ATOM     24  C   UNL d   1      24.746 -15.903  -0.767  0.00  0.00     0.046 A 
BRANCH  22  25
ATOM     25  N   UNL d   1      22.816 -19.123  -0.173  0.00  0.00    -0.323 N 
ATOM     26  C   UNL d   1      21.504 -18.955  -0.581  0.00  0.00     0.251 C 
ATOM     27  O   UNL d   1      21.069 -17.909  -1.076  0.00  0.00    -0.270 OA
ATOM     28  H   UNL d   1      23.082 -20.011   0.241  0.00  0.00     0.169 HD
BRANCH  26  29
ATOM     29  C   UNL d   1      20.494 -20.079  -0.389  0.00  0.00     0.213 C 
ATOM     30  C   UNL d   1      19.051 -19.652  -0.516  0.00  0.00     0.044 C 
ATOM     31  C   UNL d   1      18.371 -20.410   0.601  0.00  0.00     0.029 C 
ATOM     32  C   UNL d   1      19.424 -20.455   1.677  0.00  0.00     0.168 C 
ATOM     33  O   UNL d   1      20.655 -20.572   0.971  0.00  0.00    -0.376 OA
ENDBRANCH  26  29
ENDBRANCH  22  25
BRANCH  23  34
ATOM     34  O   UNL d   1      22.542 -16.122  -0.970  0.00  0.00    -0.358 OA
ATOM     35  H   UNL d   1      21.801 -16.513  -0.475  0.00  0.00     0.217 HD
ENDBRANCH  23  34
ENDBRANCH   1  19
TORSDOF 8
ENDMDL
MODEL 5
REMARK VINA RESULT:    -8.987      5.261     10.148
REMARK INTER + INTRA:         -15.086
REMARK INTER:                 -11.373
REMARK INTRA:                  -3.713
REMARK CONF_INDEPENDENT:        2.386
REMARK UNBOUND:                -3.713
REMARK  8 active torsions:
REMARK  status: ('A' for Active; 'I' for Inactive)
REMARK       I    between atoms: C_2  and  N_3 
REMARK    1  A    between atoms: C_2  and  C_27 
REMARK    2  A    between atoms: N_3  and  C_4 
REMARK    3  A    between atoms: C_7  and  C_8 
REMARK    4  A    between atoms: C_8  and  C_9 
REMARK    5  A    between atoms: C_12  and  N_13 
REMARK       I    between atoms: N_13  and  C_14 
REMARK    6  A    between atoms: C_14  and  C_16 
REMARK    7  A    between atoms: C_21  and  O_22 
REMARK    8  A    between atoms: C_25  and  O_26 
ROOT
ATOM      1  C   UNL d   1      26.832 -15.380  -0.919  0.00  0.00     0.077 C 
ENDROOT
BRANCH   1   2
ATOM      2  C   UNL d   1      27.440 -14.693   0.286  0.00  0.00    -0.051 A 
ATOM      3  C   UNL d   1      26.651 -13.835   1.060  0.00  0.00     0.010 A 
ATOM      4  C   UNL d   1      27.167 -13.266   2.235  0.00  0.00     0.033 A 
ATOM      5  C   UNL d   1      28.484 -13.530   2.637  0.00  0.00     0.068 A 
ATOM      6  C   UNL d   1      29.268 -14.378   1.856  0.00  0.00     0.092 A 
ATOM      7  C   UNL d   1      28.769 -14.911   0.679  0.00  0.00     0.046 A 
BRANCH   5   8
ATOM      8  N   UNL d   1      28.984 -12.970   3.834  0.00  0.00    -0.323 N 
ATOM      9  C   UNL d   1      29.260 -13.749   4.958  0.00  0.00     0.251 C 
ATOM     10  O   UNL d   1      29.215 -14.981   4.985  0.00  0.00    -0.270 OA
ATOM     11  H   UNL d   1      29.301 -12.013   3.799  0.00  0.00     0.169 HD
BRANCH   9  12
ATOM     12  C   UNL d   1      29.745 -12.960   6.192  0.00  0.00     0.213 C 
ATOM     13  C   UNL d   1      28.778 -13.169   7.355  0.00  0.00     0.044 C 
ATOM     14  C   UNL d   1      28.798 -11.851   8.078  0.00  0.00     0.029 C 
ATOM     15  C   UNL d   1      29.037 -10.866   6.958  0.00  0.00     0.168 C 
ATOM     16  O   UNL d   1      29.809 -11.544   5.958  0.00  0.00    -0.376 OA
ENDBRANCH   9  12
ENDBRANCH   5   8
BRANCH   6  17
ATOM     17  O   UNL d   1      30.482 -14.823   2.304  0.00  0.00    -0.358 OA
ATOM     18  H   UNL d   1      30.377 -15.198   3.192  0.00  0.00     0.217 HD
ENDBRANCH   6  17
ENDBRANCH   1   2
BRANCH   1  19
ATOM     19  C   UNL d   1      25.735 -16.362  -0.587  0.00  0.00    -0.051 A 
ATOM     20  C   UNL d   1      25.962 -17.698  -0.225  0.00  0.00     0.010 A 
ATOM     21  C   UNL d   1      24.892 -18.616  -0.146  0.00  0.00     0.033 A 
ATOM     22  C   UNL d   1      23.558 -18.198  -0.348  0.00  0.00     0.068 A 
ATOM     23  C   UNL d   1      23.374 -16.832  -0.648  0.00  0.00     0.092 A 
ATOM     24  C   UNL d   1      24.434 -15.950  -0.782  0.00  0.00     0.046 A 
BRANCH  22  25
ATOM     25  N   UNL d   1      22.514 -19.185  -0.239  0.00  0.00    -0.323 N 
ATOM     26  C   UNL d   1      21.217 -19.043  -0.705  0.00  0.00     0.251 C 
ATOM     27  O   UNL d   1      20.800 -18.025  -1.269  0.00  0.00    -0.270 OA
ATOM     28  H   UNL d   1      22.766 -20.049   0.231  0.00  0.00     0.169 HD
BRANCH  26  29
ATOM     29  C   UNL d   1      20.203 -20.160  -0.494  0.00  0.00     0.213 C 
ATOM     30  C   UNL d   1      18.783 -19.685  -0.297  0.00  0.00     0.044 C 
ATOM     31  C   UNL d   1      18.273 -20.584   0.806  0.00  0.00     0.029 C 
ATOM     32  C   UNL d   1      19.495 -20.811   1.657  0.00  0.00     0.168 C 
ATOM     33  O   UNL d   1      20.576 -20.851   0.731  0.00  0.00    -0.376 OA
ENDBRANCH  26  29
ENDBRANCH  22  25
BRANCH  23  34
ATOM     34  O   UNL d   1      22.220 -16.146  -0.869  0.00  0.00    -0.358 OA
ATOM     35  H   UNL d   1      21.529 -16.492  -0.278  0.00  0.00     0.217 HD
ENDBRANCH  23  34
ENDBRANCH   1  19
TORSDOF 8
ENDMDL
MODEL 6
REMARK VINA RESULT:    -8.851      2.407     10.332
REMARK INTER + INTRA:         -14.931
REMARK INTER:                 -11.237
REMARK INTRA:                  -3.693
REMARK CONF_INDEPENDENT:        2.386
REMARK UNBOUND:                -3.693
REMARK  8 active torsions:
REMARK  status: ('A' for Active; 'I' for Inactive)
REMARK       I    between atoms: C_2  and  N_3 
REMARK    1  A    between atoms: C_2  and  C_27 
REMARK    2  A    between atoms: N_3  and  C_4 
REMARK    3  A    between atoms: C_7  and  C_8 
REMARK    4  A    between atoms: C_8  and  C_9 
REMARK    5  A    between atoms: C_12  and  N_13 
REMARK       I    between atoms: N_13  and  C_14 
REMARK    6  A    between atoms: C_14  and  C_16 
REMARK    7  A    between atoms: C_21  and  O_22 
REMARK    8  A    between atoms: C_25  and  O_26 
ROOT
ATOM      1  C   UNL d   1      27.050 -15.403  -0.830  0.00  0.00     0.077 C 
ENDROOT
BRANCH   1   2
ATOM      2  C   UNL d   1      26.897 -14.673  -2.148  0.00  0.00    -0.051 A 
ATOM      3  C   UNL d   1      26.839 -13.276  -2.159  0.00  0.00     0.010 A 
ATOM      4  C   UNL d   1      26.796 -12.577  -3.375  0.00  0.00     0.033 A 
ATOM      5  C   UNL d   1      26.786 -13.269  -4.595  0.00  0.00     0.068 A 
ATOM      6  C   UNL d   1      26.834 -14.662  -4.578  0.00  0.00     0.092 A 
ATOM      7  C   UNL d   1      26.842 -15.351  -3.376  0.00  0.00     0.046 A 
BRANCH   5   8
ATOM      8  N   UNL d   1      26.766 -12.554  -5.814  0.00  0.00    -0.323 N 
ATOM      9  C   UNL d   1      27.780 -12.679  -6.763  0.00  0.00     0.251 C 
ATOM     10  O   UNL d   1      28.706 -13.491  -6.697  0.00  0.00    -0.270 OA
ATOM     11  H   UNL d   1      25.909 -12.079  -6.057  0.00  0.00     0.169 HD
BRANCH   9  12
ATOM     12  C   UNL d   1      27.619 -11.781  -8.007  0.00  0.00     0.213 C 
ATOM     13  C   UNL d   1      28.758 -10.764  -8.063  0.00  0.00     0.044 C 
ATOM     14  C   UNL d   1      28.117  -9.541  -8.658  0.00  0.00     0.029 C 
ATOM     15  C   UNL d   1      26.697  -9.634  -8.150  0.00  0.00     0.168 C 
ATOM     16  O   UNL d   1      26.396 -11.028  -7.997  0.00  0.00    -0.376 OA
ENDBRANCH   9  12
ENDBRANCH   5   8
BRANCH   6  17
ATOM     17  O   UNL d   1      27.026 -15.372  -5.732  0.00  0.00    -0.358 OA
ATOM     18  H   UNL d   1      27.949 -15.280  -6.013  0.00  0.00     0.217 HD
ENDBRANCH   6  17
ENDBRANCH   1   2
BRANCH   1  19
ATOM     19  C   UNL d   1      25.932 -16.368  -0.520  0.00  0.00    -0.051 A 
ATOM     20  C   UNL d   1      26.131 -17.709  -0.156  0.00  0.00     0.010 A 
ATOM     21  C   UNL d   1      25.045 -18.608  -0.098  0.00  0.00     0.033 A 
ATOM     22  C   UNL d   1      23.721 -18.168  -0.322  0.00  0.00     0.068 A 
ATOM     23  C   UNL d   1      23.565 -16.799  -0.622  0.00  0.00     0.092 A 
ATOM     24  C   UNL d   1      24.642 -15.934  -0.736  0.00  0.00     0.046 A 
BRANCH  22  25
ATOM     25  N   UNL d   1      22.660 -19.138  -0.233  0.00  0.00    -0.323 N 
ATOM     26  C   UNL d   1      21.371 -18.969  -0.710  0.00  0.00     0.251 C 
ATOM     27  O   UNL d   1      20.976 -17.939  -1.269  0.00  0.00    -0.270 OA
ATOM     28  H   UNL d   1      22.892 -20.011   0.230  0.00  0.00     0.169 HD
BRANCH  26  29
ATOM     29  C   UNL d   1      20.335 -20.070  -0.521  0.00  0.00     0.213 C 
ATOM     30  C   UNL d   1      18.913 -19.577  -0.401  0.00  0.00     0.044 C 
ATOM     31  C   UNL d   1      18.343 -20.445   0.699  0.00  0.00     0.029 C 
ATOM     32  C   UNL d   1      19.522 -20.664   1.610  0.00  0.00     0.168 C 
ATOM     33  O   UNL d   1      20.644 -20.737   0.735  0.00  0.00    -0.376 OA
ENDBRANCH  26  29
ENDBRANCH  22  25
BRANCH  23  34
ATOM     34  O   UNL d   1      22.426 -16.094  -0.861  0.00  0.00    -0.358 OA
ATOM     35  H   UNL d   1      21.683 -16.533  -0.412  0.00  0.00     0.217 HD
ENDBRANCH  23  34
ENDBRANCH   1  19
TORSDOF 8
ENDMDL
MODEL 7
REMARK VINA RESULT:    -8.415      4.981      6.692
REMARK INTER + INTRA:         -14.225
REMARK INTER:                 -10.802
REMARK INTRA:                  -3.423
REMARK CONF_INDEPENDENT:        2.386
REMARK UNBOUND:                -3.423
REMARK  8 active torsions:
REMARK  status: ('A' for Active; 'I' for Inactive)
REMARK       I    between atoms: C_2  and  N_3 
REMARK    1  A    between atoms: C_2  and  C_27 
REMARK    2  A    between atoms: N_3  and  C_4 
REMARK    3  A    between atoms: C_7  and  C_8 
REMARK    4  A    between atoms: C_8  and  C_9 
REMARK    5  A    between atoms: C_12  and  N_13 
REMARK       I    between atoms: N_13  and  C_14 
REMARK    6  A    between atoms: C_14  and  C_16 
REMARK    7  A    between atoms: C_21  and  O_22 
REMARK    8  A    between atoms: C_25  and  O_26 
ROOT
ATOM      1  C   UNL d   1      26.414 -15.180  -1.226  0.00  0.00     0.077 C 
ENDROOT
BRANCH   1   2
ATOM      2  C   UNL d   1      25.340 -16.196  -0.895  0.00  0.00    -0.051 A 
ATOM      3  C   UNL d   1      25.683 -17.360  -0.200  0.00  0.00     0.010 A 
ATOM      4  C   UNL d   1      24.689 -18.265   0.203  0.00  0.00     0.033 A 
ATOM      5  C   UNL d   1      23.342 -18.027  -0.107  0.00  0.00     0.068 A 
ATOM      6  C   UNL d   1      23.006 -16.871  -0.808  0.00  0.00     0.092 A 
ATOM      7  C   UNL d   1      23.992 -15.996  -1.234  0.00  0.00     0.046 A 
BRANCH   5   8
ATOM      8  N   UNL d   1      22.347 -18.934   0.324  0.00  0.00    -0.323 N 
ATOM      9  C   UNL d   1      21.402 -19.469  -0.551  0.00  0.00     0.251 C 
ATOM     10  O   UNL d   1      21.409 -19.309  -1.773  0.00  0.00    -0.270 OA
ATOM     11  H   UNL d   1      22.445 -19.321   1.251  0.00  0.00     0.169 HD
BRANCH   9  12
ATOM     12  C   UNL d   1      20.360 -20.397   0.106  0.00  0.00     0.213 C 
ATOM     13  C   UNL d   1      18.980 -19.746   0.055  0.00  0.00     0.044 C 
ATOM     14  C   UNL d   1      18.323 -20.198   1.330  0.00  0.00     0.029 C 
ATOM     15  C   UNL d   1      19.493 -20.314   2.279  0.00  0.00     0.168 C 
ATOM     16  O   UNL d   1      20.641 -20.659   1.491  0.00  0.00    -0.376 OA
ENDBRANCH   9  12
ENDBRANCH   5   8
BRANCH   6  17
ATOM     17  O   UNL d   1      21.699 -16.495  -0.959  0.00  0.00    -0.358 OA
ATOM     18  H   UNL d   1      21.228 -17.176  -1.463  0.00  0.00     0.217 HD
ENDBRANCH   6  17
ENDBRANCH   1   2
BRANCH   1  19
ATOM     19  C   UNL d   1      27.109 -14.594  -0.022  0.00  0.00    -0.051 A 
ATOM     20  C   UNL d   1      28.036 -15.293   0.766  0.00  0.00     0.010 A 
ATOM     21  C   UNL d   1      28.477 -14.766   1.998  0.00  0.00     0.033 A 
ATOM     22  C   UNL d   1      28.063 -13.487   2.434  0.00  0.00     0.068 A 
ATOM     23  C   UNL d   1      27.180 -12.796   1.578  0.00  0.00     0.092 A 
ATOM     24  C   UNL d   1      26.705 -13.345   0.398  0.00  0.00     0.046 A 
BRANCH  22  25
ATOM     25  N   UNL d   1      28.563 -13.005   3.697  0.00  0.00    -0.323 N 
ATOM     26  C   UNL d   1      28.985 -13.796   4.752  0.00  0.00     0.251 C 
ATOM     27  O   UNL d   1      28.969 -15.032   4.731  0.00  0.00    -0.270 OA
ATOM     28  H   UNL d   1      28.592 -11.997   3.808  0.00  0.00     0.169 HD
BRANCH  26  29
ATOM     29  C   UNL d   1      29.463 -13.152   6.047  0.00  0.00     0.213 C 
ATOM     30  C   UNL d   1      28.852 -13.736   7.299  0.00  0.00     0.044 C 
ATOM     31  C   UNL d   1      28.578 -12.515   8.146  0.00  0.00     0.029 C 
ATOM     32  C   UNL d   1      28.228 -11.461   7.128  0.00  0.00     0.168 C 
ATOM     33  O   UNL d   1      29.054 -11.756   6.007  0.00  0.00    -0.376 OA
ENDBRANCH  26  29
ENDBRANCH  22  25
BRANCH  23  34
ATOM     34  O   UNL d   1      26.636 -11.557   1.720  0.00  0.00    -0.358 OA
ATOM     35  H   UNL d   1      27.254 -10.996   2.220  0.00  0.00     0.217 HD
ENDBRANCH  23  34
ENDBRANCH   1  19
TORSDOF 8
ENDMDL
MODEL 8
REMARK VINA RESULT:    -8.391      2.884      3.413
REMARK INTER + INTRA:         -14.082
REMARK INTER:                 -10.778
REMARK INTRA:                  -3.304
REMARK CONF_INDEPENDENT:        2.386
REMARK UNBOUND:                -3.304
REMARK  8 active torsions:
REMARK  status: ('A' for Active; 'I' for Inactive)
REMARK       I    between atoms: C_2  and  N_3 
REMARK    1  A    between atoms: C_2  and  C_27 
REMARK    2  A    between atoms: N_3  and  C_4 
REMARK    3  A    between atoms: C_7  and  C_8 
REMARK    4  A    between atoms: C_8  and  C_9 
REMARK    5  A    between atoms: C_12  and  N_13 
REMARK       I    between atoms: N_13  and  C_14 
REMARK    6  A    between atoms: C_14  and  C_16 
REMARK    7  A    between atoms: C_21  and  O_22 
REMARK    8  A    between atoms: C_25  and  O_26 
ROOT
ATOM      1  C   UNL d   1      26.697 -15.342  -1.122  0.00  0.00     0.077 C 
ENDROOT
BRANCH   1   2
ATOM      2  C   UNL d   1      25.545 -16.287  -0.844  0.00  0.00    -0.051 A 
ATOM      3  C   UNL d   1      25.792 -17.501  -0.196  0.00  0.00     0.010 A 
ATOM      4  C   UNL d   1      24.728 -18.345   0.158  0.00  0.00     0.033 A 
ATOM      5  C   UNL d   1      23.406 -17.994  -0.154  0.00  0.00     0.068 A 
ATOM      6  C   UNL d   1      23.167 -16.787  -0.809  0.00  0.00     0.092 A 
ATOM      7  C   UNL d   1      24.221 -15.972  -1.187  0.00  0.00     0.046 A 
BRANCH   5   8
ATOM      8  N   UNL d   1      22.341 -18.841   0.228  0.00  0.00    -0.323 N 
ATOM      9  C   UNL d   1      21.397 -19.305  -0.688  0.00  0.00     0.251 C 
ATOM     10  O   UNL d   1      21.460 -19.132  -1.907  0.00  0.00    -0.270 OA
ATOM     11  H   UNL d   1      22.380 -19.243   1.153  0.00  0.00     0.169 HD
BRANCH   9  12
ATOM     12  C   UNL d   1      20.276 -20.173  -0.082  0.00  0.00     0.213 C 
ATOM     13  C   UNL d   1      19.049 -19.308   0.205  0.00  0.00     0.044 C 
ATOM     14  C   UNL d   1      18.464 -19.920   1.448  0.00  0.00     0.029 C 
ATOM     15  C   UNL d   1      19.687 -20.437   2.168  0.00  0.00     0.168 C 
ATOM     16  O   UNL d   1      20.652 -20.780   1.164  0.00  0.00    -0.376 OA
ENDBRANCH   9  12
ENDBRANCH   5   8
BRANCH   6  17
ATOM     17  O   UNL d   1      21.894 -16.308  -0.956  0.00  0.00    -0.358 OA
ATOM     18  H   UNL d   1      21.383 -16.924  -1.503  0.00  0.00     0.217 HD
ENDBRANCH   6  17
ENDBRANCH   1   2
BRANCH   1  19
ATOM     19  C   UNL d   1      26.786 -14.874  -2.554  0.00  0.00    -0.051 A 
ATOM     20  C   UNL d   1      27.589 -15.484  -3.529  0.00  0.00     0.010 A 
ATOM     21  C   UNL d   1      27.796 -14.866  -4.781  0.00  0.00     0.033 A 
ATOM     22  C   UNL d   1      27.138 -13.661  -5.117  0.00  0.00     0.068 A 
ATOM     23  C   UNL d   1      26.292 -13.120  -4.128  0.00  0.00     0.092 A 
ATOM     24  C   UNL d   1      26.139 -13.700  -2.879  0.00  0.00     0.046 A 
BRANCH  22  25
ATOM     25  N   UNL d   1      27.386 -13.093  -6.418  0.00  0.00    -0.323 N 
ATOM     26  C   UNL d   1      28.479 -13.366  -7.223  0.00  0.00     0.251 C 
ATOM     27  O   UNL d   1      29.389 -14.138  -6.903  0.00  0.00    -0.270 OA
ATOM     28  H   UNL d   1      26.694 -12.430  -6.753  0.00  0.00     0.169 HD
BRANCH  26  29
ATOM     29  C   UNL d   1      28.631 -12.667  -8.568  0.00  0.00     0.213 C 
ATOM     30  C   UNL d   1      29.780 -11.690  -8.638  0.00  0.00     0.044 C 
ATOM     31  C   UNL d   1      29.192 -10.527  -9.404  0.00  0.00     0.029 C 
ATOM     32  C   UNL d   1      27.752 -10.517  -8.962  0.00  0.00     0.168 C 
ATOM     33  O   UNL d   1      27.420 -11.890  -8.786  0.00  0.00    -0.376 OA
ENDBRANCH  26  29
ENDBRANCH  22  25
BRANCH  23  34
ATOM     34  O   UNL d   1      25.522 -11.998  -4.172  0.00  0.00    -0.358 OA
ATOM     35  H   UNL d   1      24.586 -12.260  -4.218  0.00  0.00     0.217 HD
ENDBRANCH  23  34
ENDBRANCH   1  19
TORSDOF 8
ENDMDL
MODEL 9
REMARK VINA RESULT:    -8.359      4.183      5.752
REMARK INTER + INTRA:         -14.801
REMARK INTER:                 -10.746
REMARK INTRA:                  -4.056
REMARK CONF_INDEPENDENT:        2.386
REMARK UNBOUND:                -4.056
REMARK  8 active torsions:
REMARK  status: ('A' for Active; 'I' for Inactive)
REMARK       I    between atoms: C_2  and  N_3 
REMARK    1  A    between atoms: C_2  and  C_27 
REMARK    2  A    between atoms: N_3  and  C_4 
REMARK    3  A    between atoms: C_7  and  C_8 
REMARK    4  A    between atoms: C_8  and  C_9 
REMARK    5  A    between atoms: C_12  and  N_13 
REMARK       I    between atoms: N_13  and  C_14 
REMARK    6  A    between atoms: C_14  and  C_16 
REMARK    7  A    between atoms: C_21  and  O_22 
REMARK    8  A    between atoms: C_25  and  O_26 
ROOT
ATOM      1  C   UNL d   1      26.020 -15.068  -1.460  0.00  0.00     0.077 C 
ENDROOT
BRANCH   1   2
ATOM      2  C   UNL d   1      24.998 -16.115  -1.070  0.00  0.00    -0.051 A 
ATOM      3  C   UNL d   1      25.409 -17.246  -0.357  0.00  0.00     0.010 A 
ATOM      4  C   UNL d   1      24.465 -18.179   0.099  0.00  0.00     0.033 A 
ATOM      5  C   UNL d   1      23.100 -18.003  -0.174  0.00  0.00     0.068 A 
ATOM      6  C   UNL d   1      22.697 -16.879  -0.893  0.00  0.00     0.092 A 
ATOM      7  C   UNL d   1      23.634 -15.978  -1.372  0.00  0.00     0.046 A 
BRANCH   5   8
ATOM      8  N   UNL d   1      22.157 -18.937   0.311  0.00  0.00    -0.323 N 
ATOM      9  C   UNL d   1      21.174 -19.491  -0.509  0.00  0.00     0.251 C 
ATOM     10  O   UNL d   1      21.104 -19.325  -1.729  0.00  0.00    -0.270 OA
ATOM     11  H   UNL d   1      22.320 -19.325   1.228  0.00  0.00     0.169 HD
BRANCH   9  12
ATOM     12  C   UNL d   1      20.197 -20.449   0.203  0.00  0.00     0.213 C 
ATOM     13  C   UNL d   1      18.815 -19.806   0.296  0.00  0.00     0.044 C 
ATOM     14  C   UNL d   1      18.274 -20.305   1.607  0.00  0.00     0.029 C 
ATOM     15  C   UNL d   1      19.523 -20.446   2.445  0.00  0.00     0.168 C 
ATOM     16  O   UNL d   1      20.599 -20.756   1.548  0.00  0.00    -0.376 OA
ENDBRANCH   9  12
ENDBRANCH   5   8
BRANCH   6  17
ATOM     17  O   UNL d   1      21.372 -16.559  -1.013  0.00  0.00    -0.358 OA
ATOM     18  H   UNL d   1      20.950 -17.175  -1.631  0.00  0.00     0.217 HD
ENDBRANCH   6  17
ENDBRANCH   1   2
BRANCH   1  19
ATOM     19  C   UNL d   1      27.142 -15.585  -2.327  0.00  0.00    -0.051 A 
ATOM     20  C   UNL d   1      28.282 -16.235  -1.829  0.00  0.00     0.010 A 
ATOM     21  C   UNL d   1      29.388 -16.492  -2.667  0.00  0.00     0.033 A 
ATOM     22  C   UNL d   1      29.347 -16.179  -4.044  0.00  0.00     0.068 A 
ATOM     23  C   UNL d   1      28.157 -15.586  -4.511  0.00  0.00     0.092 A 
ATOM     24  C   UNL d   1      27.097 -15.281  -3.671  0.00  0.00     0.046 A 
BRANCH  22  25
ATOM     25  N   UNL d   1      30.508 -16.482  -4.843  0.00  0.00    -0.323 N 
ATOM     26  C   UNL d   1      30.931 -15.771  -5.954  0.00  0.00     0.251 C 
ATOM     27  O   UNL d   1      30.339 -14.781  -6.399  0.00  0.00    -0.270 OA
ATOM     28  H   UNL d   1      31.045 -17.294  -4.558  0.00  0.00     0.169 HD
BRANCH  26  29
ATOM     29  C   UNL d   1      32.163 -16.222  -6.726  0.00  0.00     0.213 C 
ATOM     30  C   UNL d   1      31.894 -16.617  -8.159  0.00  0.00     0.044 C 
ATOM     31  C   UNL d   1      32.752 -17.848  -8.340  0.00  0.00     0.029 C 
ATOM     32  C   UNL d   1      32.710 -18.499  -6.982  0.00  0.00     0.168 C 
ATOM     33  O   UNL d   1      32.672 -17.412  -6.063  0.00  0.00    -0.376 OA
ENDBRANCH  26  29
ENDBRANCH  22  25
BRANCH  23  34
ATOM     34  O   UNL d   1      27.823 -15.199  -5.772  0.00  0.00    -0.358 OA
ATOM     35  H   UNL d   1      28.270 -14.358  -5.973  0.00  0.00     0.217 HD
ENDBRANCH  23  34
ENDBRANCH   1  19
TORSDOF 8
ENDMDL
