MODEL 1
REMARK VINA RESULT:    -6.498      0.000      0.000
REMARK INTER + INTRA:         -14.453
REMARK INTER:                 -10.078
REMARK INTRA:                  -4.376
REMARK CONF_INDEPENDENT:        3.580
REMARK UNBOUND:                -4.376
REMARK  12 active torsions:
REMARK  status: ('A' for Active; 'I' for Inactive)
REMARK    1  A    between atoms: C_2  and  C_3 
REMARK    2  A    between atoms: C_3  and  C_4 
REMARK    3  A    between atoms: C_4  and  N_5 
REMARK       I    between atoms: N_5  and  C_6 
REMARK    4  A    between atoms: C_8  and  C_6 
REMARK    5  A    between atoms: C_8  and  N_22 
REMARK    6  A    between atoms: C_8  and  C_9 
REMARK    7  A    between atoms: C_9  and  C_10 
REMARK    8  A    between atoms: C_9  and  C_16 
REMARK       I    between atoms: N_22  and  C_23 
REMARK    9  A    between atoms: N_22  and  C_33 
REMARK   10  A    between atoms: C_23  and  C_25 
REMARK   11  A    between atoms: C_26  and  O_27 
REMARK   12  A    between atoms: C_31  and  O_32 
ROOT
ATOM      1  C   UNL d   1      28.667 -14.621  -0.533  0.00  0.00     0.189 C 
ENDROOT
BRANCH   1   2
ATOM      2  N   UNL d   1      28.969 -15.491  -1.899  0.00  0.00    -0.329 N 
ATOM      3  C   UNL d   1      28.727 -15.124  -3.423  0.00  0.00     0.241 C 
ATOM      4  O   UNL d   1      28.779 -15.948  -4.346  0.00  0.00    -0.272 OA
BRANCH   3   5
ATOM      5  C   UNL d   1      28.126 -13.723  -4.086  0.00  0.00     0.149 A 
ATOM      6  C   UNL d   1      26.401 -14.309  -4.586  0.00  0.00     0.123 A 
ATOM      7  C   UNL d   1      25.133 -12.990  -4.392  0.00  0.00     0.058 A 
ATOM      8  C   UNL d   1      25.531 -11.342  -3.738  0.00  0.00    -0.016 A 
ATOM      9  C   UNL d   1      26.982 -10.800  -3.203  0.00  0.00     0.030 A 
ATOM     10  C   UNL d   1      28.146 -11.815  -3.403  0.00  0.00     0.066 A 
BRANCH   6  11
ATOM     11  O   UNL d   1      25.864 -15.575  -4.506  0.00  0.00    -0.384 OA
ATOM     12  H   UNL d   1      26.618 -16.189  -4.517  0.00  0.00     0.210 HD
ENDBRANCH   6  11
BRANCH  10  13
ATOM     13  O   UNL d   1      28.879 -11.346  -1.883  0.00  0.00    -0.363 OA
ATOM     14  H   UNL d   1      29.364 -11.704  -1.138  0.00  0.00     0.217 HD
ENDBRANCH  10  13
ENDBRANCH   3   5
BRANCH   2  15
ATOM     15  C   UNL d   1      29.904 -16.593  -1.660  0.00  0.00     0.025 C 
ATOM     16  C   UNL d   1      29.449 -17.503  -0.522  0.00  0.00     0.037 C 
ATOM     17  C   UNL d   1      30.029 -17.451  -2.886  0.00  0.00     0.037 C 
ATOM     18  C   UNL d   1      31.291 -16.070  -1.428  0.00  0.00     0.037 C 
ENDBRANCH   2  15
ENDBRANCH   1   2
BRANCH   1  19
ATOM     19  C   UNL d   1      27.760 -15.291   0.414  0.00  0.00     0.061 C 
BRANCH  19  20
ATOM     20  C   UNL d   1      26.683 -16.223  -0.238  0.00  0.00    -0.051 C 
ATOM     21  C   UNL d   1      25.882 -15.760  -1.318  0.00  0.00     0.007 C 
ATOM     22  C   UNL d   1      24.704 -16.388  -1.645  0.00  0.00     0.001 C 
ATOM     23  C   UNL d   1      24.475 -17.643  -1.118  0.00  0.00     0.000 C 
ATOM     24  C   UNL d   1      25.292 -18.163  -0.107  0.00  0.00     0.001 C 
ATOM     25  C   UNL d   1      26.374 -17.439   0.369  0.00  0.00     0.007 C 
ENDBRANCH  19  20
BRANCH  19  26
ATOM     26  C   UNL d   1      27.240 -13.999   0.921  0.00  0.00    -0.009 C 
ATOM     27  C   UNL d   1      27.030 -12.199   0.373  0.00  0.00     0.010 C 
ATOM     28  C   UNL d   1      27.198 -10.817   1.549  0.00  0.00     0.021 C 
ATOM     29  C   UNL d   1      27.243 -10.957   3.099  0.00  0.00    -0.024 C 
ATOM     30  C   UNL d   1      27.406 -12.407   3.660  0.00  0.00    -0.024 C 
ATOM     31  C   UNL d   1      27.519 -14.166   2.712  0.00  0.00     0.027 C 
ENDBRANCH  19  26
ENDBRANCH   1  19
BRANCH   1  32
ATOM     32  C   UNL d   1      29.763 -14.157   0.477  0.00  0.00     0.241 C 
ATOM     33  N   UNL d   1      30.134 -15.020   1.469  0.00  0.00    -0.359 N 
ATOM     34  H   UNL d   1      29.660 -15.881   1.630  0.00  0.00     0.162 HD
ATOM     35  O   UNL d   1      30.176 -12.994   0.473  0.00  0.00    -0.271 OA
BRANCH  33  36
ATOM     36  C   UNL d   1      31.170 -14.747   2.391  0.00  0.00     0.122 C 
BRANCH  36  37
ATOM     37  C   UNL d   1      30.673 -13.890   3.549  0.00  0.00     0.019 C 
BRANCH  37  38
ATOM     38  C   UNL d   1      30.079 -14.825   4.584  0.00  0.00    -0.003 C 
ATOM     39  C   UNL d   1      29.482 -14.057   5.741  0.00  0.00     0.005 C 
ENDBRANCH  37  38
ENDBRANCH  36  37
ENDBRANCH  33  36
ENDBRANCH   1  32
TORSDOF 12
ENDMDL
MODEL 2
REMARK VINA RESULT:    -6.180      0.851      1.504
REMARK INTER + INTRA:         -14.141
REMARK INTER:                  -9.760
REMARK INTRA:                  -4.381
REMARK CONF_INDEPENDENT:        3.580
REMARK UNBOUND:                -4.381
REMARK  12 active torsions:
REMARK  status: ('A' for Active; 'I' for Inactive)
REMARK    1  A    between atoms: C_2  and  C_3 
REMARK    2  A    between atoms: C_3  and  C_4 
REMARK    3  A    between atoms: C_4  and  N_5 
REMARK       I    between atoms: N_5  and  C_6 
REMARK    4  A    between atoms: C_8  and  C_6 
REMARK    5  A    between atoms: C_8  and  N_22 
REMARK    6  A    between atoms: C_8  and  C_9 
REMARK    7  A    between atoms: C_9  and  C_10 
REMARK    8  A    between atoms: C_9  and  C_16 
REMARK       I    between atoms: N_22  and  C_23 
REMARK    9  A    between atoms: N_22  and  C_33 
REMARK   10  A    between atoms: C_23  and  C_25 
REMARK   11  A    between atoms: C_26  and  O_27 
REMARK   12  A    between atoms: C_31  and  O_32 
ROOT
ATOM      1  C   UNL d   1      28.784 -14.746  -0.653  0.00  0.00     0.189 C 
ENDROOT
BRANCH   1   2
ATOM      2  N   UNL d   1      29.012 -15.574  -2.059  0.00  0.00    -0.329 N 
ATOM      3  C   UNL d   1      28.700 -15.156  -3.557  0.00  0.00     0.241 C 
ATOM      4  O   UNL d   1      28.701 -15.950  -4.507  0.00  0.00    -0.272 OA
BRANCH   3   5
ATOM      5  C   UNL d   1      28.079 -13.730  -4.146  0.00  0.00     0.149 A 
ATOM      6  C   UNL d   1      26.323 -14.286  -4.569  0.00  0.00     0.123 A 
ATOM      7  C   UNL d   1      25.081 -12.963  -4.268  0.00  0.00     0.058 A 
ATOM      8  C   UNL d   1      25.530 -11.339  -3.589  0.00  0.00    -0.016 A 
ATOM      9  C   UNL d   1      27.013 -10.825  -3.116  0.00  0.00     0.030 A 
ATOM     10  C   UNL d   1      28.154 -11.844  -3.409  0.00  0.00     0.066 A 
BRANCH   6  11
ATOM     11  O   UNL d   1      25.779 -15.550  -4.497  0.00  0.00    -0.384 OA
ATOM     12  H   UNL d   1      26.529 -16.167  -4.479  0.00  0.00     0.210 HD
ENDBRANCH   6  11
BRANCH  10  13
ATOM     13  O   UNL d   1      28.973 -11.427  -1.917  0.00  0.00    -0.363 OA
ATOM     14  H   UNL d   1      29.427 -11.821  -1.172  0.00  0.00     0.217 HD
ENDBRANCH  10  13
ENDBRANCH   3   5
BRANCH   2  15
ATOM     15  C   UNL d   1      29.949 -16.688  -1.900  0.00  0.00     0.025 C 
ATOM     16  C   UNL d   1      29.527 -17.647  -0.790  0.00  0.00     0.037 C 
ATOM     17  C   UNL d   1      30.029 -17.490  -3.167  0.00  0.00     0.037 C 
ATOM     18  C   UNL d   1      31.345 -16.181  -1.691  0.00  0.00     0.037 C 
ENDBRANCH   2  15
ENDBRANCH   1   2
BRANCH   1  19
ATOM     19  C   UNL d   1      27.928 -15.446   0.320  0.00  0.00     0.061 C 
BRANCH  19  20
ATOM     20  C   UNL d   1      26.792 -16.327  -0.301  0.00  0.00    -0.051 C 
ATOM     21  C   UNL d   1      25.983 -15.827  -1.358  0.00  0.00     0.007 C 
ATOM     22  C   UNL d   1      24.768 -16.399  -1.651  0.00  0.00     0.001 C 
ATOM     23  C   UNL d   1      24.497 -17.643  -1.118  0.00  0.00     0.000 C 
ATOM     24  C   UNL d   1      25.317 -18.200  -0.131  0.00  0.00     0.001 C 
ATOM     25  C   UNL d   1      26.445 -17.527   0.315  0.00  0.00     0.007 C 
ENDBRANCH  19  20
BRANCH  19  26
ATOM     26  C   UNL d   1      27.470 -14.172   0.923  0.00  0.00    -0.009 C 
ATOM     27  C   UNL d   1      27.317 -12.334   0.498  0.00  0.00     0.010 C 
ATOM     28  C   UNL d   1      27.562 -11.039   1.756  0.00  0.00     0.021 C 
ATOM     29  C   UNL d   1      27.636 -11.281   3.292  0.00  0.00    -0.024 C 
ATOM     30  C   UNL d   1      27.756 -12.771   3.754  0.00  0.00    -0.024 C 
ATOM     31  C   UNL d   1      27.781 -14.466   2.692  0.00  0.00     0.027 C 
ENDBRANCH  19  26
ENDBRANCH   1  19
BRANCH   1  32
ATOM     32  C   UNL d   1      29.931 -14.310   0.310  0.00  0.00     0.241 C 
ATOM     33  N   UNL d   1      30.347 -15.197   1.263  0.00  0.00    -0.359 N 
ATOM     34  H   UNL d   1      29.875 -16.059   1.429  0.00  0.00     0.162 HD
ATOM     35  O   UNL d   1      30.351 -13.149   0.312  0.00  0.00    -0.271 OA
BRANCH  33  36
ATOM     36  C   UNL d   1      31.429 -14.950   2.138  0.00  0.00     0.122 C 
BRANCH  36  37
ATOM     37  C   UNL d   1      32.699 -15.645   1.662  0.00  0.00     0.019 C 
BRANCH  37  38
ATOM     38  C   UNL d   1      32.619 -17.093   2.107  0.00  0.00    -0.003 C 
ATOM     39  C   UNL d   1      32.965 -18.035   0.977  0.00  0.00     0.005 C 
ENDBRANCH  37  38
ENDBRANCH  36  37
ENDBRANCH  33  36
ENDBRANCH   1  32
TORSDOF 12
ENDMDL
MODEL 3
REMARK VINA RESULT:    -6.056      1.873      4.100
REMARK INTER + INTRA:         -13.715
REMARK INTER:                  -9.635
REMARK INTRA:                  -4.080
REMARK CONF_INDEPENDENT:        3.580
REMARK UNBOUND:                -4.080
REMARK  12 active torsions:
REMARK  status: ('A' for Active; 'I' for Inactive)
REMARK    1  A    between atoms: C_2  and  C_3 
REMARK    2  A    between atoms: C_3  and  C_4 
REMARK    3  A    between atoms: C_4  and  N_5 
REMARK       I    between atoms: N_5  and  C_6 
REMARK    4  A    between atoms: C_8  and  C_6 
REMARK    5  A    between atoms: C_8  and  N_22 
REMARK    6  A    between atoms: C_8  and  C_9 
REMARK    7  A    between atoms: C_9  and  C_10 
REMARK    8  A    between atoms: C_9  and  C_16 
REMARK       I    between atoms: N_22  and  C_23 
REMARK    9  A    between atoms: N_22  and  C_33 
REMARK   10  A    between atoms: C_23  and  C_25 
REMARK   11  A    between atoms: C_26  and  O_27 
REMARK   12  A    between atoms: C_31  and  O_32 
ROOT
ATOM      1  C   UNL d   1      26.900 -14.383   0.014  0.00  0.00     0.189 C 
ENDROOT
BRANCH   1   2
ATOM      2  N   UNL d   1      26.012 -14.892  -1.277  0.00  0.00    -0.329 N 
ATOM      3  C   UNL d   1      26.042 -14.423  -2.791  0.00  0.00     0.241 C 
ATOM      4  O   UNL d   1      25.169 -14.716  -3.620  0.00  0.00    -0.272 OA
BRANCH   3   5
ATOM      5  C   UNL d   1      27.017 -13.293  -3.526  0.00  0.00     0.149 A 
ATOM      6  C   UNL d   1      27.585 -14.280  -5.034  0.00  0.00     0.123 A 
ATOM      7  C   UNL d   1      27.779 -13.221  -6.526  0.00  0.00     0.058 A 
ATOM      8  C   UNL d   1      27.405 -11.443  -6.517  0.00  0.00    -0.016 A 
ATOM      9  C   UNL d   1      26.824 -10.547  -5.273  0.00  0.00     0.030 A 
ATOM     10  C   UNL d   1      26.703 -11.334  -3.935  0.00  0.00     0.066 A 
BRANCH   6  11
ATOM     11  O   UNL d   1      27.329 -15.596  -5.348  0.00  0.00    -0.384 OA
ATOM     12  H   UNL d   1      26.495 -15.824  -4.904  0.00  0.00     0.210 HD
ENDBRANCH   6  11
BRANCH  10  13
ATOM     13  O   UNL d   1      25.226 -10.489  -3.518  0.00  0.00    -0.363 OA
ATOM     14  H   UNL d   1      24.405 -10.175  -3.898  0.00  0.00     0.217 HD
ENDBRANCH  10  13
ENDBRANCH   3   5
BRANCH   2  15
ATOM     15  C   UNL d   1      25.374 -16.188  -1.034  0.00  0.00     0.025 C 
ATOM     16  C   UNL d   1      25.907 -16.870   0.224  0.00  0.00     0.037 C 
ATOM     17  C   UNL d   1      23.893 -16.017  -0.847  0.00  0.00     0.037 C 
ATOM     18  C   UNL d   1      25.497 -17.075  -2.238  0.00  0.00     0.037 C 
ENDBRANCH   2  15
ENDBRANCH   1   2
BRANCH   1  19
ATOM     19  C   UNL d   1      28.352 -14.357  -0.234  0.00  0.00     0.061 C 
BRANCH  19  20
ATOM     20  C   UNL d   1      28.891 -15.494  -1.165  0.00  0.00    -0.051 C 
ATOM     21  C   UNL d   1      29.110 -16.804  -0.659  0.00  0.00     0.007 C 
ATOM     22  C   UNL d   1      29.922 -17.693  -1.322  0.00  0.00     0.001 C 
ATOM     23  C   UNL d   1      30.262 -17.404  -2.628  0.00  0.00     0.000 C 
ATOM     24  C   UNL d   1      29.991 -16.149  -3.184  0.00  0.00     0.001 C 
ATOM     25  C   UNL d   1      29.344 -15.172  -2.444  0.00  0.00     0.007 C 
ENDBRANCH  19  20
BRANCH  19  26
ATOM     26  C   UNL d   1      28.659 -14.533   1.206  0.00  0.00    -0.009 C 
ATOM     27  C   UNL d   1      27.780 -14.825   2.856  0.00  0.00     0.010 C 
ATOM     28  C   UNL d   1      28.396 -14.096   4.409  0.00  0.00     0.021 C 
ATOM     29  C   UNL d   1      29.790 -13.429   4.597  0.00  0.00    -0.024 C 
ATOM     30  C   UNL d   1      30.607 -13.150   3.293  0.00  0.00    -0.024 C 
ATOM     31  C   UNL d   1      30.186 -13.556   1.380  0.00  0.00     0.027 C 
ENDBRANCH  19  26
ENDBRANCH   1  19
BRANCH   1  32
ATOM     32  C   UNL d   1      26.750 -12.986   0.692  0.00  0.00     0.241 C 
ATOM     33  N   UNL d   1      27.544 -11.965   0.251  0.00  0.00    -0.359 N 
ATOM     34  H   UNL d   1      28.280 -12.109  -0.406  0.00  0.00     0.162 HD
ATOM     35  O   UNL d   1      26.044 -12.840   1.694  0.00  0.00    -0.271 OA
BRANCH  33  36
ATOM     36  C   UNL d   1      27.445 -10.639   0.729  0.00  0.00     0.122 C 
BRANCH  36  37
ATOM     37  C   UNL d   1      27.833 -10.545   2.199  0.00  0.00     0.019 C 
BRANCH  37  38
ATOM     38  C   UNL d   1      27.013  -9.429   2.816  0.00  0.00    -0.003 C 
ATOM     39  C   UNL d   1      25.547  -9.575   2.482  0.00  0.00     0.005 C 
ENDBRANCH  37  38
ENDBRANCH  36  37
ENDBRANCH  33  36
ENDBRANCH   1  32
TORSDOF 12
ENDMDL
MODEL 4
REMARK VINA RESULT:    -5.649      1.910      5.573
REMARK INTER + INTRA:         -13.379
REMARK INTER:                  -9.228
REMARK INTRA:                  -4.151
REMARK CONF_INDEPENDENT:        3.580
REMARK UNBOUND:                -4.151
REMARK  12 active torsions:
REMARK  status: ('A' for Active; 'I' for Inactive)
REMARK    1  A    between atoms: C_2  and  C_3 
REMARK    2  A    between atoms: C_3  and  C_4 
REMARK    3  A    between atoms: C_4  and  N_5 
REMARK       I    between atoms: N_5  and  C_6 
REMARK    4  A    between atoms: C_8  and  C_6 
REMARK    5  A    between atoms: C_8  and  N_22 
REMARK    6  A    between atoms: C_8  and  C_9 
REMARK    7  A    between atoms: C_9  and  C_10 
REMARK    8  A    between atoms: C_9  and  C_16 
REMARK       I    between atoms: N_22  and  C_23 
REMARK    9  A    between atoms: N_22  and  C_33 
REMARK   10  A    between atoms: C_23  and  C_25 
REMARK   11  A    between atoms: C_26  and  O_27 
REMARK   12  A    between atoms: C_31  and  O_32 
ROOT
ATOM      1  C   UNL d   1      27.284 -14.598  -1.796  0.00  0.00     0.189 C 
ENDROOT
BRANCH   1   2
ATOM      2  N   UNL d   1      27.185 -14.884  -3.416  0.00  0.00    -0.329 N 
ATOM      3  C   UNL d   1      28.218 -15.576  -4.400  0.00  0.00     0.241 C 
ATOM      4  O   UNL d   1      28.132 -15.527  -5.635  0.00  0.00    -0.272 OA
BRANCH   3   5
ATOM      5  C   UNL d   1      29.701 -16.251  -4.066  0.00  0.00     0.149 A 
ATOM      6  C   UNL d   1      30.837 -14.905  -4.753  0.00  0.00     0.123 A 
ATOM      7  C   UNL d   1      32.373 -14.715  -3.758  0.00  0.00     0.058 A 
ATOM      8  C   UNL d   1      32.694 -15.694  -2.262  0.00  0.00    -0.016 A 
ATOM      9  C   UNL d   1      31.716 -16.808  -1.563  0.00  0.00     0.030 A 
ATOM     10  C   UNL d   1      30.421 -17.106  -2.376  0.00  0.00     0.066 A 
BRANCH   6  11
ATOM     11  O   UNL d   1      30.497 -13.754  -5.429  0.00  0.00    -0.384 OA
ATOM     12  H   UNL d   1      29.641 -13.931  -5.853  0.00  0.00     0.210 HD
ENDBRANCH   6  11
BRANCH  10  13
ATOM     13  O   UNL d   1      29.481 -17.273  -0.908  0.00  0.00    -0.363 OA
ATOM     14  H   UNL d   1      29.449 -17.764  -0.086  0.00  0.00     0.217 HD
ENDBRANCH  10  13
ENDBRANCH   3   5
BRANCH   2  15
ATOM     15  C   UNL d   1      25.809 -14.797  -3.911  0.00  0.00     0.025 C 
ATOM     16  C   UNL d   1      24.785 -14.787  -2.779  0.00  0.00     0.037 C 
ATOM     17  C   UNL d   1      25.613 -13.528  -4.692  0.00  0.00     0.037 C 
ATOM     18  C   UNL d   1      25.530 -15.890  -4.900  0.00  0.00     0.037 C 
ENDBRANCH   2  15
ENDBRANCH   1   2
BRANCH   1  19
ATOM     19  C   UNL d   1      26.844 -13.249  -1.401  0.00  0.00     0.061 C 
BRANCH  19  20
ATOM     20  C   UNL d   1      27.136 -12.119  -2.445  0.00  0.00    -0.051 C 
ATOM     21  C   UNL d   1      26.140 -11.159  -2.772  0.00  0.00     0.007 C 
ATOM     22  C   UNL d   1      26.222 -10.419  -3.927  0.00  0.00     0.001 C 
ATOM     23  C   UNL d   1      27.429 -10.399  -4.595  0.00  0.00     0.000 C 
ATOM     24  C   UNL d   1      28.462 -11.278  -4.248  0.00  0.00     0.001 C 
ATOM     25  C   UNL d   1      28.306 -12.173  -3.200  0.00  0.00     0.007 C 
ENDBRANCH  19  20
BRANCH  19  26
ATOM     26  C   UNL d   1      27.732 -13.245  -0.214  0.00  0.00    -0.009 C 
ATOM     27  C   UNL d   1      29.224 -14.173   0.491  0.00  0.00     0.010 C 
ATOM     28  C   UNL d   1      29.416 -14.451   2.282  0.00  0.00     0.021 C 
ATOM     29  C   UNL d   1      28.581 -13.753   3.395  0.00  0.00    -0.024 C 
ATOM     30  C   UNL d   1      27.327 -12.949   2.919  0.00  0.00    -0.024 C 
ATOM     31  C   UNL d   1      26.618 -12.610   1.079  0.00  0.00     0.027 C 
ENDBRANCH  19  26
ENDBRANCH   1  19
BRANCH   1  32
ATOM     32  C   UNL d   1      26.529 -15.422  -0.708  0.00  0.00     0.241 C 
ATOM     33  N   UNL d   1      26.897 -16.723  -0.511  0.00  0.00    -0.359 N 
ATOM     34  H   UNL d   1      27.550 -17.187  -1.105  0.00  0.00     0.162 HD
ATOM     35  O   UNL d   1      25.532 -14.963  -0.144  0.00  0.00    -0.271 OA
BRANCH  33  36
ATOM     36  C   UNL d   1      26.346 -17.545   0.497  0.00  0.00     0.122 C 
BRANCH  36  37
ATOM     37  C   UNL d   1      25.387 -18.576  -0.086  0.00  0.00     0.019 C 
BRANCH  37  38
ATOM     38  C   UNL d   1      23.977 -18.116   0.230  0.00  0.00    -0.003 C 
ATOM     39  C   UNL d   1      23.398 -17.300  -0.902  0.00  0.00     0.005 C 
ENDBRANCH  37  38
ENDBRANCH  36  37
ENDBRANCH  33  36
ENDBRANCH   1  32
TORSDOF 12
ENDMDL
MODEL 5
REMARK VINA RESULT:    -5.512      2.226      5.728
REMARK INTER + INTRA:         -13.288
REMARK INTER:                  -9.091
REMARK INTRA:                  -4.197
REMARK CONF_INDEPENDENT:        3.580
REMARK UNBOUND:                -4.197
REMARK  12 active torsions:
REMARK  status: ('A' for Active; 'I' for Inactive)
REMARK    1  A    between atoms: C_2  and  C_3 
REMARK    2  A    between atoms: C_3  and  C_4 
REMARK    3  A    between atoms: C_4  and  N_5 
REMARK       I    between atoms: N_5  and  C_6 
REMARK    4  A    between atoms: C_8  and  C_6 
REMARK    5  A    between atoms: C_8  and  N_22 
REMARK    6  A    between atoms: C_8  and  C_9 
REMARK    7  A    between atoms: C_9  and  C_10 
REMARK    8  A    between atoms: C_9  and  C_16 
REMARK       I    between atoms: N_22  and  C_23 
REMARK    9  A    between atoms: N_22  and  C_33 
REMARK   10  A    between atoms: C_23  and  C_25 
REMARK   11  A    between atoms: C_26  and  O_27 
REMARK   12  A    between atoms: C_31  and  O_32 
ROOT
ATOM      1  C   UNL d   1      28.129 -14.932  -0.599  0.00  0.00     0.189 C 
ENDROOT
BRANCH   1   2
ATOM      2  N   UNL d   1      29.444 -14.128  -1.183  0.00  0.00    -0.329 N 
ATOM      3  C   UNL d   1      30.987 -14.330  -0.881  0.00  0.00     0.241 C 
ATOM      4  O   UNL d   1      31.864 -13.516  -1.202  0.00  0.00    -0.272 OA
BRANCH   3   5
ATOM      5  C   UNL d   1      31.731 -15.450   0.097  0.00  0.00     0.149 A 
ATOM      6  C   UNL d   1      33.247 -15.852  -0.958  0.00  0.00     0.123 A 
ATOM      7  C   UNL d   1      34.740 -16.182   0.065  0.00  0.00     0.058 A 
ATOM      8  C   UNL d   1      34.726 -16.069   1.878  0.00  0.00    -0.016 A 
ATOM      9  C   UNL d   1      33.475 -15.639   2.846  0.00  0.00     0.030 A 
ATOM     10  C   UNL d   1      32.136 -15.420   2.082  0.00  0.00     0.066 A 
BRANCH   6  11
ATOM     11  O   UNL d   1      33.559 -15.405  -2.222  0.00  0.00    -0.384 OA
ATOM     12  H   UNL d   1      32.762 -14.961  -2.557  0.00  0.00     0.210 HD
ENDBRANCH   6  11
BRANCH  10  13
ATOM     13  O   UNL d   1      31.701 -14.086   3.132  0.00  0.00    -0.363 OA
ATOM     14  H   UNL d   1      31.913 -13.695   3.980  0.00  0.00     0.217 HD
ENDBRANCH  10  13
ENDBRANCH   3   5
BRANCH   2  15
ATOM     15  C   UNL d   1      29.136 -13.374  -2.401  0.00  0.00     0.025 C 
ATOM     16  C   UNL d   1      30.127 -13.660  -3.526  0.00  0.00     0.037 C 
ATOM     17  C   UNL d   1      27.772 -13.740  -2.913  0.00  0.00     0.037 C 
ATOM     18  C   UNL d   1      29.042 -11.906  -2.106  0.00  0.00     0.037 C 
ENDBRANCH   2  15
ENDBRANCH   1   2
BRANCH   1  19
ATOM     19  C   UNL d   1      28.323 -16.388  -0.484  0.00  0.00     0.061 C 
BRANCH  19  20
ATOM     20  C   UNL d   1      29.442 -16.987  -1.400  0.00  0.00    -0.051 C 
ATOM     21  C   UNL d   1      29.482 -16.685  -2.789  0.00  0.00     0.007 C 
ATOM     22  C   UNL d   1      30.187 -17.475  -3.665  0.00  0.00     0.001 C 
ATOM     23  C   UNL d   1      31.099 -18.366  -3.138  0.00  0.00     0.000 C 
ATOM     24  C   UNL d   1      31.140 -18.630  -1.764  0.00  0.00     0.001 C 
ATOM     25  C   UNL d   1      30.284 -17.975  -0.892  0.00  0.00     0.007 C 
ENDBRANCH  19  20
BRANCH  19  26
ATOM     26  C   UNL d   1      26.937 -16.666  -0.930  0.00  0.00    -0.009 C 
ATOM     27  C   UNL d   1      25.457 -15.786  -1.716  0.00  0.00     0.010 C 
ATOM     28  C   UNL d   1      23.743 -16.215  -1.269  0.00  0.00     0.021 C 
ATOM     29  C   UNL d   1      23.314 -17.472  -0.457  0.00  0.00    -0.024 C 
ATOM     30  C   UNL d   1      24.464 -18.280   0.229  0.00  0.00    -0.024 C 
ATOM     31  C   UNL d   1      26.445 -18.003   0.204  0.00  0.00     0.027 C 
ENDBRANCH  19  26
ENDBRANCH   1  19
BRANCH   1  32
ATOM     32  C   UNL d   1      27.481 -14.667   0.795  0.00  0.00     0.241 C 
ATOM     33  N   UNL d   1      28.250 -14.848   1.910  0.00  0.00    -0.359 N 
ATOM     34  H   UNL d   1      29.166 -15.240   1.867  0.00  0.00     0.162 HD
ATOM     35  O   UNL d   1      26.271 -14.446   0.900  0.00  0.00    -0.271 OA
BRANCH  33  36
ATOM     36  C   UNL d   1      27.803 -14.563   3.220  0.00  0.00     0.122 C 
BRANCH  36  37
ATOM     37  C   UNL d   1      28.660 -13.491   3.881  0.00  0.00     0.019 C 
BRANCH  37  38
ATOM     38  C   UNL d   1      29.270 -14.102   5.128  0.00  0.00    -0.003 C 
ATOM     39  C   UNL d   1      28.395 -15.201   5.686  0.00  0.00     0.005 C 
ENDBRANCH  37  38
ENDBRANCH  36  37
ENDBRANCH  33  36
ENDBRANCH   1  32
TORSDOF 12
ENDMDL
MODEL 6
REMARK VINA RESULT:    -5.482      2.069      5.574
REMARK INTER + INTRA:         -13.901
REMARK INTER:                  -9.062
REMARK INTRA:                  -4.839
REMARK CONF_INDEPENDENT:        3.580
REMARK UNBOUND:                -4.839
REMARK  12 active torsions:
REMARK  status: ('A' for Active; 'I' for Inactive)
REMARK    1  A    between atoms: C_2  and  C_3 
REMARK    2  A    between atoms: C_3  and  C_4 
REMARK    3  A    between atoms: C_4  and  N_5 
REMARK       I    between atoms: N_5  and  C_6 
REMARK    4  A    between atoms: C_8  and  C_6 
REMARK    5  A    between atoms: C_8  and  N_22 
REMARK    6  A    between atoms: C_8  and  C_9 
REMARK    7  A    between atoms: C_9  and  C_10 
REMARK    8  A    between atoms: C_9  and  C_16 
REMARK       I    between atoms: N_22  and  C_23 
REMARK    9  A    between atoms: N_22  and  C_33 
REMARK   10  A    between atoms: C_23  and  C_25 
REMARK   11  A    between atoms: C_26  and  O_27 
REMARK   12  A    between atoms: C_31  and  O_32 
ROOT
ATOM      1  C   UNL d   1      27.131 -14.143  -0.874  0.00  0.00     0.189 C 
ENDROOT
BRANCH   1   2
ATOM      2  N   UNL d   1      27.787 -12.827  -1.616  0.00  0.00    -0.329 N 
ATOM      3  C   UNL d   1      29.195 -12.128  -1.409  0.00  0.00     0.241 C 
ATOM      4  O   UNL d   1      29.483 -11.011  -1.860  0.00  0.00    -0.272 OA
BRANCH   3   5
ATOM      5  C   UNL d   1      30.443 -12.552  -0.394  0.00  0.00     0.149 A 
ATOM      6  C   UNL d   1      30.461 -11.049   0.752  0.00  0.00     0.123 A 
ATOM      7  C   UNL d   1      30.888 -11.498   2.484  0.00  0.00     0.058 A 
ATOM      8  C   UNL d   1      31.197 -13.212   3.000  0.00  0.00    -0.016 A 
ATOM      9  C   UNL d   1      31.109 -14.567   2.082  0.00  0.00     0.030 A 
ATOM     10  C   UNL d   1      30.835 -14.288   0.574  0.00  0.00     0.066 A 
BRANCH   6  11
ATOM     11  O   UNL d   1      29.709  -9.897   0.672  0.00  0.00    -0.384 OA
ATOM     12  H   UNL d   1      29.660  -9.670  -0.271  0.00  0.00     0.210 HD
ENDBRANCH   6  11
BRANCH  10  13
ATOM     13  O   UNL d   1      29.820 -15.711   0.447  0.00  0.00    -0.363 OA
ATOM     14  H   UNL d   1      29.312 -16.323   0.980  0.00  0.00     0.217 HD
ENDBRANCH  10  13
ENDBRANCH   3   5
BRANCH   2  15
ATOM     15  C   UNL d   1      27.102 -12.499  -2.869  0.00  0.00     0.025 C 
ATOM     16  C   UNL d   1      25.898 -13.402  -3.125  0.00  0.00     0.037 C 
ATOM     17  C   UNL d   1      26.592 -11.086  -2.833  0.00  0.00     0.037 C 
ATOM     18  C   UNL d   1      28.063 -12.519  -4.020  0.00  0.00     0.037 C 
ENDBRANCH   2  15
ENDBRANCH   1   2
BRANCH   1  19
ATOM     19  C   UNL d   1      27.749 -15.421  -1.269  0.00  0.00     0.061 C 
BRANCH  19  20
ATOM     20  C   UNL d   1      28.616 -15.369  -2.572  0.00  0.00    -0.051 C 
ATOM     21  C   UNL d   1      28.029 -15.607  -3.844  0.00  0.00     0.007 C 
ATOM     22  C   UNL d   1      28.802 -15.945  -4.929  0.00  0.00     0.001 C 
ATOM     23  C   UNL d   1      30.164 -15.743  -4.837  0.00  0.00     0.000 C 
ATOM     24  C   UNL d   1      30.767 -15.430  -3.613  0.00  0.00     0.001 C 
ATOM     25  C   UNL d   1      30.004 -15.284  -2.465  0.00  0.00     0.007 C 
ENDBRANCH  19  20
BRANCH  19  26
ATOM     26  C   UNL d   1      26.429 -16.078  -1.425  0.00  0.00    -0.009 C 
ATOM     27  C   UNL d   1      24.600 -15.637  -1.630  0.00  0.00     0.010 C 
ATOM     28  C   UNL d   1      23.283 -16.661  -0.896  0.00  0.00     0.021 C 
ATOM     29  C   UNL d   1      23.480 -18.084  -0.296  0.00  0.00    -0.024 C 
ATOM     30  C   UNL d   1      24.958 -18.552  -0.092  0.00  0.00    -0.024 C 
ATOM     31  C   UNL d   1      26.685 -17.639  -0.523  0.00  0.00     0.027 C 
ENDBRANCH  19  26
ENDBRANCH   1  19
BRANCH   1  32
ATOM     32  C   UNL d   1      27.102 -14.361   0.671  0.00  0.00     0.241 C 
ATOM     33  N   UNL d   1      26.979 -13.264   1.476  0.00  0.00    -0.359 N 
ATOM     34  H   UNL d   1      27.014 -12.335   1.118  0.00  0.00     0.162 HD
ATOM     35  O   UNL d   1      27.333 -15.472   1.159  0.00  0.00    -0.271 OA
BRANCH  33  36
ATOM     36  C   UNL d   1      26.860 -13.340   2.882  0.00  0.00     0.122 C 
BRANCH  36  37
ATOM     37  C   UNL d   1      28.071 -14.020   3.509  0.00  0.00     0.019 C 
BRANCH  37  38
ATOM     38  C   UNL d   1      27.683 -14.432   4.916  0.00  0.00    -0.003 C 
ATOM     39  C   UNL d   1      28.896 -14.821   5.729  0.00  0.00     0.005 C 
ENDBRANCH  37  38
ENDBRANCH  36  37
ENDBRANCH  33  36
ENDBRANCH   1  32
TORSDOF 12
ENDMDL
MODEL 7
REMARK VINA RESULT:    -5.334      2.204      5.490
REMARK INTER + INTRA:         -13.216
REMARK INTER:                  -8.913
REMARK INTRA:                  -4.302
REMARK CONF_INDEPENDENT:        3.580
REMARK UNBOUND:                -4.302
REMARK  12 active torsions:
REMARK  status: ('A' for Active; 'I' for Inactive)
REMARK    1  A    between atoms: C_2  and  C_3 
REMARK    2  A    between atoms: C_3  and  C_4 
REMARK    3  A    between atoms: C_4  and  N_5 
REMARK       I    between atoms: N_5  and  C_6 
REMARK    4  A    between atoms: C_8  and  C_6 
REMARK    5  A    between atoms: C_8  and  N_22 
REMARK    6  A    between atoms: C_8  and  C_9 
REMARK    7  A    between atoms: C_9  and  C_10 
REMARK    8  A    between atoms: C_9  and  C_16 
REMARK       I    between atoms: N_22  and  C_23 
REMARK    9  A    between atoms: N_22  and  C_33 
REMARK   10  A    between atoms: C_23  and  C_25 
REMARK   11  A    between atoms: C_26  and  O_27 
REMARK   12  A    between atoms: C_31  and  O_32 
ROOT
ATOM      1  C   UNL d   1      26.873 -14.209  -1.882  0.00  0.00     0.189 C 
ENDROOT
BRANCH   1   2
ATOM      2  N   UNL d   1      27.503 -12.874  -2.615  0.00  0.00    -0.329 N 
ATOM      3  C   UNL d   1      29.008 -12.500  -2.943  0.00  0.00     0.241 C 
ATOM      4  O   UNL d   1      29.377 -11.369  -3.288  0.00  0.00    -0.272 OA
BRANCH   3   5
ATOM      5  C   UNL d   1      30.396 -13.376  -2.672  0.00  0.00     0.149 A 
ATOM      6  C   UNL d   1      31.552 -12.558  -3.923  0.00  0.00     0.123 A 
ATOM      7  C   UNL d   1      33.284 -12.458  -3.310  0.00  0.00     0.058 A 
ATOM      8  C   UNL d   1      33.771 -13.043  -1.660  0.00  0.00    -0.016 A 
ATOM      9  C   UNL d   1      32.806 -13.676  -0.496  0.00  0.00     0.030 A 
ATOM     10  C   UNL d   1      31.330 -13.883  -0.947  0.00  0.00     0.066 A 
BRANCH   6  11
ATOM     11  O   UNL d   1      31.263 -11.586  -4.855  0.00  0.00    -0.384 OA
ATOM     12  H   UNL d   1      30.508 -11.086  -4.500  0.00  0.00     0.210 HD
ENDBRANCH   6  11
BRANCH  10  13
ATOM     13  O   UNL d   1      30.734 -13.431   0.638  0.00  0.00    -0.363 OA
ATOM     14  H   UNL d   1      30.976 -13.442   1.565  0.00  0.00     0.217 HD
ENDBRANCH  10  13
ENDBRANCH   3   5
BRANCH   2  15
ATOM     15  C   UNL d   1      26.492 -12.122  -3.361  0.00  0.00     0.025 C 
ATOM     16  C   UNL d   1      26.246 -10.736  -2.770  0.00  0.00     0.037 C 
ATOM     17  C   UNL d   1      26.931 -11.922  -4.783  0.00  0.00     0.037 C 
ATOM     18  C   UNL d   1      25.220 -12.910  -3.471  0.00  0.00     0.037 C 
ENDBRANCH   2  15
ENDBRANCH   1   2
BRANCH   1  19
ATOM     19  C   UNL d   1      27.518 -15.471  -2.284  0.00  0.00     0.061 C 
BRANCH  19  20
ATOM     20  C   UNL d   1      28.024 -15.521  -3.765  0.00  0.00    -0.051 C 
ATOM     21  C   UNL d   1      29.346 -15.946  -4.066  0.00  0.00     0.007 C 
ATOM     22  C   UNL d   1      29.931 -15.640  -5.272  0.00  0.00     0.001 C 
ATOM     23  C   UNL d   1      29.113 -15.193  -6.290  0.00  0.00     0.000 C 
ATOM     24  C   UNL d   1      27.781 -14.840  -6.044  0.00  0.00     0.001 C 
ATOM     25  C   UNL d   1      27.241 -14.959  -4.772  0.00  0.00     0.007 C 
ENDBRANCH  19  20
BRANCH  19  26
ATOM     26  C   UNL d   1      26.286 -16.253  -2.019  0.00  0.00    -0.009 C 
ATOM     27  C   UNL d   1      24.405 -16.047  -2.019  0.00  0.00     0.010 C 
ATOM     28  C   UNL d   1      23.350 -16.913  -0.812  0.00  0.00     0.021 C 
ATOM     29  C   UNL d   1      23.813 -18.074   0.117  0.00  0.00    -0.024 C 
ATOM     30  C   UNL d   1      25.353 -18.335   0.184  0.00  0.00    -0.024 C 
ATOM     31  C   UNL d   1      26.868 -17.449  -0.777  0.00  0.00     0.027 C 
ENDBRANCH  19  26
ENDBRANCH   1  19
BRANCH   1  32
ATOM     32  C   UNL d   1      26.845 -14.438  -0.339  0.00  0.00     0.241 C 
ATOM     33  N   UNL d   1      28.030 -14.417   0.339  0.00  0.00    -0.359 N 
ATOM     34  H   UNL d   1      28.910 -14.367  -0.128  0.00  0.00     0.162 HD
ATOM     35  O   UNL d   1      25.804 -14.775   0.232  0.00  0.00    -0.271 OA
BRANCH  33  36
ATOM     36  C   UNL d   1      28.126 -14.530   1.745  0.00  0.00     0.122 C 
BRANCH  36  37
ATOM     37  C   UNL d   1      27.483 -13.338   2.445  0.00  0.00     0.019 C 
BRANCH  37  38
ATOM     38  C   UNL d   1      27.403 -13.669   3.923  0.00  0.00    -0.003 C 
ATOM     39  C   UNL d   1      28.309 -14.825   4.278  0.00  0.00     0.005 C 
ENDBRANCH  37  38
ENDBRANCH  36  37
ENDBRANCH  33  36
ENDBRANCH   1  32
TORSDOF 12
ENDMDL
MODEL 8
REMARK VINA RESULT:    -5.328      2.011      5.561
REMARK INTER + INTRA:         -13.965
REMARK INTER:                  -8.908
REMARK INTRA:                  -5.057
REMARK CONF_INDEPENDENT:        3.580
REMARK UNBOUND:                -5.057
REMARK  12 active torsions:
REMARK  status: ('A' for Active; 'I' for Inactive)
REMARK    1  A    between atoms: C_2  and  C_3 
REMARK    2  A    between atoms: C_3  and  C_4 
REMARK    3  A    between atoms: C_4  and  N_5 
REMARK       I    between atoms: N_5  and  C_6 
REMARK    4  A    between atoms: C_8  and  C_6 
REMARK    5  A    between atoms: C_8  and  N_22 
REMARK    6  A    between atoms: C_8  and  C_9 
REMARK    7  A    between atoms: C_9  and  C_10 
REMARK    8  A    between atoms: C_9  and  C_16 
REMARK       I    between atoms: N_22  and  C_23 
REMARK    9  A    between atoms: N_22  and  C_33 
REMARK   10  A    between atoms: C_23  and  C_25 
REMARK   11  A    between atoms: C_26  and  O_27 
REMARK   12  A    between atoms: C_31  and  O_32 
ROOT
ATOM      1  C   UNL d   1      26.692 -13.970  -1.517  0.00  0.00     0.189 C 
ENDROOT
BRANCH   1   2
ATOM      2  N   UNL d   1      27.242 -12.553  -2.154  0.00  0.00    -0.329 N 
ATOM      3  C   UNL d   1      28.645 -11.834  -1.993  0.00  0.00     0.241 C 
ATOM      4  O   UNL d   1      28.861 -10.662  -2.332  0.00  0.00    -0.272 OA
BRANCH   3   5
ATOM      5  C   UNL d   1      29.994 -12.329  -1.155  0.00  0.00     0.149 A 
ATOM      6  C   UNL d   1      29.868 -11.207   0.361  0.00  0.00     0.123 A 
ATOM      7  C   UNL d   1      30.448 -12.041   1.895  0.00  0.00     0.058 A 
ATOM      8  C   UNL d   1      31.018 -13.766   1.912  0.00  0.00    -0.016 A 
ATOM      9  C   UNL d   1      31.066 -14.818   0.657  0.00  0.00     0.030 A 
ATOM     10  C   UNL d   1      30.674 -14.184  -0.710  0.00  0.00     0.066 A 
BRANCH   6  11
ATOM     11  O   UNL d   1      28.962 -10.201   0.615  0.00  0.00    -0.384 OA
ATOM     12  H   UNL d   1      28.619  -9.920  -0.250  0.00  0.00     0.210 HD
ENDBRANCH   6  11
BRANCH  10  13
ATOM     13  O   UNL d   1      29.859 -15.653  -1.210  0.00  0.00    -0.363 OA
ATOM     14  H   UNL d   1      29.902 -16.606  -1.122  0.00  0.00     0.217 HD
ENDBRANCH  10  13
ENDBRANCH   3   5
BRANCH   2  15
ATOM     15  C   UNL d   1      26.433 -12.106  -3.290  0.00  0.00     0.025 C 
ATOM     16  C   UNL d   1      25.216 -12.999  -3.523  0.00  0.00     0.037 C 
ATOM     17  C   UNL d   1      25.918 -10.715  -3.052  0.00  0.00     0.037 C 
ATOM     18  C   UNL d   1      27.275 -11.986  -4.526  0.00  0.00     0.037 C 
ENDBRANCH   2  15
ENDBRANCH   1   2
BRANCH   1  19
ATOM     19  C   UNL d   1      27.422 -15.160  -1.988  0.00  0.00     0.061 C 
BRANCH  19  20
ATOM     20  C   UNL d   1      27.929 -15.089  -3.468  0.00  0.00    -0.051 C 
ATOM     21  C   UNL d   1      29.264 -14.697  -3.759  0.00  0.00     0.007 C 
ATOM     22  C   UNL d   1      29.616 -14.260  -5.014  0.00  0.00     0.001 C 
ATOM     23  C   UNL d   1      28.738 -14.505  -6.050  0.00  0.00     0.000 C 
ATOM     24  C   UNL d   1      27.440 -14.966  -5.805  0.00  0.00     0.001 C 
ATOM     25  C   UNL d   1      27.012 -15.219  -4.510  0.00  0.00     0.007 C 
ENDBRANCH  19  20
BRANCH  19  26
ATOM     26  C   UNL d   1      26.247 -16.037  -1.773  0.00  0.00    -0.009 C 
ATOM     27  C   UNL d   1      24.357 -15.950  -1.711  0.00  0.00     0.010 C 
ATOM     28  C   UNL d   1      23.390 -16.991  -0.570  0.00  0.00     0.021 C 
ATOM     29  C   UNL d   1      23.947 -18.205   0.230  0.00  0.00    -0.024 C 
ATOM     30  C   UNL d   1      25.502 -18.376   0.236  0.00  0.00    -0.024 C 
ATOM     31  C   UNL d   1      26.933 -17.310  -0.668  0.00  0.00     0.027 C 
ENDBRANCH  19  26
ENDBRANCH   1  19
BRANCH   1  32
ATOM     32  C   UNL d   1      26.662 -14.299   0.008  0.00  0.00     0.241 C 
ATOM     33  N   UNL d   1      27.845 -14.577   0.632  0.00  0.00    -0.359 N 
ATOM     34  H   UNL d   1      28.700 -14.681   0.131  0.00  0.00     0.162 HD
ATOM     35  O   UNL d   1      25.591 -14.449   0.603  0.00  0.00    -0.271 OA
BRANCH  33  36
ATOM     36  C   UNL d   1      27.957 -14.810   2.022  0.00  0.00     0.122 C 
BRANCH  36  37
ATOM     37  C   UNL d   1      27.510 -13.596   2.827  0.00  0.00     0.019 C 
BRANCH  37  38
ATOM     38  C   UNL d   1      27.403 -14.027   4.277  0.00  0.00    -0.003 C 
ATOM     39  C   UNL d   1      28.612 -14.827   4.704  0.00  0.00     0.005 C 
ENDBRANCH  37  38
ENDBRANCH  36  37
ENDBRANCH  33  36
ENDBRANCH   1  32
TORSDOF 12
ENDMDL
MODEL 9
REMARK VINA RESULT:    -5.063      1.446      3.816
REMARK INTER + INTRA:         -13.864
REMARK INTER:                  -8.642
REMARK INTRA:                  -5.221
REMARK CONF_INDEPENDENT:        3.580
REMARK UNBOUND:                -5.221
REMARK  12 active torsions:
REMARK  status: ('A' for Active; 'I' for Inactive)
REMARK    1  A    between atoms: C_2  and  C_3 
REMARK    2  A    between atoms: C_3  and  C_4 
REMARK    3  A    between atoms: C_4  and  N_5 
REMARK       I    between atoms: N_5  and  C_6 
REMARK    4  A    between atoms: C_8  and  C_6 
REMARK    5  A    between atoms: C_8  and  N_22 
REMARK    6  A    between atoms: C_8  and  C_9 
REMARK    7  A    between atoms: C_9  and  C_10 
REMARK    8  A    between atoms: C_9  and  C_16 
REMARK       I    between atoms: N_22  and  C_23 
REMARK    9  A    between atoms: N_22  and  C_33 
REMARK   10  A    between atoms: C_23  and  C_25 
REMARK   11  A    between atoms: C_26  and  O_27 
REMARK   12  A    between atoms: C_31  and  O_32 
ROOT
ATOM      1  C   UNL d   1      27.919 -13.838  -1.375  0.00  0.00     0.189 C 
ENDROOT
BRANCH   1   2
ATOM      2  N   UNL d   1      27.646 -14.527  -2.847  0.00  0.00    -0.329 N 
ATOM      3  C   UNL d   1      28.433 -15.678  -3.603  0.00  0.00     0.241 C 
ATOM      4  O   UNL d   1      28.272 -15.951  -4.800  0.00  0.00    -0.272 OA
BRANCH   3   5
ATOM      5  C   UNL d   1      29.754 -16.555  -3.102  0.00  0.00     0.149 A 
ATOM      6  C   UNL d   1      31.093 -15.781  -4.187  0.00  0.00     0.123 A 
ATOM      7  C   UNL d   1      32.715 -15.674  -3.324  0.00  0.00     0.058 A 
ATOM      8  C   UNL d   1      32.942 -16.215  -1.605  0.00  0.00    -0.016 A 
ATOM      9  C   UNL d   1      31.808 -16.808  -0.582  0.00  0.00     0.030 A 
ATOM     10  C   UNL d   1      30.413 -17.018  -1.243  0.00  0.00     0.066 A 
BRANCH   6  11
ATOM     11  O   UNL d   1      30.958 -14.834  -5.178  0.00  0.00    -0.384 OA
ATOM     12  H   UNL d   1      30.048 -14.917  -5.510  0.00  0.00     0.210 HD
ENDBRANCH   6  11
BRANCH  10  13
ATOM     13  O   UNL d   1      29.592 -16.517   0.222  0.00  0.00    -0.363 OA
ATOM     14  H   UNL d   1      29.548 -16.700   1.161  0.00  0.00     0.217 HD
ENDBRANCH  10  13
ENDBRANCH   3   5
BRANCH   2  15
ATOM     15  C   UNL d   1      26.290 -14.267  -3.338  0.00  0.00     0.025 C 
ATOM     16  C   UNL d   1      25.534 -13.277  -2.455  0.00  0.00     0.037 C 
ATOM     17  C   UNL d   1      26.336 -13.678  -4.719  0.00  0.00     0.037 C 
ATOM     18  C   UNL d   1      25.531 -15.550  -3.504  0.00  0.00     0.037 C 
ENDBRANCH   2  15
ENDBRANCH   1   2
BRANCH   1  19
ATOM     19  C   UNL d   1      27.723 -14.757  -0.241  0.00  0.00     0.061 C 
BRANCH  19  20
ATOM     20  C   UNL d   1      26.659 -15.884  -0.470  0.00  0.00    -0.051 C 
ATOM     21  C   UNL d   1      25.270 -15.587  -0.437  0.00  0.00     0.007 C 
ATOM     22  C   UNL d   1      24.338 -16.580  -0.250  0.00  0.00     0.001 C 
ATOM     23  C   UNL d   1      24.749 -17.887  -0.408  0.00  0.00     0.000 C 
ATOM     24  C   UNL d   1      26.107 -18.209  -0.522  0.00  0.00     0.001 C 
ATOM     25  C   UNL d   1      27.073 -17.214  -0.510  0.00  0.00     0.007 C 
ENDBRANCH  19  20
BRANCH  19  26
ATOM     26  C   UNL d   1      27.282 -13.657   0.649  0.00  0.00    -0.009 C 
ATOM     27  C   UNL d   1      27.030 -11.781   0.629  0.00  0.00     0.010 C 
ATOM     28  C   UNL d   1      27.352 -10.758   2.102  0.00  0.00     0.021 C 
ATOM     29  C   UNL d   1      27.580 -11.303   3.543  0.00  0.00    -0.024 C 
ATOM     30  C   UNL d   1      27.791 -12.847   3.674  0.00  0.00    -0.024 C 
ATOM     31  C   UNL d   1      27.770 -14.288   2.286  0.00  0.00     0.027 C 
ENDBRANCH  19  26
ENDBRANCH   1  19
BRANCH   1  32
ATOM     32  C   UNL d   1      29.276 -13.205  -0.936  0.00  0.00     0.241 C 
ATOM     33  N   UNL d   1      30.167 -13.991  -0.261  0.00  0.00    -0.359 N 
ATOM     34  H   UNL d   1      29.938 -14.910   0.048  0.00  0.00     0.162 HD
ATOM     35  O   UNL d   1      29.479 -11.994  -1.060  0.00  0.00    -0.271 OA
BRANCH  33  36
ATOM     36  C   UNL d   1      31.457 -13.556   0.117  0.00  0.00     0.122 C 
BRANCH  36  37
ATOM     37  C   UNL d   1      31.559 -13.355   1.624  0.00  0.00     0.019 C 
BRANCH  37  38
ATOM     38  C   UNL d   1      31.216 -14.678   2.283  0.00  0.00    -0.003 C 
ATOM     39  C   UNL d   1      30.747 -14.478   3.706  0.00  0.00     0.005 C 
ENDBRANCH  37  38
ENDBRANCH  36  37
ENDBRANCH  33  36
ENDBRANCH   1  32
TORSDOF 12
ENDMDL
