MODEL 1
REMARK VINA RESULT:   -30.284      0.000      0.000
REMARK INTER + INTRA:         -33.921
REMARK INTER:                 -32.969
REMARK INTRA:                  -0.952
REMARK CONF_INDEPENDENT:        2.685
REMARK UNBOUND:                -0.952
REMARK  9 active torsions:
REMARK  status: ('A' for Active; 'I' for Inactive)
REMARK    1  A    between atoms: C_2  and  C_3 
REMARK       I    between atoms: C_2  and  N_18 
REMARK    2  A    between atoms: C_3  and  S_4 
REMARK    3  A    between atoms: S_4  and  C_5 
REMARK    4  A    between atoms: C_8  and  N_9 
REMARK    5  A    between atoms: N_9  and  N_10 
REMARK    6  A    between atoms: C_11  and  C_12 
REMARK    7  A    between atoms: N_18  and  C_19 
REMARK    8  A    between atoms: C_19  and  C_20 
REMARK    9  A    between atoms: C_20  and  C_21 
ROOT
ATOM      1  C   UNL d   1      24.160 -17.366  -0.539  0.00  0.00     0.226 A 
ATOM      2  N   UNL d   1      23.923 -18.527   0.083  0.00  0.00    -0.132 NA
ATOM      3  N   UNL d   1      22.596 -18.691  -0.167  0.00  0.00    -0.103 N 
ATOM      4  C   UNL d   1      22.073 -17.650  -0.895  0.00  0.00     0.739 A 
ATOM      5  N   UNL d   1      23.058 -16.814  -1.140  0.00  0.00    -0.034 NA
ATOM      6  H   UNL d   1      22.130 -19.522   0.173  0.00  0.00     0.208 HD
ENDROOT
BRANCH   1   7
ATOM      7  S   UNL d   1      25.737 -16.668  -0.811  0.00  0.00    -0.079 SA
BRANCH   7   8
ATOM      8  C   UNL d   1      25.867 -16.286  -2.581  0.00  0.00     0.185 C 
BRANCH   8   9
ATOM      9  C   UNL d   1      25.166 -14.939  -2.890  0.00  0.00     0.227 C 
ATOM     10  O   UNL d   1      23.963 -14.711  -2.705  0.00  0.00    -0.273 OA
ATOM     11  N   UNL d   1      25.908 -13.904  -3.404  0.00  0.00    -0.360 N 
ATOM     12  H   UNL d   1      25.382 -13.055  -3.580  0.00  0.00     0.162 HD
BRANCH  11  13
ATOM     13  C   UNL d   1      27.313 -13.954  -3.705  0.00  0.00     0.127 C 
BRANCH  13  14
ATOM     14  C   UNL d   1      27.670 -13.846  -5.191  0.00  0.00     0.058 C 
BRANCH  14  15
ATOM     15  C   UNL d   1      28.719 -14.857  -5.611  0.00  0.00    -0.057 A 
ATOM     16  C   UNL d   1      28.973 -16.024  -4.869  0.00  0.00     0.007 A 
ATOM     17  C   UNL d   1      30.040 -16.858  -5.182  0.00  0.00     0.001 A 
ATOM     18  C   UNL d   1      30.814 -16.595  -6.303  0.00  0.00     0.000 A 
ATOM     19  C   UNL d   1      30.543 -15.474  -7.087  0.00  0.00     0.001 A 
ATOM     20  C   UNL d   1      29.507 -14.604  -6.740  0.00  0.00     0.007 A 
ENDBRANCH  14  15
ENDBRANCH  13  14
ENDBRANCH  11  13
ENDBRANCH   8   9
ENDBRANCH   7   8
ENDBRANCH   1   7
BRANCH   4  21
ATOM     21  N   UNL d   1      20.759 -17.570  -1.269  0.00  0.00    -0.106 N 
ATOM     22  H   UNL d   1      20.389 -16.741  -1.728  0.00  0.00     0.208 HD
BRANCH  21  23
ATOM     23  N   UNL d   1      19.904 -18.608  -0.977  0.00  0.00    -0.170 NA
ATOM     24  C   UNL d   1      19.703 -18.964   0.255  0.00  0.00     0.176 C 
BRANCH  24  25
ATOM     25  C   UNL d   1      18.792 -20.054   0.529  0.00  0.00     0.094 A 
ATOM     26  C   UNL d   1      18.629 -20.825   1.663  0.00  0.00     0.040 A 
ATOM     27  C   UNL d   1      17.657 -21.809   1.364  0.00  0.00     0.027 A 
ATOM     28  C   UNL d   1      17.279 -21.583   0.062  0.00  0.00     0.142 A 
ATOM     29  O   UNL d   1      17.931 -20.496  -0.445  0.00  0.00    -0.321 OA
ENDBRANCH  24  25
ENDBRANCH  21  23
ENDBRANCH   4  21
TORSDOF 9
ENDMDL
MODEL 2
REMARK VINA RESULT:   -30.211      4.294      5.752
REMARK INTER + INTRA:         -33.859
REMARK INTER:                 -32.895
REMARK INTRA:                  -0.963
REMARK CONF_INDEPENDENT:        2.685
REMARK UNBOUND:                -0.963
REMARK  9 active torsions:
REMARK  status: ('A' for Active; 'I' for Inactive)
REMARK    1  A    between atoms: C_2  and  C_3 
REMARK       I    between atoms: C_2  and  N_18 
REMARK    2  A    between atoms: C_3  and  S_4 
REMARK    3  A    between atoms: S_4  and  C_5 
REMARK    4  A    between atoms: C_8  and  N_9 
REMARK    5  A    between atoms: N_9  and  N_10 
REMARK    6  A    between atoms: C_11  and  C_12 
REMARK    7  A    between atoms: N_18  and  C_19 
REMARK    8  A    between atoms: C_19  and  C_20 
REMARK    9  A    between atoms: C_20  and  C_21 
ROOT
ATOM      1  C   UNL d   1      24.226 -17.615  -0.914  0.00  0.00     0.226 A 
ATOM      2  N   UNL d   1      23.995 -18.688  -0.150  0.00  0.00    -0.132 NA
ATOM      3  N   UNL d   1      22.640 -18.783  -0.237  0.00  0.00    -0.103 N 
ATOM      4  C   UNL d   1      22.099 -17.786  -1.011  0.00  0.00     0.739 A 
ATOM      5  N   UNL d   1      23.097 -17.049  -1.449  0.00  0.00    -0.034 NA
ATOM      6  H   UNL d   1      22.168 -19.541   0.238  0.00  0.00     0.208 HD
ENDROOT
BRANCH   1   7
ATOM      7  S   UNL d   1      25.799 -17.060  -1.428  0.00  0.00    -0.079 SA
BRANCH   7   8
ATOM      8  C   UNL d   1      26.304 -15.730  -0.299  0.00  0.00     0.185 C 
BRANCH   8   9
ATOM      9  C   UNL d   1      27.353 -16.257   0.713  0.00  0.00     0.227 C 
ATOM     10  O   UNL d   1      27.366 -17.402   1.182  0.00  0.00    -0.273 OA
ATOM     11  N   UNL d   1      28.352 -15.415   1.134  0.00  0.00    -0.360 N 
ATOM     12  H   UNL d   1      29.000 -15.829   1.796  0.00  0.00     0.162 HD
BRANCH  11  13
ATOM     13  C   UNL d   1      28.519 -14.046   0.726  0.00  0.00     0.127 C 
BRANCH  13  14
ATOM     14  C   UNL d   1      29.081 -13.107   1.798  0.00  0.00     0.058 C 
BRANCH  14  15
ATOM     15  C   UNL d   1      28.881 -13.643   3.202  0.00  0.00    -0.057 A 
ATOM     16  C   UNL d   1      29.887 -14.351   3.883  0.00  0.00     0.007 A 
ATOM     17  C   UNL d   1      29.634 -14.967   5.103  0.00  0.00     0.001 A 
ATOM     18  C   UNL d   1      28.398 -14.804   5.713  0.00  0.00     0.000 A 
ATOM     19  C   UNL d   1      27.404 -14.057   5.082  0.00  0.00     0.001 A 
ATOM     20  C   UNL d   1      27.639 -13.485   3.830  0.00  0.00     0.007 A 
ENDBRANCH  14  15
ENDBRANCH  13  14
ENDBRANCH  11  13
ENDBRANCH   8   9
ENDBRANCH   7   8
ENDBRANCH   1   7
BRANCH   4  21
ATOM     21  N   UNL d   1      20.758 -17.652  -1.247  0.00  0.00    -0.106 N 
ATOM     22  H   UNL d   1      20.370 -16.788  -1.619  0.00  0.00     0.208 HD
BRANCH  21  23
ATOM     23  N   UNL d   1      19.905 -18.684  -0.931  0.00  0.00    -0.170 NA
ATOM     24  C   UNL d   1      19.704 -19.013   0.308  0.00  0.00     0.176 C 
BRANCH  24  25
ATOM     25  C   UNL d   1      18.796 -20.097   0.607  0.00  0.00     0.094 A 
ATOM     26  C   UNL d   1      18.641 -20.850   1.755  0.00  0.00     0.040 A 
ATOM     27  C   UNL d   1      17.667 -21.838   1.480  0.00  0.00     0.027 A 
ATOM     28  C   UNL d   1      17.279 -21.633   0.178  0.00  0.00     0.142 A 
ATOM     29  O   UNL d   1      17.928 -20.556  -0.352  0.00  0.00    -0.321 OA
ENDBRANCH  24  25
ENDBRANCH  21  23
ENDBRANCH   4  21
TORSDOF 9
ENDMDL
MODEL 3
REMARK VINA RESULT:   -30.171      2.325      3.168
REMARK INTER + INTRA:         -33.911
REMARK INTER:                 -32.856
REMARK INTRA:                  -1.055
REMARK CONF_INDEPENDENT:        2.685
REMARK UNBOUND:                -1.055
REMARK  9 active torsions:
REMARK  status: ('A' for Active; 'I' for Inactive)
REMARK    1  A    between atoms: C_2  and  C_3 
REMARK       I    between atoms: C_2  and  N_18 
REMARK    2  A    between atoms: C_3  and  S_4 
REMARK    3  A    between atoms: S_4  and  C_5 
REMARK    4  A    between atoms: C_8  and  N_9 
REMARK    5  A    between atoms: N_9  and  N_10 
REMARK    6  A    between atoms: C_11  and  C_12 
REMARK    7  A    between atoms: N_18  and  C_19 
REMARK    8  A    between atoms: C_19  and  C_20 
REMARK    9  A    between atoms: C_20  and  C_21 
ROOT
ATOM      1  C   UNL d   1      24.238 -17.663  -0.751  0.00  0.00     0.226 A 
ATOM      2  N   UNL d   1      23.912 -18.575   0.172  0.00  0.00    -0.132 NA
ATOM      3  N   UNL d   1      22.560 -18.622   0.026  0.00  0.00    -0.103 N 
ATOM      4  C   UNL d   1      22.112 -17.752  -0.938  0.00  0.00     0.739 A 
ATOM      5  N   UNL d   1      23.168 -17.148  -1.438  0.00  0.00    -0.034 NA
ATOM      6  H   UNL d   1      22.025 -19.263   0.597  0.00  0.00     0.208 HD
ENDROOT
BRANCH   1   7
ATOM      7  S   UNL d   1      25.862 -17.277  -1.262  0.00  0.00    -0.079 SA
BRANCH   7   8
ATOM      8  C   UNL d   1      26.966 -17.589   0.146  0.00  0.00     0.185 C 
BRANCH   8   9
ATOM      9  C   UNL d   1      28.374 -17.008  -0.140  0.00  0.00     0.227 C 
ATOM     10  O   UNL d   1      29.369 -17.683  -0.432  0.00  0.00    -0.273 OA
ATOM     11  N   UNL d   1      28.558 -15.649  -0.074  0.00  0.00    -0.360 N 
ATOM     12  H   UNL d   1      29.505 -15.342  -0.272  0.00  0.00     0.162 HD
BRANCH  11  13
ATOM     13  C   UNL d   1      27.545 -14.684   0.258  0.00  0.00     0.127 C 
BRANCH  13  14
ATOM     14  C   UNL d   1      27.422 -13.503  -0.711  0.00  0.00     0.058 C 
BRANCH  14  15
ATOM     15  C   UNL d   1      27.063 -13.943  -2.118  0.00  0.00    -0.057 A 
ATOM     16  C   UNL d   1      25.829 -13.624  -2.710  0.00  0.00     0.007 A 
ATOM     17  C   UNL d   1      25.457 -14.164  -3.935  0.00  0.00     0.001 A 
ATOM     18  C   UNL d   1      26.353 -14.957  -4.639  0.00  0.00     0.000 A 
ATOM     19  C   UNL d   1      27.607 -15.239  -4.096  0.00  0.00     0.001 A 
ATOM     20  C   UNL d   1      27.959 -14.743  -2.839  0.00  0.00     0.007 A 
ENDBRANCH  14  15
ENDBRANCH  13  14
ENDBRANCH  11  13
ENDBRANCH   8   9
ENDBRANCH   7   8
ENDBRANCH   1   7
BRANCH   4  21
ATOM     21  N   UNL d   1      20.793 -17.600  -1.269  0.00  0.00    -0.106 N 
ATOM     22  H   UNL d   1      20.451 -16.746  -1.703  0.00  0.00     0.208 HD
BRANCH  21  23
ATOM     23  N   UNL d   1      19.896 -18.599  -0.967  0.00  0.00    -0.170 NA
ATOM     24  C   UNL d   1      19.833 -19.081   0.236  0.00  0.00     0.176 C 
BRANCH  24  25
ATOM     25  C   UNL d   1      18.875 -20.125   0.524  0.00  0.00     0.094 A 
ATOM     26  C   UNL d   1      18.692 -20.892   1.659  0.00  0.00     0.040 A 
ATOM     27  C   UNL d   1      17.668 -21.825   1.374  0.00  0.00     0.027 A 
ATOM     28  C   UNL d   1      17.280 -21.576   0.079  0.00  0.00     0.142 A 
ATOM     29  O   UNL d   1      17.977 -20.522  -0.437  0.00  0.00    -0.321 OA
ENDBRANCH  24  25
ENDBRANCH  21  23
ENDBRANCH   4  21
TORSDOF 9
ENDMDL
MODEL 4
REMARK VINA RESULT:   -30.166      3.254      4.614
REMARK INTER + INTRA:         -33.699
REMARK INTER:                 -32.851
REMARK INTRA:                  -0.848
REMARK CONF_INDEPENDENT:        2.685
REMARK UNBOUND:                -0.848
REMARK  9 active torsions:
REMARK  status: ('A' for Active; 'I' for Inactive)
REMARK    1  A    between atoms: C_2  and  C_3 
REMARK       I    between atoms: C_2  and  N_18 
REMARK    2  A    between atoms: C_3  and  S_4 
REMARK    3  A    between atoms: S_4  and  C_5 
REMARK    4  A    between atoms: C_8  and  N_9 
REMARK    5  A    between atoms: N_9  and  N_10 
REMARK    6  A    between atoms: C_11  and  C_12 
REMARK    7  A    between atoms: N_18  and  C_19 
REMARK    8  A    between atoms: C_19  and  C_20 
REMARK    9  A    between atoms: C_20  and  C_21 
ROOT
ATOM      1  C   UNL d   1      24.116 -17.299  -0.310  0.00  0.00     0.226 A 
ATOM      2  N   UNL d   1      23.947 -18.585   0.018  0.00  0.00    -0.132 NA
ATOM      3  N   UNL d   1      22.650 -18.778  -0.345  0.00  0.00    -0.103 N 
ATOM      4  C   UNL d   1      22.077 -17.636  -0.849  0.00  0.00     0.739 A 
ATOM      5  N   UNL d   1      23.000 -16.700  -0.837  0.00  0.00    -0.034 NA
ATOM      6  H   UNL d   1      22.238 -19.695  -0.231  0.00  0.00     0.208 HD
ENDROOT
BRANCH   1   7
ATOM      7  S   UNL d   1      25.641 -16.450  -0.319  0.00  0.00    -0.079 SA
BRANCH   7   8
ATOM      8  C   UNL d   1      26.182 -16.318  -2.047  0.00  0.00     0.185 C 
BRANCH   8   9
ATOM      9  C   UNL d   1      25.868 -14.904  -2.599  0.00  0.00     0.227 C 
ATOM     10  O   UNL d   1      25.089 -14.668  -3.531  0.00  0.00    -0.273 OA
ATOM     11  N   UNL d   1      26.484 -13.817  -2.031  0.00  0.00    -0.360 N 
ATOM     12  H   UNL d   1      26.230 -12.925  -2.445  0.00  0.00     0.162 HD
BRANCH  11  13
ATOM     13  C   UNL d   1      27.430 -13.863  -0.949  0.00  0.00     0.127 C 
BRANCH  13  14
ATOM     14  C   UNL d   1      27.292 -12.746   0.091  0.00  0.00     0.058 C 
BRANCH  14  15
ATOM     15  C   UNL d   1      27.852 -13.142   1.444  0.00  0.00    -0.057 A 
ATOM     16  C   UNL d   1      27.031 -13.322   2.570  0.00  0.00     0.007 A 
ATOM     17  C   UNL d   1      27.574 -13.530   3.832  0.00  0.00     0.001 A 
ATOM     18  C   UNL d   1      28.948 -13.662   3.977  0.00  0.00     0.000 A 
ATOM     19  C   UNL d   1      29.779 -13.544   2.863  0.00  0.00     0.001 A 
ATOM     20  C   UNL d   1      29.237 -13.277   1.604  0.00  0.00     0.007 A 
ENDBRANCH  14  15
ENDBRANCH  13  14
ENDBRANCH  11  13
ENDBRANCH   8   9
ENDBRANCH   7   8
ENDBRANCH   1   7
BRANCH   4  21
ATOM     21  N   UNL d   1      20.778 -17.564  -1.275  0.00  0.00    -0.106 N 
ATOM     22  H   UNL d   1      20.432 -16.752  -1.783  0.00  0.00     0.208 HD
BRANCH  21  23
ATOM     23  N   UNL d   1      19.904 -18.581  -0.970  0.00  0.00    -0.170 NA
ATOM     24  C   UNL d   1      19.850 -19.060   0.234  0.00  0.00     0.176 C 
BRANCH  24  25
ATOM     25  C   UNL d   1      18.915 -20.125   0.524  0.00  0.00     0.094 A 
ATOM     26  C   UNL d   1      18.789 -20.935   1.636  0.00  0.00     0.040 A 
ATOM     27  C   UNL d   1      17.763 -21.868   1.361  0.00  0.00     0.027 A 
ATOM     28  C   UNL d   1      17.316 -21.577   0.095  0.00  0.00     0.142 A 
ATOM     29  O   UNL d   1      17.979 -20.496  -0.411  0.00  0.00    -0.321 OA
ENDBRANCH  24  25
ENDBRANCH  21  23
ENDBRANCH   4  21
TORSDOF 9
ENDMDL
MODEL 5
REMARK VINA RESULT:   -29.975      1.609      2.892
REMARK INTER + INTRA:         -33.832
REMARK INTER:                 -32.660
REMARK INTRA:                  -1.173
REMARK CONF_INDEPENDENT:        2.685
REMARK UNBOUND:                -1.173
REMARK  9 active torsions:
REMARK  status: ('A' for Active; 'I' for Inactive)
REMARK    1  A    between atoms: C_2  and  C_3 
REMARK       I    between atoms: C_2  and  N_18 
REMARK    2  A    between atoms: C_3  and  S_4 
REMARK    3  A    between atoms: S_4  and  C_5 
REMARK    4  A    between atoms: C_8  and  N_9 
REMARK    5  A    between atoms: N_9  and  N_10 
REMARK    6  A    between atoms: C_11  and  C_12 
REMARK    7  A    between atoms: N_18  and  C_19 
REMARK    8  A    between atoms: C_19  and  C_20 
REMARK    9  A    between atoms: C_20  and  C_21 
ROOT
ATOM      1  C   UNL d   1      24.243 -17.566  -0.871  0.00  0.00     0.226 A 
ATOM      2  N   UNL d   1      24.003 -18.735  -0.266  0.00  0.00    -0.132 NA
ATOM      3  N   UNL d   1      22.651 -18.820  -0.390  0.00  0.00    -0.103 N 
ATOM      4  C   UNL d   1      22.119 -17.727  -1.030  0.00  0.00     0.739 A 
ATOM      5  N   UNL d   1      23.121 -16.935  -1.343  0.00  0.00    -0.034 NA
ATOM      6  H   UNL d   1      22.174 -19.638  -0.033  0.00  0.00     0.208 HD
ENDROOT
BRANCH   1   7
ATOM      7  S   UNL d   1      25.822 -16.941  -1.274  0.00  0.00    -0.079 SA
BRANCH   7   8
ATOM      8  C   UNL d   1      25.661 -15.146  -1.490  0.00  0.00     0.185 C 
BRANCH   8   9
ATOM      9  C   UNL d   1      24.832 -14.833  -2.761  0.00  0.00     0.227 C 
ATOM     10  O   UNL d   1      23.632 -14.530  -2.764  0.00  0.00    -0.273 OA
ATOM     11  N   UNL d   1      25.448 -14.887  -3.987  0.00  0.00    -0.360 N 
ATOM     12  H   UNL d   1      24.842 -14.671  -4.773  0.00  0.00     0.162 HD
BRANCH  11  13
ATOM     13  C   UNL d   1      26.826 -15.227  -4.215  0.00  0.00     0.127 C 
BRANCH  13  14
ATOM     14  C   UNL d   1      27.668 -14.139  -4.890  0.00  0.00     0.058 C 
BRANCH  14  15
ATOM     15  C   UNL d   1      27.131 -12.745  -4.628  0.00  0.00    -0.057 A 
ATOM     16  C   UNL d   1      26.947 -12.246  -3.327  0.00  0.00     0.007 A 
ATOM     17  C   UNL d   1      26.311 -11.031  -3.105  0.00  0.00     0.001 A 
ATOM     18  C   UNL d   1      25.934 -10.243  -4.185  0.00  0.00     0.000 A 
ATOM     19  C   UNL d   1      26.160 -10.693  -5.486  0.00  0.00     0.001 A 
ATOM     20  C   UNL d   1      26.747 -11.941  -5.709  0.00  0.00     0.007 A 
ENDBRANCH  14  15
ENDBRANCH  13  14
ENDBRANCH  11  13
ENDBRANCH   8   9
ENDBRANCH   7   8
ENDBRANCH   1   7
BRANCH   4  21
ATOM     21  N   UNL d   1      20.781 -17.565  -1.271  0.00  0.00    -0.106 N 
ATOM     22  H   UNL d   1      20.414 -16.696  -1.651  0.00  0.00     0.208 HD
BRANCH  21  23
ATOM     23  N   UNL d   1      19.905 -18.575  -0.948  0.00  0.00    -0.170 NA
ATOM     24  C   UNL d   1      19.814 -18.998   0.276  0.00  0.00     0.176 C 
BRANCH  24  25
ATOM     25  C   UNL d   1      18.877 -20.056   0.584  0.00  0.00     0.094 A 
ATOM     26  C   UNL d   1      18.666 -20.758   1.755  0.00  0.00     0.040 A 
ATOM     27  C   UNL d   1      17.688 -21.742   1.483  0.00  0.00     0.027 A 
ATOM     28  C   UNL d   1      17.354 -21.587   0.159  0.00  0.00     0.142 A 
ATOM     29  O   UNL d   1      18.039 -20.542  -0.389  0.00  0.00    -0.321 OA
ENDBRANCH  24  25
ENDBRANCH  21  23
ENDBRANCH   4  21
TORSDOF 9
ENDMDL
MODEL 6
REMARK VINA RESULT:   -29.697      1.367      2.136
REMARK INTER + INTRA:         -33.162
REMARK INTER:                 -32.382
REMARK INTRA:                  -0.780
REMARK CONF_INDEPENDENT:        2.685
REMARK UNBOUND:                -0.780
REMARK  9 active torsions:
REMARK  status: ('A' for Active; 'I' for Inactive)
REMARK    1  A    between atoms: C_2  and  C_3 
REMARK       I    between atoms: C_2  and  N_18 
REMARK    2  A    between atoms: C_3  and  S_4 
REMARK    3  A    between atoms: S_4  and  C_5 
REMARK    4  A    between atoms: C_8  and  N_9 
REMARK    5  A    between atoms: N_9  and  N_10 
REMARK    6  A    between atoms: C_11  and  C_12 
REMARK    7  A    between atoms: N_18  and  C_19 
REMARK    8  A    between atoms: C_19  and  C_20 
REMARK    9  A    between atoms: C_20  and  C_21 
ROOT
ATOM      1  C   UNL d   1      24.144 -17.292  -0.540  0.00  0.00     0.226 A 
ATOM      2  N   UNL d   1      23.884 -18.361   0.222  0.00  0.00    -0.132 NA
ATOM      3  N   UNL d   1      22.557 -18.535  -0.018  0.00  0.00    -0.103 N 
ATOM      4  C   UNL d   1      22.056 -17.588  -0.877  0.00  0.00     0.739 A 
ATOM      5  N   UNL d   1      23.056 -16.804  -1.216  0.00  0.00    -0.034 NA
ATOM      6  H   UNL d   1      22.075 -19.310   0.420  0.00  0.00     0.208 HD
ENDROOT
BRANCH   1   7
ATOM      7  S   UNL d   1      25.734 -16.657  -0.883  0.00  0.00    -0.079 SA
BRANCH   7   8
ATOM      8  C   UNL d   1      25.816 -16.325  -2.666  0.00  0.00     0.185 C 
BRANCH   8   9
ATOM      9  C   UNL d   1      25.138 -14.969  -2.989  0.00  0.00     0.227 C 
ATOM     10  O   UNL d   1      24.146 -14.519  -2.401  0.00  0.00    -0.273 OA
ATOM     11  N   UNL d   1      25.656 -14.189  -3.993  0.00  0.00    -0.360 N 
ATOM     12  H   UNL d   1      25.160 -13.317  -4.147  0.00  0.00     0.162 HD
BRANCH  11  13
ATOM     13  C   UNL d   1      26.792 -14.523  -4.808  0.00  0.00     0.127 C 
BRANCH  13  14
ATOM     14  C   UNL d   1      27.981 -13.562  -4.702  0.00  0.00     0.058 C 
BRANCH  14  15
ATOM     15  C   UNL d   1      28.284 -12.866  -6.014  0.00  0.00    -0.057 A 
ATOM     16  C   UNL d   1      27.739 -11.612  -6.342  0.00  0.00     0.007 A 
ATOM     17  C   UNL d   1      27.902 -11.064  -7.607  0.00  0.00     0.001 A 
ATOM     18  C   UNL d   1      28.697 -11.712  -8.542  0.00  0.00     0.000 A 
ATOM     19  C   UNL d   1      29.296 -12.930  -8.219  0.00  0.00     0.001 A 
ATOM     20  C   UNL d   1      29.086 -13.510  -6.966  0.00  0.00     0.007 A 
ENDBRANCH  14  15
ENDBRANCH  13  14
ENDBRANCH  11  13
ENDBRANCH   8   9
ENDBRANCH   7   8
ENDBRANCH   1   7
BRANCH   4  21
ATOM     21  N   UNL d   1      20.746 -17.536  -1.270  0.00  0.00    -0.106 N 
ATOM     22  H   UNL d   1      20.369 -16.721  -1.748  0.00  0.00     0.208 HD
BRANCH  21  23
ATOM     23  N   UNL d   1      19.905 -18.583  -0.973  0.00  0.00    -0.170 NA
ATOM     24  C   UNL d   1      19.740 -18.963   0.257  0.00  0.00     0.176 C 
BRANCH  24  25
ATOM     25  C   UNL d   1      18.843 -20.063   0.537  0.00  0.00     0.094 A 
ATOM     26  C   UNL d   1      18.728 -20.867   1.655  0.00  0.00     0.040 A 
ATOM     27  C   UNL d   1      17.746 -21.843   1.367  0.00  0.00     0.027 A 
ATOM     28  C   UNL d   1      17.314 -21.581   0.090  0.00  0.00     0.142 A 
ATOM     29  O   UNL d   1      17.943 -20.479  -0.413  0.00  0.00    -0.321 OA
ENDBRANCH  24  25
ENDBRANCH  21  23
ENDBRANCH   4  21
TORSDOF 9
ENDMDL
MODEL 7
REMARK VINA RESULT:   -29.495      3.450      4.520
REMARK INTER + INTRA:         -33.259
REMARK INTER:                 -32.180
REMARK INTRA:                  -1.079
REMARK CONF_INDEPENDENT:        2.685
REMARK UNBOUND:                -1.079
REMARK  9 active torsions:
REMARK  status: ('A' for Active; 'I' for Inactive)
REMARK    1  A    between atoms: C_2  and  C_3 
REMARK       I    between atoms: C_2  and  N_18 
REMARK    2  A    between atoms: C_3  and  S_4 
REMARK    3  A    between atoms: S_4  and  C_5 
REMARK    4  A    between atoms: C_8  and  N_9 
REMARK    5  A    between atoms: N_9  and  N_10 
REMARK    6  A    between atoms: C_11  and  C_12 
REMARK    7  A    between atoms: N_18  and  C_19 
REMARK    8  A    between atoms: C_19  and  C_20 
REMARK    9  A    between atoms: C_20  and  C_21 
ROOT
ATOM      1  C   UNL d   1      24.013 -17.101  -0.271  0.00  0.00     0.226 A 
ATOM      2  N   UNL d   1      23.951 -18.425  -0.093  0.00  0.00    -0.132 NA
ATOM      3  N   UNL d   1      22.672 -18.680  -0.477  0.00  0.00    -0.103 N 
ATOM      4  C   UNL d   1      22.004 -17.539  -0.848  0.00  0.00     0.739 A 
ATOM      5  N   UNL d   1      22.849 -16.538  -0.728  0.00  0.00    -0.034 NA
ATOM      6  H   UNL d   1      22.336 -19.635  -0.470  0.00  0.00     0.208 HD
ENDROOT
BRANCH   1   7
ATOM      7  S   UNL d   1      25.464 -16.135  -0.180  0.00  0.00    -0.079 SA
BRANCH   7   8
ATOM      8  C   UNL d   1      26.732 -16.958  -1.187  0.00  0.00     0.185 C 
BRANCH   8   9
ATOM      9  C   UNL d   1      27.665 -17.804  -0.284  0.00  0.00     0.227 C 
ATOM     10  O   UNL d   1      27.278 -18.583   0.597  0.00  0.00    -0.273 OA
ATOM     11  N   UNL d   1      29.024 -17.704  -0.453  0.00  0.00    -0.360 N 
ATOM     12  H   UNL d   1      29.570 -18.287   0.173  0.00  0.00     0.162 HD
BRANCH  11  13
ATOM     13  C   UNL d   1      29.687 -16.856  -1.406  0.00  0.00     0.127 C 
BRANCH  13  14
ATOM     14  C   UNL d   1      30.481 -15.691  -0.807  0.00  0.00     0.058 C 
BRANCH  14  15
ATOM     15  C   UNL d   1      29.825 -15.122   0.436  0.00  0.00    -0.057 A 
ATOM     16  C   UNL d   1      28.453 -14.822   0.489  0.00  0.00     0.007 A 
ATOM     17  C   UNL d   1      27.901 -14.159   1.578  0.00  0.00     0.001 A 
ATOM     18  C   UNL d   1      28.693 -13.868   2.681  0.00  0.00     0.000 A 
ATOM     19  C   UNL d   1      30.046 -14.208   2.674  0.00  0.00     0.001 A 
ATOM     20  C   UNL d   1      30.613 -14.824   1.556  0.00  0.00     0.007 A 
ENDBRANCH  14  15
ENDBRANCH  13  14
ENDBRANCH  11  13
ENDBRANCH   8   9
ENDBRANCH   7   8
ENDBRANCH   1   7
BRANCH   4  21
ATOM     21  N   UNL d   1      20.700 -17.523  -1.266  0.00  0.00    -0.106 N 
ATOM     22  H   UNL d   1      20.316 -16.728  -1.771  0.00  0.00     0.208 HD
BRANCH  21  23
ATOM     23  N   UNL d   1      19.874 -18.579  -0.955  0.00  0.00    -0.170 NA
ATOM     24  C   UNL d   1      19.732 -18.959   0.277  0.00  0.00     0.176 C 
BRANCH  24  25
ATOM     25  C   UNL d   1      18.850 -20.067   0.571  0.00  0.00     0.094 A 
ATOM     26  C   UNL d   1      18.794 -20.905   1.668  0.00  0.00     0.040 A 
ATOM     27  C   UNL d   1      17.797 -21.874   1.404  0.00  0.00     0.027 A 
ATOM     28  C   UNL d   1      17.298 -21.573   0.159  0.00  0.00     0.142 A 
ATOM     29  O   UNL d   1      17.901 -20.455  -0.342  0.00  0.00    -0.321 OA
ENDBRANCH  24  25
ENDBRANCH  21  23
ENDBRANCH   4  21
TORSDOF 9
ENDMDL
MODEL 8
REMARK VINA RESULT:   -29.492      1.619      2.118
REMARK INTER + INTRA:         -32.377
REMARK INTER:                 -32.176
REMARK INTRA:                  -0.201
REMARK CONF_INDEPENDENT:        2.685
REMARK UNBOUND:                -0.201
REMARK  9 active torsions:
REMARK  status: ('A' for Active; 'I' for Inactive)
REMARK    1  A    between atoms: C_2  and  C_3 
REMARK       I    between atoms: C_2  and  N_18 
REMARK    2  A    between atoms: C_3  and  S_4 
REMARK    3  A    between atoms: S_4  and  C_5 
REMARK    4  A    between atoms: C_8  and  N_9 
REMARK    5  A    between atoms: N_9  and  N_10 
REMARK    6  A    between atoms: C_11  and  C_12 
REMARK    7  A    between atoms: N_18  and  C_19 
REMARK    8  A    between atoms: C_19  and  C_20 
REMARK    9  A    between atoms: C_20  and  C_21 
ROOT
ATOM      1  C   UNL d   1      24.264 -17.814  -0.608  0.00  0.00     0.226 A 
ATOM      2  N   UNL d   1      23.941 -18.937   0.045  0.00  0.00    -0.132 NA
ATOM      3  N   UNL d   1      22.600 -18.988  -0.174  0.00  0.00    -0.103 N 
ATOM      4  C   UNL d   1      22.153 -17.921  -0.914  0.00  0.00     0.739 A 
ATOM      5  N   UNL d   1      23.201 -17.179  -1.198  0.00  0.00    -0.034 NA
ATOM      6  H   UNL d   1      22.070 -19.768   0.194  0.00  0.00     0.208 HD
ENDROOT
BRANCH   1   7
ATOM      7  S   UNL d   1      25.889 -17.264  -0.929  0.00  0.00    -0.079 SA
BRANCH   7   8
ATOM      8  C   UNL d   1      25.938 -15.480  -0.591  0.00  0.00     0.185 C 
BRANCH   8   9
ATOM      9  C   UNL d   1      27.034 -14.803  -1.452  0.00  0.00     0.227 C 
ATOM     10  O   UNL d   1      28.223 -14.697  -1.126  0.00  0.00    -0.273 OA
ATOM     11  N   UNL d   1      26.689 -14.274  -2.671  0.00  0.00    -0.360 N 
ATOM     12  H   UNL d   1      27.457 -13.847  -3.178  0.00  0.00     0.162 HD
BRANCH  11  13
ATOM     13  C   UNL d   1      25.367 -14.277  -3.239  0.00  0.00     0.127 C 
BRANCH  13  14
ATOM     14  C   UNL d   1      25.255 -13.670  -4.642  0.00  0.00     0.058 C 
BRANCH  14  15
ATOM     15  C   UNL d   1      26.589 -13.622  -5.361  0.00  0.00    -0.057 A 
ATOM     16  C   UNL d   1      27.320 -14.784  -5.664  0.00  0.00     0.007 A 
ATOM     17  C   UNL d   1      28.607 -14.712  -6.181  0.00  0.00     0.001 A 
ATOM     18  C   UNL d   1      29.153 -13.476  -6.499  0.00  0.00     0.000 A 
ATOM     19  C   UNL d   1      28.423 -12.311  -6.261  0.00  0.00     0.001 A 
ATOM     20  C   UNL d   1      27.151 -12.381  -5.687  0.00  0.00     0.007 A 
ENDBRANCH  14  15
ENDBRANCH  13  14
ENDBRANCH  11  13
ENDBRANCH   8   9
ENDBRANCH   7   8
ENDBRANCH   1   7
BRANCH   4  21
ATOM     21  N   UNL d   1      20.842 -17.733  -1.261  0.00  0.00    -0.106 N 
ATOM     22  H   UNL d   1      20.538 -16.888  -1.739  0.00  0.00     0.208 HD
BRANCH  21  23
ATOM     23  N   UNL d   1      19.905 -18.679  -0.916  0.00  0.00    -0.170 NA
ATOM     24  C   UNL d   1      20.099 -19.451   0.109  0.00  0.00     0.176 C 
BRANCH  24  25
ATOM     25  C   UNL d   1      19.091 -20.430   0.450  0.00  0.00     0.094 A 
ATOM     26  C   UNL d   1      17.954 -20.824  -0.228  0.00  0.00     0.040 A 
ATOM     27  C   UNL d   1      17.277 -21.755   0.594  0.00  0.00     0.027 A 
ATOM     28  C   UNL d   1      18.039 -21.879   1.730  0.00  0.00     0.142 A 
ATOM     29  O   UNL d   1      19.164 -21.111   1.640  0.00  0.00    -0.321 OA
ENDBRANCH  24  25
ENDBRANCH  21  23
ENDBRANCH   4  21
TORSDOF 9
ENDMDL
MODEL 9
REMARK VINA RESULT:   -29.320      2.528      3.139
REMARK INTER + INTRA:         -32.807
REMARK INTER:                 -32.004
REMARK INTRA:                  -0.803
REMARK CONF_INDEPENDENT:        2.685
REMARK UNBOUND:                -0.803
REMARK  9 active torsions:
REMARK  status: ('A' for Active; 'I' for Inactive)
REMARK    1  A    between atoms: C_2  and  C_3 
REMARK       I    between atoms: C_2  and  N_18 
REMARK    2  A    between atoms: C_3  and  S_4 
REMARK    3  A    between atoms: S_4  and  C_5 
REMARK    4  A    between atoms: C_8  and  N_9 
REMARK    5  A    between atoms: N_9  and  N_10 
REMARK    6  A    between atoms: C_11  and  C_12 
REMARK    7  A    between atoms: N_18  and  C_19 
REMARK    8  A    between atoms: C_19  and  C_20 
REMARK    9  A    between atoms: C_20  and  C_21 
ROOT
ATOM      1  C   UNL d   1      24.022 -17.055  -0.490  0.00  0.00     0.226 A 
ATOM      2  N   UNL d   1      24.086 -18.367  -0.745  0.00  0.00    -0.132 NA
ATOM      3  N   UNL d   1      22.794 -18.631  -1.078  0.00  0.00    -0.103 N 
ATOM      4  C   UNL d   1      21.999 -17.514  -1.000  0.00  0.00     0.739 A 
ATOM      5  N   UNL d   1      22.771 -16.513  -0.636  0.00  0.00    -0.034 NA
ATOM      6  H   UNL d   1      22.539 -19.571  -1.351  0.00  0.00     0.208 HD
ENDROOT
BRANCH   1   7
ATOM      7  S   UNL d   1      25.393 -16.009  -0.218  0.00  0.00    -0.079 SA
BRANCH   7   8
ATOM      8  C   UNL d   1      26.786 -16.677  -1.171  0.00  0.00     0.185 C 
BRANCH   8   9
ATOM      9  C   UNL d   1      27.608 -17.660  -0.299  0.00  0.00     0.227 C 
ATOM     10  O   UNL d   1      27.143 -18.344   0.621  0.00  0.00    -0.273 OA
ATOM     11  N   UNL d   1      28.951 -17.803  -0.544  0.00  0.00    -0.360 N 
ATOM     12  H   UNL d   1      29.423 -18.462   0.067  0.00  0.00     0.162 HD
BRANCH  11  13
ATOM     13  C   UNL d   1      29.696 -17.099  -1.553  0.00  0.00     0.127 C 
BRANCH  13  14
ATOM     14  C   UNL d   1      30.990 -17.782  -2.009  0.00  0.00     0.058 C 
BRANCH  14  15
ATOM     15  C   UNL d   1      30.846 -18.451  -3.362  0.00  0.00    -0.057 A 
ATOM     16  C   UNL d   1      31.151 -19.809  -3.562  0.00  0.00     0.007 A 
ATOM     17  C   UNL d   1      31.163 -20.365  -4.835  0.00  0.00     0.001 A 
ATOM     18  C   UNL d   1      30.774 -19.599  -5.925  0.00  0.00     0.000 A 
ATOM     19  C   UNL d   1      30.411 -18.264  -5.742  0.00  0.00     0.001 A 
ATOM     20  C   UNL d   1      30.454 -17.689  -4.469  0.00  0.00     0.007 A 
ENDBRANCH  14  15
ENDBRANCH  13  14
ENDBRANCH  11  13
ENDBRANCH   8   9
ENDBRANCH   7   8
ENDBRANCH   1   7
BRANCH   4  21
ATOM     21  N   UNL d   1      20.658 -17.516  -1.275  0.00  0.00    -0.106 N 
ATOM     22  H   UNL d   1      20.197 -16.697  -1.662  0.00  0.00     0.208 HD
BRANCH  21  23
ATOM     23  N   UNL d   1      19.905 -18.628  -0.976  0.00  0.00    -0.170 NA
ATOM     24  C   UNL d   1      19.843 -19.070   0.242  0.00  0.00     0.176 C 
BRANCH  24  25
ATOM     25  C   UNL d   1      19.035 -20.236   0.524  0.00  0.00     0.094 A 
ATOM     26  C   UNL d   1      18.019 -20.824  -0.204  0.00  0.00     0.040 A 
ATOM     27  C   UNL d   1      17.512 -21.892   0.572  0.00  0.00     0.027 A 
ATOM     28  C   UNL d   1      18.248 -21.899   1.732  0.00  0.00     0.142 A 
ATOM     29  O   UNL d   1      19.203 -20.924   1.701  0.00  0.00    -0.321 OA
ENDBRANCH  24  25
ENDBRANCH  21  23
ENDBRANCH   4  21
TORSDOF 9
ENDMDL
