MODEL 1
REMARK VINA RESULT:    -7.743      0.000      0.000
REMARK INTER + INTRA:         -14.378
REMARK INTER:                 -11.621
REMARK INTRA:                  -2.757
REMARK CONF_INDEPENDENT:        3.878
REMARK UNBOUND:                -2.757
REMARK  13 active torsions:
REMARK  status: ('A' for Active; 'I' for Inactive)
REMARK    1  A    between atoms: C_2  and  C_3 
REMARK    2  A    between atoms: C_3  and  C_4 
REMARK    3  A    between atoms: C_4  and  N_5 
REMARK       I    between atoms: N_5  and  C_6 
REMARK    4  A    between atoms: C_6  and  C_8 
REMARK    5  A    between atoms: C_8  and  C_9 
REMARK    6  A    between atoms: C_8  and  N_18 
REMARK    7  A    between atoms: C_10  and  O_11 
REMARK    8  A    between atoms: C_13  and  O_14 
REMARK    9  A    between atoms: C_16  and  O_17 
REMARK       I    between atoms: N_18  and  C_19 
REMARK   10  A    between atoms: N_18  and  C_29 
REMARK   11  A    between atoms: C_19  and  C_21 
REMARK   12  A    between atoms: C_21  and  C_22 
REMARK   13  A    between atoms: C_22  and  C_23 
ROOT
ATOM      1  C   UNL d   1      26.449 -15.983  -2.401  0.00  0.00     0.219 C 
ENDROOT
BRANCH   1   2
ATOM      2  C   UNL d   1      25.254 -16.504  -1.494  0.00  0.00     0.245 C 
ATOM      3  N   UNL d   1      24.446 -17.554  -1.763  0.00  0.00    -0.359 N 
ATOM      4  H   UNL d   1      24.363 -17.802  -2.743  0.00  0.00     0.162 HD
ATOM      5  O   UNL d   1      24.823 -15.933  -0.485  0.00  0.00    -0.271 OA
BRANCH   3   6
ATOM      6  C   UNL d   1      23.256 -17.575  -0.918  0.00  0.00     0.122 C 
BRANCH   6   7
ATOM      7  C   UNL d   1      22.389 -18.729  -1.248  0.00  0.00     0.019 C 
BRANCH   7   8
ATOM      8  C   UNL d   1      21.421 -18.968  -0.110  0.00  0.00    -0.003 C 
ATOM      9  C   UNL d   1      20.106 -19.396  -0.709  0.00  0.00     0.005 C 
ENDBRANCH   7   8
ENDBRANCH   6   7
ENDBRANCH   3   6
ENDBRANCH   1   2
BRANCH   1  10
ATOM     10  C   UNL d   1      26.106 -14.533  -2.828  0.00  0.00     0.040 C 
ATOM     11  C   UNL d   1      26.252 -13.456  -1.956  0.00  0.00     0.080 C 
ATOM     12  C   UNL d   1      26.343 -12.132  -2.382  0.00  0.00     0.073 C 
ATOM     13  C   UNL d   1      25.818 -11.816  -3.608  0.00  0.00     0.071 C 
ATOM     14  C   UNL d   1      25.327 -12.824  -4.410  0.00  0.00     0.073 C 
ATOM     15  C   UNL d   1      25.563 -14.160  -4.068  0.00  0.00     0.080 C 
BRANCH  11  16
ATOM     16  O   UNL d   1      26.268 -13.626  -0.602  0.00  0.00    -0.360 OA
ATOM     17  H   UNL d   1      26.340 -14.585  -0.435  0.00  0.00     0.217 HD
ENDBRANCH  11  16
BRANCH  13  18
ATOM     18  O   UNL d   1      25.686 -10.534  -4.033  0.00  0.00    -0.361 OA
ATOM     19  H   UNL d   1      24.764 -10.392  -4.308  0.00  0.00     0.217 HD
ENDBRANCH  13  18
BRANCH  15  20
ATOM     20  O   UNL d   1      25.152 -15.078  -4.992  0.00  0.00    -0.360 OA
ATOM     21  H   UNL d   1      24.311 -14.747  -5.371  0.00  0.00     0.217 HD
ENDBRANCH  15  20
ENDBRANCH   1  10
BRANCH   1  22
ATOM     22  N   UNL d   1      28.006 -16.133  -1.893  0.00  0.00    -0.326 N 
ATOM     23  C   UNL d   1      29.139 -15.577  -2.609  0.00  0.00     0.221 C 
ATOM     24  O   UNL d   1      30.321 -15.687  -2.292  0.00  0.00    -0.273 OA
BRANCH  23  25
ATOM     25  C   UNL d   1      28.952 -14.853  -3.881  0.00  0.00     0.103 C 
BRANCH  25  26
ATOM     26  C   UNL d   1      28.860 -15.581  -5.188  0.00  0.00     0.014 C 
BRANCH  26  27
ATOM     27  C   UNL d   1      30.173 -16.361  -5.461  0.00  0.00    -0.014 C 
ATOM     28  C   UNL d   1      30.029 -17.752  -4.840  0.00  0.00     0.004 C 
ATOM     29  C   UNL d   1      31.122 -18.717  -5.266  0.00  0.00     0.000 C 
ATOM     30  C   UNL d   1      31.235 -18.780  -6.784  0.00  0.00     0.000 C 
ATOM     31  C   UNL d   1      31.505 -17.397  -7.365  0.00  0.00     0.000 C 
ATOM     32  C   UNL d   1      30.410 -16.418  -6.974  0.00  0.00     0.004 C 
ENDBRANCH  26  27
ENDBRANCH  25  26
ENDBRANCH  23  25
BRANCH  22  33
ATOM     33  C   UNL d   1      28.330 -16.790  -0.463  0.00  0.00     0.025 C 
ATOM     34  C   UNL d   1      28.485 -15.709   0.609  0.00  0.00     0.037 C 
ATOM     35  C   UNL d   1      27.305 -17.793   0.153  0.00  0.00     0.037 C 
ATOM     36  C   UNL d   1      29.606 -17.657  -0.525  0.00  0.00     0.037 C 
ENDBRANCH  22  33
ENDBRANCH   1  22
TORSDOF 13
ENDMDL
MODEL 2
REMARK VINA RESULT:    -6.933      2.414      6.911
REMARK INTER + INTRA:         -13.945
REMARK INTER:                 -10.811
REMARK INTRA:                  -3.133
REMARK CONF_INDEPENDENT:        3.878
REMARK UNBOUND:                -3.133
REMARK  13 active torsions:
REMARK  status: ('A' for Active; 'I' for Inactive)
REMARK    1  A    between atoms: C_2  and  C_3 
REMARK    2  A    between atoms: C_3  and  C_4 
REMARK    3  A    between atoms: C_4  and  N_5 
REMARK       I    between atoms: N_5  and  C_6 
REMARK    4  A    between atoms: C_6  and  C_8 
REMARK    5  A    between atoms: C_8  and  C_9 
REMARK    6  A    between atoms: C_8  and  N_18 
REMARK    7  A    between atoms: C_10  and  O_11 
REMARK    8  A    between atoms: C_13  and  O_14 
REMARK    9  A    between atoms: C_16  and  O_17 
REMARK       I    between atoms: N_18  and  C_19 
REMARK   10  A    between atoms: N_18  and  C_29 
REMARK   11  A    between atoms: C_19  and  C_21 
REMARK   12  A    between atoms: C_21  and  C_22 
REMARK   13  A    between atoms: C_22  and  C_23 
ROOT
ATOM      1  C   UNL d   1      28.267 -14.259  -2.539  0.00  0.00     0.219 C 
ENDROOT
BRANCH   1   2
ATOM      2  C   UNL d   1      27.635 -13.555  -1.263  0.00  0.00     0.245 C 
ATOM      3  N   UNL d   1      28.214 -13.440  -0.046  0.00  0.00    -0.359 N 
ATOM      4  H   UNL d   1      28.921 -14.134   0.169  0.00  0.00     0.162 HD
ATOM      5  O   UNL d   1      26.475 -13.135  -1.181  0.00  0.00    -0.271 OA
BRANCH   3   6
ATOM      6  C   UNL d   1      27.264 -13.043   0.989  0.00  0.00     0.122 C 
BRANCH   6   7
ATOM      7  C   UNL d   1      27.931 -12.924   2.306  0.00  0.00     0.019 C 
BRANCH   7   8
ATOM      8  C   UNL d   1      27.115 -13.659   3.347  0.00  0.00    -0.003 C 
ATOM      9  C   UNL d   1      28.052 -14.560   4.110  0.00  0.00     0.005 C 
ENDBRANCH   7   8
ENDBRANCH   6   7
ENDBRANCH   3   6
ENDBRANCH   1   2
BRANCH   1  10
ATOM     10  C   UNL d   1      28.820 -15.633  -2.080  0.00  0.00     0.040 C 
ATOM     11  C   UNL d   1      29.688 -16.377  -2.876  0.00  0.00     0.080 C 
ATOM     12  C   UNL d   1      30.509 -17.388  -2.377  0.00  0.00     0.073 C 
ATOM     13  C   UNL d   1      30.140 -17.990  -1.202  0.00  0.00     0.071 C 
ATOM     14  C   UNL d   1      29.050 -17.507  -0.511  0.00  0.00     0.073 C 
ATOM     15  C   UNL d   1      28.470 -16.291  -0.891  0.00  0.00     0.080 C 
BRANCH  11  16
ATOM     16  O   UNL d   1      29.758 -16.195  -4.227  0.00  0.00    -0.360 OA
ATOM     17  H   UNL d   1      30.701 -16.088  -4.452  0.00  0.00     0.217 HD
ENDBRANCH  11  16
BRANCH  13  18
ATOM     18  O   UNL d   1      30.760 -19.102  -0.731  0.00  0.00    -0.361 OA
ATOM     19  H   UNL d   1      30.705 -19.098   0.240  0.00  0.00     0.217 HD
ENDBRANCH  13  18
BRANCH  15  20
ATOM     20  O   UNL d   1      27.483 -15.834  -0.064  0.00  0.00    -0.360 OA
ATOM     21  H   UNL d   1      27.912 -15.577   0.778  0.00  0.00     0.217 HD
ENDBRANCH  15  20
ENDBRANCH   1  10
BRANCH   1  22
ATOM     22  N   UNL d   1      27.411 -14.365  -3.939  0.00  0.00    -0.326 N 
ATOM     23  C   UNL d   1      26.182 -15.126  -4.070  0.00  0.00     0.221 C 
ATOM     24  O   UNL d   1      25.522 -15.264  -5.098  0.00  0.00    -0.273 OA
BRANCH  23  25
ATOM     25  C   UNL d   1      25.636 -15.889  -2.933  0.00  0.00     0.103 C 
BRANCH  25  26
ATOM     26  C   UNL d   1      24.612 -15.293  -2.012  0.00  0.00     0.014 C 
BRANCH  26  27
ATOM     27  C   UNL d   1      24.335 -16.252  -0.826  0.00  0.00    -0.014 C 
ATOM     28  C   UNL d   1      22.867 -16.678  -0.900  0.00  0.00     0.004 C 
ATOM     29  C   UNL d   1      22.526 -17.828   0.031  0.00  0.00     0.000 C 
ATOM     30  C   UNL d   1      23.472 -19.003  -0.182  0.00  0.00     0.000 C 
ATOM     31  C   UNL d   1      24.921 -18.577   0.025  0.00  0.00     0.000 C 
ATOM     32  C   UNL d   1      25.295 -17.443  -0.916  0.00  0.00     0.004 C 
ENDBRANCH  26  27
ENDBRANCH  25  26
ENDBRANCH  23  25
BRANCH  22  33
ATOM     33  C   UNL d   1      27.832 -13.481  -5.213  0.00  0.00     0.025 C 
ATOM     34  C   UNL d   1      28.149 -14.374  -6.414  0.00  0.00     0.037 C 
ATOM     35  C   UNL d   1      26.817 -12.436  -5.771  0.00  0.00     0.037 C 
ATOM     36  C   UNL d   1      29.046 -12.583  -4.890  0.00  0.00     0.037 C 
ENDBRANCH  22  33
ENDBRANCH   1  22
TORSDOF 13
ENDMDL
MODEL 3
REMARK VINA RESULT:    -6.816      1.387      2.554
REMARK INTER + INTRA:         -14.198
REMARK INTER:                 -10.694
REMARK INTRA:                  -3.504
REMARK CONF_INDEPENDENT:        3.878
REMARK UNBOUND:                -3.504
REMARK  13 active torsions:
REMARK  status: ('A' for Active; 'I' for Inactive)
REMARK    1  A    between atoms: C_2  and  C_3 
REMARK    2  A    between atoms: C_3  and  C_4 
REMARK    3  A    between atoms: C_4  and  N_5 
REMARK       I    between atoms: N_5  and  C_6 
REMARK    4  A    between atoms: C_6  and  C_8 
REMARK    5  A    between atoms: C_8  and  C_9 
REMARK    6  A    between atoms: C_8  and  N_18 
REMARK    7  A    between atoms: C_10  and  O_11 
REMARK    8  A    between atoms: C_13  and  O_14 
REMARK    9  A    between atoms: C_16  and  O_17 
REMARK       I    between atoms: N_18  and  C_19 
REMARK   10  A    between atoms: N_18  and  C_29 
REMARK   11  A    between atoms: C_19  and  C_21 
REMARK   12  A    between atoms: C_21  and  C_22 
REMARK   13  A    between atoms: C_22  and  C_23 
ROOT
ATOM      1  C   UNL d   1      26.509 -16.039  -2.464  0.00  0.00     0.219 C 
ENDROOT
BRANCH   1   2
ATOM      2  C   UNL d   1      25.450 -16.521  -1.384  0.00  0.00     0.245 C 
ATOM      3  N   UNL d   1      25.345 -17.767  -0.869  0.00  0.00    -0.359 N 
ATOM      4  H   UNL d   1      25.718 -18.513  -1.447  0.00  0.00     0.162 HD
ATOM      5  O   UNL d   1      24.496 -15.851  -0.970  0.00  0.00    -0.271 OA
BRANCH   3   6
ATOM      6  C   UNL d   1      24.086 -17.975  -0.161  0.00  0.00     0.122 C 
BRANCH   6   7
ATOM      7  C   UNL d   1      23.169 -18.833  -0.947  0.00  0.00     0.019 C 
BRANCH   7   8
ATOM      8  C   UNL d   1      21.773 -18.251  -0.894  0.00  0.00    -0.003 C 
ATOM      9  C   UNL d   1      20.847 -19.327  -0.388  0.00  0.00     0.005 C 
ENDBRANCH   7   8
ENDBRANCH   6   7
ENDBRANCH   3   6
ENDBRANCH   1   2
BRANCH   1  10
ATOM     10  C   UNL d   1      26.129 -14.592  -2.869  0.00  0.00     0.040 C 
ATOM     11  C   UNL d   1      26.266 -13.523  -1.986  0.00  0.00     0.080 C 
ATOM     12  C   UNL d   1      26.324 -12.192  -2.398  0.00  0.00     0.073 C 
ATOM     13  C   UNL d   1      25.773 -11.873  -3.613  0.00  0.00     0.071 C 
ATOM     14  C   UNL d   1      25.291 -12.882  -4.419  0.00  0.00     0.073 C 
ATOM     15  C   UNL d   1      25.560 -14.217  -4.096  0.00  0.00     0.080 C 
BRANCH  11  16
ATOM     16  O   UNL d   1      26.307 -13.708  -0.635  0.00  0.00    -0.360 OA
ATOM     17  H   UNL d   1      26.218 -14.666  -0.475  0.00  0.00     0.217 HD
ENDBRANCH  11  16
BRANCH  13  18
ATOM     18  O   UNL d   1      25.609 -10.589  -4.020  0.00  0.00    -0.361 OA
ATOM     19  H   UNL d   1      24.679 -10.463  -4.277  0.00  0.00     0.217 HD
ENDBRANCH  13  18
BRANCH  15  20
ATOM     20  O   UNL d   1      25.154 -15.132  -5.025  0.00  0.00    -0.360 OA
ATOM     21  H   UNL d   1      24.297 -14.818  -5.381  0.00  0.00     0.217 HD
ENDBRANCH  15  20
ENDBRANCH   1  10
BRANCH   1  22
ATOM     22  N   UNL d   1      28.120 -16.208  -2.182  0.00  0.00    -0.326 N 
ATOM     23  C   UNL d   1      29.127 -16.145  -3.226  0.00  0.00     0.221 C 
ATOM     24  O   UNL d   1      30.337 -16.295  -3.075  0.00  0.00    -0.273 OA
BRANCH  23  25
ATOM     25  C   UNL d   1      28.746 -15.950  -4.638  0.00  0.00     0.103 C 
BRANCH  25  26
ATOM     26  C   UNL d   1      29.771 -15.645  -5.688  0.00  0.00     0.014 C 
BRANCH  26  27
ATOM     27  C   UNL d   1      29.663 -14.161  -6.128  0.00  0.00    -0.014 C 
ATOM     28  C   UNL d   1      28.588 -14.071  -7.213  0.00  0.00     0.004 C 
ATOM     29  C   UNL d   1      28.181 -12.645  -7.539  0.00  0.00     0.000 C 
ATOM     30  C   UNL d   1      27.783 -11.888  -6.278  0.00  0.00     0.000 C 
ATOM     31  C   UNL d   1      28.923 -11.886  -5.265  0.00  0.00     0.000 C 
ATOM     32  C   UNL d   1      29.331 -13.304  -4.902  0.00  0.00     0.004 C 
ENDBRANCH  26  27
ENDBRANCH  25  26
ENDBRANCH  23  25
BRANCH  22  33
ATOM     33  C   UNL d   1      28.672 -16.299  -0.676  0.00  0.00     0.025 C 
ATOM     34  C   UNL d   1      29.329 -14.982  -0.256  0.00  0.00     0.037 C 
ATOM     35  C   UNL d   1      27.665 -16.607   0.476  0.00  0.00     0.037 C 
ATOM     36  C   UNL d   1      29.677 -17.461  -0.521  0.00  0.00     0.037 C 
ENDBRANCH  22  33
ENDBRANCH   1  22
TORSDOF 13
ENDMDL
MODEL 4
REMARK VINA RESULT:    -6.755      2.758      6.304
REMARK INTER + INTRA:         -13.877
REMARK INTER:                 -10.633
REMARK INTRA:                  -3.244
REMARK CONF_INDEPENDENT:        3.878
REMARK UNBOUND:                -3.244
REMARK  13 active torsions:
REMARK  status: ('A' for Active; 'I' for Inactive)
REMARK    1  A    between atoms: C_2  and  C_3 
REMARK    2  A    between atoms: C_3  and  C_4 
REMARK    3  A    between atoms: C_4  and  N_5 
REMARK       I    between atoms: N_5  and  C_6 
REMARK    4  A    between atoms: C_6  and  C_8 
REMARK    5  A    between atoms: C_8  and  C_9 
REMARK    6  A    between atoms: C_8  and  N_18 
REMARK    7  A    between atoms: C_10  and  O_11 
REMARK    8  A    between atoms: C_13  and  O_14 
REMARK    9  A    between atoms: C_16  and  O_17 
REMARK       I    between atoms: N_18  and  C_19 
REMARK   10  A    between atoms: N_18  and  C_29 
REMARK   11  A    between atoms: C_19  and  C_21 
REMARK   12  A    between atoms: C_21  and  C_22 
REMARK   13  A    between atoms: C_22  and  C_23 
ROOT
ATOM      1  C   UNL d   1      25.971 -15.154  -0.913  0.00  0.00     0.219 C 
ENDROOT
BRANCH   1   2
ATOM      2  C   UNL d   1      24.798 -16.144  -1.319  0.00  0.00     0.245 C 
ATOM      3  N   UNL d   1      23.933 -16.748  -0.473  0.00  0.00    -0.359 N 
ATOM      4  H   UNL d   1      24.260 -16.860   0.480  0.00  0.00     0.162 HD
ATOM      5  O   UNL d   1      24.607 -16.596  -2.455  0.00  0.00    -0.271 OA
BRANCH   3   6
ATOM      6  C   UNL d   1      23.198 -17.837  -1.108  0.00  0.00     0.122 C 
BRANCH   6   7
ATOM      7  C   UNL d   1      22.951 -18.941  -0.152  0.00  0.00     0.019 C 
BRANCH   7   8
ATOM      8  C   UNL d   1      21.489 -18.946   0.238  0.00  0.00    -0.003 C 
ATOM      9  C   UNL d   1      20.677 -19.009  -1.030  0.00  0.00     0.005 C 
ENDBRANCH   7   8
ENDBRANCH   6   7
ENDBRANCH   3   6
ENDBRANCH   1   2
BRANCH   1  10
ATOM     10  C   UNL d   1      27.251 -16.008  -0.725  0.00  0.00     0.040 C 
ATOM     11  C   UNL d   1      27.237 -17.206  -0.015  0.00  0.00     0.080 C 
ATOM     12  C   UNL d   1      28.221 -18.186  -0.145  0.00  0.00     0.073 C 
ATOM     13  C   UNL d   1      29.453 -17.798  -0.602  0.00  0.00     0.071 C 
ATOM     14  C   UNL d   1      29.640 -16.496  -1.015  0.00  0.00     0.073 C 
ATOM     15  C   UNL d   1      28.534 -15.653  -1.170  0.00  0.00     0.080 C 
BRANCH  11  16
ATOM     16  O   UNL d   1      26.268 -17.484   0.906  0.00  0.00    -0.360 OA
ATOM     17  H   UNL d   1      26.721 -17.669   1.750  0.00  0.00     0.217 HD
ENDBRANCH  11  16
BRANCH  13  18
ATOM     18  O   UNL d   1      30.527 -18.629  -0.587  0.00  0.00    -0.361 OA
ATOM     19  H   UNL d   1      30.762 -18.814   0.339  0.00  0.00     0.217 HD
ENDBRANCH  13  18
BRANCH  15  20
ATOM     20  O   UNL d   1      28.809 -14.428  -1.710  0.00  0.00    -0.360 OA
ATOM     21  H   UNL d   1      28.101 -14.237  -2.359  0.00  0.00     0.217 HD
ENDBRANCH  15  20
ENDBRANCH   1  10
BRANCH   1  22
ATOM     22  N   UNL d   1      26.251 -13.792  -1.790  0.00  0.00    -0.326 N 
ATOM     23  C   UNL d   1      26.915 -12.617  -1.255  0.00  0.00     0.221 C 
ATOM     24  O   UNL d   1      27.120 -11.564  -1.855  0.00  0.00    -0.273 OA
BRANCH  23  25
ATOM     25  C   UNL d   1      27.360 -12.571   0.151  0.00  0.00     0.103 C 
BRANCH  25  26
ATOM     26  C   UNL d   1      26.526 -13.151   1.254  0.00  0.00     0.014 C 
BRANCH  26  27
ATOM     27  C   UNL d   1      27.395 -14.056   2.165  0.00  0.00    -0.014 C 
ATOM     28  C   UNL d   1      28.860 -13.839   1.781  0.00  0.00     0.004 C 
ATOM     29  C   UNL d   1      29.839 -14.447   2.770  0.00  0.00     0.000 C 
ATOM     30  C   UNL d   1      29.545 -13.977   4.189  0.00  0.00     0.000 C 
ATOM     31  C   UNL d   1      28.116 -14.322   4.590  0.00  0.00     0.000 C 
ATOM     32  C   UNL d   1      27.116 -13.700   3.629  0.00  0.00     0.004 C 
ENDBRANCH  26  27
ENDBRANCH  25  26
ENDBRANCH  23  25
BRANCH  22  33
ATOM     33  C   UNL d   1      25.927 -13.762  -3.363  0.00  0.00     0.025 C 
ATOM     34  C   UNL d   1      24.417 -13.729  -3.608  0.00  0.00     0.037 C 
ATOM     35  C   UNL d   1      26.479 -12.582  -4.222  0.00  0.00     0.037 C 
ATOM     36  C   UNL d   1      26.550 -14.979  -4.082  0.00  0.00     0.037 C 
ENDBRANCH  22  33
ENDBRANCH   1  22
TORSDOF 13
ENDMDL
MODEL 5
REMARK VINA RESULT:    -6.711      2.069      6.428
REMARK INTER + INTRA:         -14.062
REMARK INTER:                 -10.589
REMARK INTRA:                  -3.473
REMARK CONF_INDEPENDENT:        3.878
REMARK UNBOUND:                -3.473
REMARK  13 active torsions:
REMARK  status: ('A' for Active; 'I' for Inactive)
REMARK    1  A    between atoms: C_2  and  C_3 
REMARK    2  A    between atoms: C_3  and  C_4 
REMARK    3  A    between atoms: C_4  and  N_5 
REMARK       I    between atoms: N_5  and  C_6 
REMARK    4  A    between atoms: C_6  and  C_8 
REMARK    5  A    between atoms: C_8  and  C_9 
REMARK    6  A    between atoms: C_8  and  N_18 
REMARK    7  A    between atoms: C_10  and  O_11 
REMARK    8  A    between atoms: C_13  and  O_14 
REMARK    9  A    between atoms: C_16  and  O_17 
REMARK       I    between atoms: N_18  and  C_19 
REMARK   10  A    between atoms: N_18  and  C_29 
REMARK   11  A    between atoms: C_19  and  C_21 
REMARK   12  A    between atoms: C_21  and  C_22 
REMARK   13  A    between atoms: C_22  and  C_23 
ROOT
ATOM      1  C   UNL d   1      29.415 -14.872  -3.157  0.00  0.00     0.219 C 
ENDROOT
BRANCH   1   2
ATOM      2  C   UNL d   1      29.774 -16.206  -3.941  0.00  0.00     0.245 C 
ATOM      3  N   UNL d   1      30.371 -16.285  -5.151  0.00  0.00    -0.359 N 
ATOM      4  H   UNL d   1      30.267 -15.469  -5.745  0.00  0.00     0.162 HD
ATOM      5  O   UNL d   1      29.432 -17.345  -3.603  0.00  0.00    -0.271 OA
BRANCH   3   6
ATOM      6  C   UNL d   1      30.265 -17.615  -5.742  0.00  0.00     0.122 C 
BRANCH   6   7
ATOM      7  C   UNL d   1      30.792 -17.627  -7.125  0.00  0.00     0.019 C 
BRANCH   7   8
ATOM      8  C   UNL d   1      30.929 -19.059  -7.595  0.00  0.00    -0.003 C 
ATOM      9  C   UNL d   1      30.686 -19.956  -6.408  0.00  0.00     0.005 C 
ENDBRANCH   7   8
ENDBRANCH   6   7
ENDBRANCH   3   6
ENDBRANCH   1   2
BRANCH   1  10
ATOM     10  C   UNL d   1      27.941 -14.524  -3.490  0.00  0.00     0.040 C 
ATOM     11  C   UNL d   1      27.349 -14.908  -4.691  0.00  0.00     0.080 C 
ATOM     12  C   UNL d   1      25.969 -14.978  -4.876  0.00  0.00     0.073 C 
ATOM     13  C   UNL d   1      25.173 -14.223  -4.054  0.00  0.00     0.071 C 
ATOM     14  C   UNL d   1      25.750 -13.521  -3.018  0.00  0.00     0.073 C 
ATOM     15  C   UNL d   1      27.089 -13.753  -2.683  0.00  0.00     0.080 C 
BRANCH  11  16
ATOM     16  O   UNL d   1      28.093 -15.200  -5.797  0.00  0.00    -0.360 OA
ATOM     17  H   UNL d   1      28.387 -16.125  -5.707  0.00  0.00     0.217 HD
ENDBRANCH  11  16
BRANCH  13  18
ATOM     18  O   UNL d   1      23.841 -14.074  -4.270  0.00  0.00    -0.361 OA
ATOM     19  H   UNL d   1      23.716 -13.467  -5.021  0.00  0.00     0.217 HD
ENDBRANCH  13  18
BRANCH  15  20
ATOM     20  O   UNL d   1      27.528 -13.108  -1.562  0.00  0.00    -0.360 OA
ATOM     21  H   UNL d   1      26.979 -12.303  -1.461  0.00  0.00     0.217 HD
ENDBRANCH  15  20
ENDBRANCH   1  10
BRANCH   1  22
ATOM     22  N   UNL d   1      29.742 -14.737  -1.551  0.00  0.00    -0.326 N 
ATOM     23  C   UNL d   1      29.159 -15.599  -0.540  0.00  0.00     0.221 C 
ATOM     24  O   UNL d   1      29.344 -15.522   0.672  0.00  0.00    -0.273 OA
BRANCH  23  25
ATOM     25  C   UNL d   1      28.193 -16.652  -0.905  0.00  0.00     0.103 C 
BRANCH  25  26
ATOM     26  C   UNL d   1      27.418 -17.398   0.140  0.00  0.00     0.014 C 
BRANCH  26  27
ATOM     27  C   UNL d   1      25.917 -17.014   0.071  0.00  0.00    -0.014 C 
ATOM     28  C   UNL d   1      25.609 -16.583  -1.364  0.00  0.00     0.004 C 
ATOM     29  C   UNL d   1      24.123 -16.445  -1.645  0.00  0.00     0.000 C 
ATOM     30  C   UNL d   1      23.373 -17.713  -1.257  0.00  0.00     0.000 C 
ATOM     31  C   UNL d   1      23.597 -18.047   0.214  0.00  0.00     0.000 C 
ATOM     32  C   UNL d   1      25.077 -18.216   0.514  0.00  0.00     0.004 C 
ENDBRANCH  26  27
ENDBRANCH  25  26
ENDBRANCH  23  25
BRANCH  22  33
ATOM     33  C   UNL d   1      30.871 -13.715  -1.040  0.00  0.00     0.025 C 
ATOM     34  C   UNL d   1      32.024 -14.466  -0.372  0.00  0.00     0.037 C 
ATOM     35  C   UNL d   1      31.572 -12.787  -2.081  0.00  0.00     0.037 C 
ATOM     36  C   UNL d   1      30.280 -12.678  -0.059  0.00  0.00     0.037 C 
ENDBRANCH  22  33
ENDBRANCH   1  22
TORSDOF 13
ENDMDL
MODEL 6
REMARK VINA RESULT:    -6.668      2.318      6.706
REMARK INTER + INTRA:         -14.198
REMARK INTER:                 -10.546
REMARK INTRA:                  -3.652
REMARK CONF_INDEPENDENT:        3.878
REMARK UNBOUND:                -3.652
REMARK  13 active torsions:
REMARK  status: ('A' for Active; 'I' for Inactive)
REMARK    1  A    between atoms: C_2  and  C_3 
REMARK    2  A    between atoms: C_3  and  C_4 
REMARK    3  A    between atoms: C_4  and  N_5 
REMARK       I    between atoms: N_5  and  C_6 
REMARK    4  A    between atoms: C_6  and  C_8 
REMARK    5  A    between atoms: C_8  and  C_9 
REMARK    6  A    between atoms: C_8  and  N_18 
REMARK    7  A    between atoms: C_10  and  O_11 
REMARK    8  A    between atoms: C_13  and  O_14 
REMARK    9  A    between atoms: C_16  and  O_17 
REMARK       I    between atoms: N_18  and  C_19 
REMARK   10  A    between atoms: N_18  and  C_29 
REMARK   11  A    between atoms: C_19  and  C_21 
REMARK   12  A    between atoms: C_21  and  C_22 
REMARK   13  A    between atoms: C_22  and  C_23 
ROOT
ATOM      1  C   UNL d   1      29.524 -14.569  -3.687  0.00  0.00     0.219 C 
ENDROOT
BRANCH   1   2
ATOM      2  C   UNL d   1      30.205 -13.988  -4.999  0.00  0.00     0.245 C 
ATOM      3  N   UNL d   1      30.520 -12.693  -5.230  0.00  0.00    -0.359 N 
ATOM      4  H   UNL d   1      29.983 -12.012  -4.704  0.00  0.00     0.162 HD
ATOM      5  O   UNL d   1      30.416 -14.628  -6.037  0.00  0.00    -0.271 OA
BRANCH   3   6
ATOM      6  C   UNL d   1      30.823 -12.433  -6.633  0.00  0.00     0.122 C 
BRANCH   6   7
ATOM      7  C   UNL d   1      29.723 -11.685  -7.285  0.00  0.00     0.019 C 
BRANCH   7   8
ATOM      8  C   UNL d   1      28.489 -12.560  -7.344  0.00  0.00    -0.003 C 
ATOM      9  C   UNL d   1      27.409 -11.881  -6.540  0.00  0.00     0.005 C 
ENDBRANCH   7   8
ENDBRANCH   6   7
ENDBRANCH   3   6
ENDBRANCH   1   2
BRANCH   1  10
ATOM     10  C   UNL d   1      27.999 -14.315  -3.809  0.00  0.00     0.040 C 
ATOM     11  C   UNL d   1      27.214 -14.994  -4.738  0.00  0.00     0.080 C 
ATOM     12  C   UNL d   1      25.828 -15.107  -4.633  0.00  0.00     0.073 C 
ATOM     13  C   UNL d   1      25.163 -14.166  -3.891  0.00  0.00     0.071 C 
ATOM     14  C   UNL d   1      25.888 -13.222  -3.195  0.00  0.00     0.073 C 
ATOM     15  C   UNL d   1      27.275 -13.362  -3.076  0.00  0.00     0.080 C 
BRANCH  11  16
ATOM     16  O   UNL d   1      27.753 -15.561  -5.856  0.00  0.00    -0.360 OA
ATOM     17  H   UNL d   1      28.641 -15.175  -5.972  0.00  0.00     0.217 HD
ENDBRANCH  11  16
BRANCH  13  18
ATOM     18  O   UNL d   1      23.809 -14.074  -3.879  0.00  0.00    -0.361 OA
ATOM     19  H   UNL d   1      23.518 -13.682  -4.720  0.00  0.00     0.217 HD
ENDBRANCH  13  18
BRANCH  15  20
ATOM     20  O   UNL d   1      27.883 -12.452  -2.258  0.00  0.00    -0.360 OA
ATOM     21  H   UNL d   1      28.818 -12.389  -2.545  0.00  0.00     0.217 HD
ENDBRANCH  15  20
ENDBRANCH   1  10
BRANCH   1  22
ATOM     22  N   UNL d   1      29.866 -16.094  -3.178  0.00  0.00    -0.326 N 
ATOM     23  C   UNL d   1      29.272 -16.696  -1.999  0.00  0.00     0.221 C 
ATOM     24  O   UNL d   1      29.515 -17.817  -1.556  0.00  0.00    -0.273 OA
BRANCH  23  25
ATOM     25  C   UNL d   1      28.326 -15.942  -1.155  0.00  0.00     0.103 C 
BRANCH  25  26
ATOM     26  C   UNL d   1      27.486 -16.627  -0.119  0.00  0.00     0.014 C 
BRANCH  26  27
ATOM     27  C   UNL d   1      26.159 -17.126  -0.748  0.00  0.00    -0.014 C 
ATOM     28  C   UNL d   1      25.574 -18.194   0.178  0.00  0.00     0.004 C 
ATOM     29  C   UNL d   1      24.144 -18.572  -0.167  0.00  0.00     0.000 C 
ATOM     30  C   UNL d   1      23.256 -17.337  -0.247  0.00  0.00     0.000 C 
ATOM     31  C   UNL d   1      23.795 -16.347  -1.273  0.00  0.00     0.000 C 
ATOM     32  C   UNL d   1      25.218 -15.932  -0.933  0.00  0.00     0.004 C 
ENDBRANCH  26  27
ENDBRANCH  25  26
ENDBRANCH  23  25
BRANCH  22  33
ATOM     33  C   UNL d   1      30.782 -17.060  -4.077  0.00  0.00     0.025 C 
ATOM     34  C   UNL d   1      32.148 -16.424  -4.341  0.00  0.00     0.037 C 
ATOM     35  C   UNL d   1      31.122 -18.486  -3.541  0.00  0.00     0.037 C 
ATOM     36  C   UNL d   1      30.089 -17.396  -5.416  0.00  0.00     0.037 C 
ENDBRANCH  22  33
ENDBRANCH   1  22
TORSDOF 13
ENDMDL
MODEL 7
REMARK VINA RESULT:    -6.589      1.401      2.966
REMARK INTER + INTRA:         -13.951
REMARK INTER:                 -10.467
REMARK INTRA:                  -3.484
REMARK CONF_INDEPENDENT:        3.878
REMARK UNBOUND:                -3.484
REMARK  13 active torsions:
REMARK  status: ('A' for Active; 'I' for Inactive)
REMARK    1  A    between atoms: C_2  and  C_3 
REMARK    2  A    between atoms: C_3  and  C_4 
REMARK    3  A    between atoms: C_4  and  N_5 
REMARK       I    between atoms: N_5  and  C_6 
REMARK    4  A    between atoms: C_6  and  C_8 
REMARK    5  A    between atoms: C_8  and  C_9 
REMARK    6  A    between atoms: C_8  and  N_18 
REMARK    7  A    between atoms: C_10  and  O_11 
REMARK    8  A    between atoms: C_13  and  O_14 
REMARK    9  A    between atoms: C_16  and  O_17 
REMARK       I    between atoms: N_18  and  C_19 
REMARK   10  A    between atoms: N_18  and  C_29 
REMARK   11  A    between atoms: C_19  and  C_21 
REMARK   12  A    between atoms: C_21  and  C_22 
REMARK   13  A    between atoms: C_22  and  C_23 
ROOT
ATOM      1  C   UNL d   1      26.565 -16.121  -2.566  0.00  0.00     0.219 C 
ENDROOT
BRANCH   1   2
ATOM      2  C   UNL d   1      25.434 -16.365  -1.478  0.00  0.00     0.245 C 
ATOM      3  N   UNL d   1      24.553 -17.391  -1.458  0.00  0.00    -0.359 N 
ATOM      4  H   UNL d   1      24.368 -17.826  -2.356  0.00  0.00     0.162 HD
ATOM      5  O   UNL d   1      25.127 -15.574  -0.579  0.00  0.00    -0.271 OA
BRANCH   3   6
ATOM      6  C   UNL d   1      23.446 -17.159  -0.536  0.00  0.00     0.122 C 
BRANCH   6   7
ATOM      7  C   UNL d   1      22.848 -18.438  -0.090  0.00  0.00     0.019 C 
BRANCH   7   8
ATOM      8  C   UNL d   1      21.909 -18.951  -1.160  0.00  0.00    -0.003 C 
ATOM      9  C   UNL d   1      20.595 -19.277  -0.499  0.00  0.00     0.005 C 
ENDBRANCH   7   8
ENDBRANCH   6   7
ENDBRANCH   3   6
ENDBRANCH   1   2
BRANCH   1  10
ATOM     10  C   UNL d   1      26.423 -14.659  -3.060  0.00  0.00     0.040 C 
ATOM     11  C   UNL d   1      26.079 -14.358  -4.376  0.00  0.00     0.080 C 
ATOM     12  C   UNL d   1      25.559 -13.125  -4.769  0.00  0.00     0.073 C 
ATOM     13  C   UNL d   1      25.821 -12.038  -3.977  0.00  0.00     0.071 C 
ATOM     14  C   UNL d   1      26.482 -12.220  -2.781  0.00  0.00     0.073 C 
ATOM     15  C   UNL d   1      26.683 -13.514  -2.289  0.00  0.00     0.080 C 
BRANCH  11  16
ATOM     16  O   UNL d   1      26.274 -15.250  -5.390  0.00  0.00    -0.360 OA
ATOM     17  H   UNL d   1      26.862 -14.819  -6.039  0.00  0.00     0.217 HD
ENDBRANCH  11  16
BRANCH  13  18
ATOM     18  O   UNL d   1      25.526 -10.771  -4.363  0.00  0.00    -0.361 OA
ATOM     19  H   UNL d   1      24.771 -10.803  -4.976  0.00  0.00     0.217 HD
ENDBRANCH  13  18
BRANCH  15  20
ATOM     20  O   UNL d   1      27.227 -13.583  -1.038  0.00  0.00    -0.360 OA
ATOM     21  H   UNL d   1      26.737 -14.277  -0.551  0.00  0.00     0.217 HD
ENDBRANCH  15  20
ENDBRANCH   1  10
BRANCH   1  22
ATOM     22  N   UNL d   1      28.127 -16.524  -2.246  0.00  0.00    -0.326 N 
ATOM     23  C   UNL d   1      29.194 -16.434  -3.226  0.00  0.00     0.221 C 
ATOM     24  O   UNL d   1      30.368 -16.751  -3.050  0.00  0.00    -0.273 OA
BRANCH  23  25
ATOM     25  C   UNL d   1      28.922 -15.991  -4.606  0.00  0.00     0.103 C 
BRANCH  25  26
ATOM     26  C   UNL d   1      30.035 -15.734  -5.578  0.00  0.00     0.014 C 
BRANCH  26  27
ATOM     27  C   UNL d   1      29.952 -14.281  -6.115  0.00  0.00    -0.014 C 
ATOM     28  C   UNL d   1      28.912 -14.254  -7.236  0.00  0.00     0.004 C 
ATOM     29  C   UNL d   1      28.526 -12.849  -7.665  0.00  0.00     0.000 C 
ATOM     30  C   UNL d   1      28.097 -12.010  -6.468  0.00  0.00     0.000 C 
ATOM     31  C   UNL d   1      29.205 -11.949  -5.423  0.00  0.00     0.000 C 
ATOM     32  C   UNL d   1      29.590 -13.344  -4.957  0.00  0.00     0.004 C 
ENDBRANCH  26  27
ENDBRANCH  25  26
ENDBRANCH  23  25
BRANCH  22  33
ATOM     33  C   UNL d   1      28.575 -16.900  -0.750  0.00  0.00     0.025 C 
ATOM     34  C   UNL d   1      27.635 -17.946  -0.147  0.00  0.00     0.037 C 
ATOM     35  C   UNL d   1      30.001 -17.490  -0.518  0.00  0.00     0.037 C 
ATOM     36  C   UNL d   1      28.614 -15.646   0.151  0.00  0.00     0.037 C 
ENDBRANCH  22  33
ENDBRANCH   1  22
TORSDOF 13
ENDMDL
MODEL 8
REMARK VINA RESULT:    -6.411      2.434      6.430
REMARK INTER + INTRA:         -13.909
REMARK INTER:                 -10.289
REMARK INTRA:                  -3.620
REMARK CONF_INDEPENDENT:        3.878
REMARK UNBOUND:                -3.620
REMARK  13 active torsions:
REMARK  status: ('A' for Active; 'I' for Inactive)
REMARK    1  A    between atoms: C_2  and  C_3 
REMARK    2  A    between atoms: C_3  and  C_4 
REMARK    3  A    between atoms: C_4  and  N_5 
REMARK       I    between atoms: N_5  and  C_6 
REMARK    4  A    between atoms: C_6  and  C_8 
REMARK    5  A    between atoms: C_8  and  C_9 
REMARK    6  A    between atoms: C_8  and  N_18 
REMARK    7  A    between atoms: C_10  and  O_11 
REMARK    8  A    between atoms: C_13  and  O_14 
REMARK    9  A    between atoms: C_16  and  O_17 
REMARK       I    between atoms: N_18  and  C_19 
REMARK   10  A    between atoms: N_18  and  C_29 
REMARK   11  A    between atoms: C_19  and  C_21 
REMARK   12  A    between atoms: C_21  and  C_22 
REMARK   13  A    between atoms: C_22  and  C_23 
ROOT
ATOM      1  C   UNL d   1      28.538 -14.307  -0.521  0.00  0.00     0.219 C 
ENDROOT
BRANCH   1   2
ATOM      2  C   UNL d   1      27.263 -13.676  -1.226  0.00  0.00     0.245 C 
ATOM      3  N   UNL d   1      26.391 -14.326  -2.031  0.00  0.00    -0.359 N 
ATOM      4  H   UNL d   1      26.755 -15.153  -2.492  0.00  0.00     0.162 HD
ATOM      5  O   UNL d   1      26.975 -12.473  -1.236  0.00  0.00    -0.271 OA
BRANCH   3   6
ATOM      6  C   UNL d   1      25.531 -13.413  -2.776  0.00  0.00     0.122 C 
BRANCH   6   7
ATOM      7  C   UNL d   1      25.688 -13.607  -4.236  0.00  0.00     0.019 C 
BRANCH   7   8
ATOM      8  C   UNL d   1      25.905 -15.077  -4.524  0.00  0.00    -0.003 C 
ATOM      9  C   UNL d   1      27.148 -15.199  -5.368  0.00  0.00     0.005 C 
ENDBRANCH   7   8
ENDBRANCH   6   7
ENDBRANCH   3   6
ENDBRANCH   1   2
BRANCH   1  10
ATOM     10  C   UNL d   1      28.342 -14.156   1.009  0.00  0.00     0.040 C 
ATOM     11  C   UNL d   1      29.380 -14.387   1.909  0.00  0.00     0.080 C 
ATOM     12  C   UNL d   1      29.385 -13.898   3.215  0.00  0.00     0.073 C 
ATOM     13  C   UNL d   1      28.178 -13.594   3.789  0.00  0.00     0.071 C 
ATOM     14  C   UNL d   1      27.031 -13.674   3.028  0.00  0.00     0.073 C 
ATOM     15  C   UNL d   1      27.127 -13.850   1.644  0.00  0.00     0.080 C 
BRANCH  11  16
ATOM     16  O   UNL d   1      30.456 -15.160   1.581  0.00  0.00    -0.360 OA
ATOM     17  H   UNL d   1      30.424 -15.950   2.152  0.00  0.00     0.217 HD
ENDBRANCH  11  16
BRANCH  13  18
ATOM     18  O   UNL d   1      28.057 -13.293   5.107  0.00  0.00    -0.361 OA
ATOM     19  H   UNL d   1      27.569 -14.013   5.545  0.00  0.00     0.217 HD
ENDBRANCH  13  18
BRANCH  15  20
ATOM     20  O   UNL d   1      25.943 -13.783   0.965  0.00  0.00    -0.360 OA
ATOM     21  H   UNL d   1      25.899 -12.895   0.554  0.00  0.00     0.217 HD
ENDBRANCH  15  20
ENDBRANCH   1  10
BRANCH   1  22
ATOM     22  N   UNL d   1      29.062 -15.808  -0.940  0.00  0.00    -0.326 N 
ATOM     23  C   UNL d   1      28.469 -17.032  -0.434  0.00  0.00     0.221 C 
ATOM     24  O   UNL d   1      28.841 -18.176  -0.688  0.00  0.00    -0.273 OA
BRANCH  23  25
ATOM     25  C   UNL d   1      27.354 -16.994   0.530  0.00  0.00     0.103 C 
BRANCH  25  26
ATOM     26  C   UNL d   1      26.369 -18.121   0.631  0.00  0.00     0.014 C 
BRANCH  26  27
ATOM     27  C   UNL d   1      25.193 -17.895  -0.355  0.00  0.00    -0.014 C 
ATOM     28  C   UNL d   1      23.954 -18.575   0.230  0.00  0.00     0.004 C 
ATOM     29  C   UNL d   1      22.668 -18.203  -0.487  0.00  0.00     0.000 C 
ATOM     30  C   UNL d   1      22.505 -16.690  -0.567  0.00  0.00     0.000 C 
ATOM     31  C   UNL d   1      23.698 -16.052  -1.270  0.00  0.00     0.000 C 
ATOM     32  C   UNL d   1      24.995 -16.389  -0.554  0.00  0.00     0.004 C 
ENDBRANCH  26  27
ENDBRANCH  25  26
ENDBRANCH  23  25
BRANCH  22  33
ATOM     33  C   UNL d   1      30.185 -15.986  -2.075  0.00  0.00     0.025 C 
ATOM     34  C   UNL d   1      30.790 -14.633  -2.458  0.00  0.00     0.037 C 
ATOM     35  C   UNL d   1      31.423 -16.887  -1.774  0.00  0.00     0.037 C 
ATOM     36  C   UNL d   1      29.604 -16.676  -3.328  0.00  0.00     0.037 C 
ENDBRANCH  22  33
ENDBRANCH   1  22
TORSDOF 13
ENDMDL
MODEL 9
REMARK VINA RESULT:    -6.405      2.246      6.565
REMARK INTER + INTRA:         -14.003
REMARK INTER:                 -10.283
REMARK INTRA:                  -3.721
REMARK CONF_INDEPENDENT:        3.878
REMARK UNBOUND:                -3.721
REMARK  13 active torsions:
REMARK  status: ('A' for Active; 'I' for Inactive)
REMARK    1  A    between atoms: C_2  and  C_3 
REMARK    2  A    between atoms: C_3  and  C_4 
REMARK    3  A    between atoms: C_4  and  N_5 
REMARK       I    between atoms: N_5  and  C_6 
REMARK    4  A    between atoms: C_6  and  C_8 
REMARK    5  A    between atoms: C_8  and  C_9 
REMARK    6  A    between atoms: C_8  and  N_18 
REMARK    7  A    between atoms: C_10  and  O_11 
REMARK    8  A    between atoms: C_13  and  O_14 
REMARK    9  A    between atoms: C_16  and  O_17 
REMARK       I    between atoms: N_18  and  C_19 
REMARK   10  A    between atoms: N_18  and  C_29 
REMARK   11  A    between atoms: C_19  and  C_21 
REMARK   12  A    between atoms: C_21  and  C_22 
REMARK   13  A    between atoms: C_22  and  C_23 
ROOT
ATOM      1  C   UNL d   1      29.205 -14.364  -3.510  0.00  0.00     0.219 C 
ENDROOT
BRANCH   1   2
ATOM      2  C   UNL d   1      29.784 -13.360  -4.595  0.00  0.00     0.245 C 
ATOM      3  N   UNL d   1      29.178 -12.992  -5.747  0.00  0.00    -0.359 N 
ATOM      4  H   UNL d   1      28.493 -13.646  -6.109  0.00  0.00     0.162 HD
ATOM      5  O   UNL d   1      30.927 -12.886  -4.591  0.00  0.00    -0.271 OA
BRANCH   3   6
ATOM      6  C   UNL d   1      30.092 -12.330  -6.672  0.00  0.00     0.122 C 
BRANCH   6   7
ATOM      7  C   UNL d   1      29.986 -12.909  -8.031  0.00  0.00     0.019 C 
BRANCH   7   8
ATOM      8  C   UNL d   1      28.531 -12.949  -8.445  0.00  0.00    -0.003 C 
ATOM      9  C   UNL d   1      27.940 -11.590  -8.173  0.00  0.00     0.005 C 
ENDBRANCH   7   8
ENDBRANCH   6   7
ENDBRANCH   3   6
ENDBRANCH   1   2
BRANCH   1  10
ATOM     10  C   UNL d   1      27.660 -14.338  -3.636  0.00  0.00     0.040 C 
ATOM     11  C   UNL d   1      26.848 -13.852  -2.613  0.00  0.00     0.080 C 
ATOM     12  C   UNL d   1      25.530 -13.440  -2.811  0.00  0.00     0.073 C 
ATOM     13  C   UNL d   1      24.858 -13.945  -3.894  0.00  0.00     0.071 C 
ATOM     14  C   UNL d   1      25.533 -14.740  -4.795  0.00  0.00     0.073 C 
ATOM     15  C   UNL d   1      26.926 -14.845  -4.720  0.00  0.00     0.080 C 
BRANCH  11  16
ATOM     16  O   UNL d   1      27.281 -13.789  -1.321  0.00  0.00    -0.360 OA
ATOM     17  H   UNL d   1      26.546 -13.431  -0.790  0.00  0.00     0.217 HD
ENDBRANCH  11  16
BRANCH  13  18
ATOM     18  O   UNL d   1      23.525 -13.759  -4.071  0.00  0.00    -0.361 OA
ATOM     19  H   UNL d   1      23.321 -13.868  -5.016  0.00  0.00     0.217 HD
ENDBRANCH  13  18
BRANCH  15  20
ATOM     20  O   UNL d   1      27.512 -15.547  -5.736  0.00  0.00    -0.360 OA
ATOM     21  H   UNL d   1      28.056 -16.248  -5.322  0.00  0.00     0.217 HD
ENDBRANCH  15  20
ENDBRANCH   1  10
BRANCH   1  22
ATOM     22  N   UNL d   1      29.797 -15.894  -3.392  0.00  0.00    -0.326 N 
ATOM     23  C   UNL d   1      29.558 -16.758  -2.251  0.00  0.00     0.221 C 
ATOM     24  O   UNL d   1      30.002 -17.894  -2.098  0.00  0.00    -0.273 OA
BRANCH  23  25
ATOM     25  C   UNL d   1      28.776 -16.289  -1.093  0.00  0.00     0.103 C 
BRANCH  25  26
ATOM     26  C   UNL d   1      28.088 -17.252  -0.172  0.00  0.00     0.014 C 
BRANCH  26  27
ATOM     27  C   UNL d   1      26.560 -16.987  -0.163  0.00  0.00    -0.014 C 
ATOM     28  C   UNL d   1      26.124 -16.704  -1.601  0.00  0.00     0.004 C 
ATOM     29  C   UNL d   1      24.616 -16.701  -1.784  0.00  0.00     0.000 C 
ATOM     30  C   UNL d   1      23.997 -17.983  -1.243  0.00  0.00     0.000 C 
ATOM     31  C   UNL d   1      24.343 -18.173   0.230  0.00  0.00     0.000 C 
ATOM     32  C   UNL d   1      25.849 -18.206   0.435  0.00  0.00     0.004 C 
ENDBRANCH  26  27
ENDBRANCH  25  26
ENDBRANCH  23  25
BRANCH  22  33
ATOM     33  C   UNL d   1      30.556 -16.565  -4.638  0.00  0.00     0.025 C 
ATOM     34  C   UNL d   1      30.081 -18.003  -4.856  0.00  0.00     0.037 C 
ATOM     35  C   UNL d   1      30.424 -15.902  -6.045  0.00  0.00     0.037 C 
ATOM     36  C   UNL d   1      32.087 -16.542  -4.435  0.00  0.00     0.037 C 
ENDBRANCH  22  33
ENDBRANCH   1  22
TORSDOF 13
ENDMDL
