MODEL 1
REMARK VINA RESULT:   -30.742      0.000      0.000
REMARK INTER + INTRA:         -32.922
REMARK INTER:                 -32.233
REMARK INTRA:                  -0.689
REMARK CONF_INDEPENDENT:        1.492
REMARK UNBOUND:                -0.689
REMARK  5 active torsions:
REMARK  status: ('A' for Active; 'I' for Inactive)
REMARK    1  A    between atoms: C_2  and  O_3 
REMARK    2  A    between atoms: C_2  and  C_12 
REMARK    3  A    between atoms: O_3  and  C_4 
REMARK       I    between atoms: C_12  and  N_14 
REMARK    4  A    between atoms: N_14  and  C_15 
REMARK    5  A    between atoms: C_19  and  N_20 
ROOT
ATOM      1  C   UNL d   1      24.328 -16.677  -1.080  0.00  0.00     0.071 C 
ATOM      2  C   UNL d   1      25.080 -17.666  -0.442  0.00  0.00     0.037 C 
ATOM      3  C   UNL d   1      24.575 -18.927  -0.145  0.00  0.00     0.004 C 
ATOM      4  C   UNL d   1      23.233 -19.180  -0.341  0.00  0.00     0.023 C 
ATOM      5  C   UNL d   1      22.415 -18.167  -0.855  0.00  0.00     0.047 C 
ATOM      6  C   UNL d   1      20.999 -18.399  -0.902  0.00  0.00     0.099 C 
ATOM      7  N   UNL d   1      19.863 -18.613  -0.896  0.00  0.00    -0.191 NA
ATOM      8  C   UNL d   1      22.964 -16.931  -1.255  0.00  0.00     0.059 C 
ENDROOT
BRANCH   1   9
ATOM      9  O   UNL d   1      24.797 -15.422  -1.393  0.00  0.00    -0.337 OA
BRANCH   9  10
ATOM     10  C   UNL d   1      26.049 -15.295  -2.102  0.00  0.00     0.217 C 
ATOM     11  C   UNL d   1      27.198 -14.657  -1.301  0.00  0.00     0.050 C 
BRANCH  10  12
ATOM     12  C   UNL d   1      25.890 -14.370  -3.347  0.00  0.00     0.251 C 
ATOM     13  O   UNL d   1      24.892 -14.473  -4.072  0.00  0.00    -0.270 OA
ATOM     14  N   UNL d   1      26.886 -13.428  -3.609  0.00  0.00    -0.325 N 
ATOM     15  H   UNL d   1      27.795 -13.547  -3.180  0.00  0.00     0.169 HD
BRANCH  14  16
ATOM     16  C   UNL d   1      26.750 -12.577  -4.745  0.00  0.00     0.038 A 
ATOM     17  C   UNL d   1      27.528 -12.834  -5.879  0.00  0.00     0.056 A 
ATOM     18  C   UNL d   1      27.528 -11.968  -6.972  0.00  0.00     0.064 A 
ATOM     19 CL   UNL d   1      28.524 -12.377  -8.328  0.00  0.00    -0.082 Cl
ATOM     20  C   UNL d   1      26.768 -10.793  -6.963  0.00  0.00     0.070 A 
ATOM     21  C   UNL d   1      25.939 -10.574  -5.843  0.00  0.00     0.064 A 
ATOM     22 CL   UNL d   1      24.964  -9.139  -5.767  0.00  0.00    -0.082 Cl
ATOM     23  C   UNL d   1      25.905 -11.466  -4.749  0.00  0.00     0.056 A 
BRANCH  20  24
ATOM     24  N   UNL d   1      26.740  -9.950  -8.079  0.00  0.00    -0.396 N 
ATOM     25  H   UNL d   1      25.882  -9.897  -8.621  0.00  0.00     0.156 HD
ATOM     26  H   UNL d   1      27.612  -9.683  -8.520  0.00  0.00     0.156 HD
ENDBRANCH  20  24
ENDBRANCH  14  16
ENDBRANCH  10  12
ENDBRANCH   9  10
ENDBRANCH   1   9
TORSDOF 5
ENDMDL
MODEL 2
REMARK VINA RESULT:   -30.545      1.062      2.110
REMARK INTER + INTRA:         -32.741
REMARK INTER:                 -32.036
REMARK INTRA:                  -0.704
REMARK CONF_INDEPENDENT:        1.492
REMARK UNBOUND:                -0.704
REMARK  5 active torsions:
REMARK  status: ('A' for Active; 'I' for Inactive)
REMARK    1  A    between atoms: C_2  and  O_3 
REMARK    2  A    between atoms: C_2  and  C_12 
REMARK    3  A    between atoms: O_3  and  C_4 
REMARK       I    between atoms: C_12  and  N_14 
REMARK    4  A    between atoms: N_14  and  C_15 
REMARK    5  A    between atoms: C_19  and  N_20 
ROOT
ATOM      1  C   UNL d   1      24.357 -16.604  -0.981  0.00  0.00     0.071 C 
ATOM      2  C   UNL d   1      25.015 -17.400  -0.041  0.00  0.00     0.037 C 
ATOM      3  C   UNL d   1      24.475 -18.575   0.469  0.00  0.00     0.004 C 
ATOM      4  C   UNL d   1      23.170 -18.905   0.163  0.00  0.00     0.023 C 
ATOM      5  C   UNL d   1      22.429 -18.060  -0.671  0.00  0.00     0.047 C 
ATOM      6  C   UNL d   1      21.032 -18.338  -0.847  0.00  0.00     0.099 C 
ATOM      7  N   UNL d   1      19.905 -18.578  -0.940  0.00  0.00    -0.191 NA
ATOM      8  C   UNL d   1      23.028 -16.931  -1.268  0.00  0.00     0.059 C 
ENDROOT
BRANCH   1   9
ATOM      9  O   UNL d   1      24.865 -15.439  -1.509  0.00  0.00    -0.337 OA
BRANCH   9  10
ATOM     10  C   UNL d   1      25.768 -15.512  -2.634  0.00  0.00     0.217 C 
ATOM     11  C   UNL d   1      27.265 -15.551  -2.276  0.00  0.00     0.050 C 
BRANCH  10  12
ATOM     12  C   UNL d   1      25.624 -14.254  -3.543  0.00  0.00     0.251 C 
ATOM     13  O   UNL d   1      24.690 -14.177  -4.350  0.00  0.00    -0.270 OA
ATOM     14  N   UNL d   1      26.560 -13.227  -3.412  0.00  0.00    -0.325 N 
ATOM     15  H   UNL d   1      27.444 -13.426  -2.961  0.00  0.00     0.169 HD
BRANCH  14  16
ATOM     16  C   UNL d   1      26.437 -12.072  -4.240  0.00  0.00     0.038 A 
ATOM     17  C   UNL d   1      25.977 -10.879  -3.671  0.00  0.00     0.056 A 
ATOM     18  C   UNL d   1      25.721  -9.753  -4.452  0.00  0.00     0.064 A 
ATOM     19 CL   UNL d   1      25.156  -8.325  -3.653  0.00  0.00    -0.082 Cl
ATOM     20  C   UNL d   1      25.890  -9.783  -5.842  0.00  0.00     0.070 A 
ATOM     21  C   UNL d   1      26.414 -10.969  -6.398  0.00  0.00     0.064 A 
ATOM     22 CL   UNL d   1      26.656 -11.075  -8.114  0.00  0.00    -0.082 Cl
ATOM     23  C   UNL d   1      26.711 -12.101  -5.608  0.00  0.00     0.056 A 
BRANCH  20  24
ATOM     24  N   UNL d   1      25.672  -8.638  -6.614  0.00  0.00    -0.396 N 
ATOM     25  H   UNL d   1      25.040  -7.928  -6.255  0.00  0.00     0.156 HD
ATOM     26  H   UNL d   1      25.852  -8.671  -7.610  0.00  0.00     0.156 HD
ENDBRANCH  20  24
ENDBRANCH  14  16
ENDBRANCH  10  12
ENDBRANCH   9  10
ENDBRANCH   1   9
TORSDOF 5
ENDMDL
MODEL 3
REMARK VINA RESULT:   -30.486      4.800      6.636
REMARK INTER + INTRA:         -32.861
REMARK INTER:                 -31.977
REMARK INTRA:                  -0.884
REMARK CONF_INDEPENDENT:        1.492
REMARK UNBOUND:                -0.884
REMARK  5 active torsions:
REMARK  status: ('A' for Active; 'I' for Inactive)
REMARK    1  A    between atoms: C_2  and  O_3 
REMARK    2  A    between atoms: C_2  and  C_12 
REMARK    3  A    between atoms: O_3  and  C_4 
REMARK       I    between atoms: C_12  and  N_14 
REMARK    4  A    between atoms: N_14  and  C_15 
REMARK    5  A    between atoms: C_19  and  N_20 
ROOT
ATOM      1  C   UNL d   1      24.216 -16.502  -1.007  0.00  0.00     0.071 C 
ATOM      2  C   UNL d   1      25.038 -17.453  -0.397  0.00  0.00     0.037 C 
ATOM      3  C   UNL d   1      24.627 -18.756  -0.140  0.00  0.00     0.004 C 
ATOM      4  C   UNL d   1      23.307 -19.100  -0.347  0.00  0.00     0.023 C 
ATOM      5  C   UNL d   1      22.417 -18.135  -0.833  0.00  0.00     0.047 C 
ATOM      6  C   UNL d   1      21.023 -18.469  -0.891  0.00  0.00     0.099 C 
ATOM      7  N   UNL d   1      19.905 -18.765  -0.895  0.00  0.00    -0.191 NA
ATOM      8  C   UNL d   1      22.875 -16.850  -1.193  0.00  0.00     0.059 C 
ENDROOT
BRANCH   1   9
ATOM      9  O   UNL d   1      24.592 -15.207  -1.281  0.00  0.00    -0.337 OA
BRANCH   9  10
ATOM     10  C   UNL d   1      25.932 -14.948  -1.754  0.00  0.00     0.217 C 
ATOM     11  C   UNL d   1      26.489 -15.979  -2.752  0.00  0.00     0.050 C 
BRANCH  10  12
ATOM     12  C   UNL d   1      26.951 -14.968  -0.574  0.00  0.00     0.251 C 
ATOM     13  O   UNL d   1      27.737 -15.915  -0.451  0.00  0.00    -0.270 OA
ATOM     14  N   UNL d   1      26.957 -13.895   0.318  0.00  0.00    -0.325 N 
ATOM     15  H   UNL d   1      26.147 -13.289   0.360  0.00  0.00     0.169 HD
BRANCH  14  16
ATOM     16  C   UNL d   1      27.886 -13.903   1.401  0.00  0.00     0.038 A 
ATOM     17  C   UNL d   1      29.254 -13.967   1.118  0.00  0.00     0.056 A 
ATOM     18  C   UNL d   1      30.201 -14.101   2.132  0.00  0.00     0.064 A 
ATOM     19 CL   UNL d   1      31.870 -14.169   1.678  0.00  0.00    -0.082 Cl
ATOM     20  C   UNL d   1      29.814 -14.204   3.474  0.00  0.00     0.070 A 
ATOM     21  C   UNL d   1      28.437 -14.076   3.755  0.00  0.00     0.064 A 
ATOM     22 CL   UNL d   1      27.886 -14.186   5.398  0.00  0.00    -0.082 Cl
ATOM     23  C   UNL d   1      27.476 -13.902   2.735  0.00  0.00     0.056 A 
BRANCH  20  24
ATOM     24  N   UNL d   1      30.770 -14.296   4.490  0.00  0.00    -0.396 N 
ATOM     25  H   UNL d   1      31.299 -13.462   4.730  0.00  0.00     0.156 HD
ATOM     26  H   UNL d   1      31.156 -15.201   4.727  0.00  0.00     0.156 HD
ENDBRANCH  20  24
ENDBRANCH  14  16
ENDBRANCH  10  12
ENDBRANCH   9  10
ENDBRANCH   1   9
TORSDOF 5
ENDMDL
MODEL 4
REMARK VINA RESULT:   -30.436      4.854      6.901
REMARK INTER + INTRA:         -32.792
REMARK INTER:                 -31.928
REMARK INTRA:                  -0.865
REMARK CONF_INDEPENDENT:        1.492
REMARK UNBOUND:                -0.865
REMARK  5 active torsions:
REMARK  status: ('A' for Active; 'I' for Inactive)
REMARK    1  A    between atoms: C_2  and  O_3 
REMARK    2  A    between atoms: C_2  and  C_12 
REMARK    3  A    between atoms: O_3  and  C_4 
REMARK       I    between atoms: C_12  and  N_14 
REMARK    4  A    between atoms: N_14  and  C_15 
REMARK    5  A    between atoms: C_19  and  N_20 
ROOT
ATOM      1  C   UNL d   1      24.214 -16.523  -1.005  0.00  0.00     0.071 C 
ATOM      2  C   UNL d   1      25.034 -17.476  -0.396  0.00  0.00     0.037 C 
ATOM      3  C   UNL d   1      24.621 -18.779  -0.143  0.00  0.00     0.004 C 
ATOM      4  C   UNL d   1      23.300 -19.121  -0.353  0.00  0.00     0.023 C 
ATOM      5  C   UNL d   1      22.413 -18.153  -0.837  0.00  0.00     0.047 C 
ATOM      6  C   UNL d   1      21.018 -18.484  -0.897  0.00  0.00     0.099 C 
ATOM      7  N   UNL d   1      19.899 -18.778  -0.904  0.00  0.00    -0.191 NA
ATOM      8  C   UNL d   1      22.873 -16.868  -1.194  0.00  0.00     0.059 C 
ENDROOT
BRANCH   1   9
ATOM      9  O   UNL d   1      24.593 -15.228  -1.275  0.00  0.00    -0.337 OA
BRANCH   9  10
ATOM     10  C   UNL d   1      25.918 -14.975  -1.789  0.00  0.00     0.217 C 
ATOM     11  C   UNL d   1      26.401 -15.951  -2.877  0.00  0.00     0.050 C 
BRANCH  10  12
ATOM     12  C   UNL d   1      26.986 -15.102  -0.660  0.00  0.00     0.251 C 
ATOM     13  O   UNL d   1      27.806 -16.027  -0.684  0.00  0.00    -0.270 OA
ATOM     14  N   UNL d   1      26.995 -14.146   0.358  0.00  0.00    -0.325 N 
ATOM     15  H   UNL d   1      26.169 -13.580   0.504  0.00  0.00     0.169 HD
BRANCH  14  16
ATOM     16  C   UNL d   1      27.968 -14.253   1.396  0.00  0.00     0.038 A 
ATOM     17  C   UNL d   1      27.564 -14.069   2.723  0.00  0.00     0.056 A 
ATOM     18  C   UNL d   1      28.487 -14.040   3.766  0.00  0.00     0.064 A 
ATOM     19 CL   UNL d   1      27.885 -13.810   5.374  0.00  0.00    -0.082 Cl
ATOM     20  C   UNL d   1      29.860 -14.168   3.521  0.00  0.00     0.070 A 
ATOM     21  C   UNL d   1      30.252 -14.416   2.189  0.00  0.00     0.064 A 
ATOM     22 CL   UNL d   1      31.938 -14.592   1.813  0.00  0.00    -0.082 Cl
ATOM     23  C   UNL d   1      29.318 -14.484   1.132  0.00  0.00     0.056 A 
BRANCH  20  24
ATOM     24  N   UNL d   1      30.777 -14.182   4.577  0.00  0.00    -0.396 N 
ATOM     25  H   UNL d   1      31.445 -13.419   4.643  0.00  0.00     0.156 HD
ATOM     26  H   UNL d   1      30.992 -15.058   5.036  0.00  0.00     0.156 HD
ENDBRANCH  20  24
ENDBRANCH  14  16
ENDBRANCH  10  12
ENDBRANCH   9  10
ENDBRANCH   1   9
TORSDOF 5
ENDMDL
MODEL 5
REMARK VINA RESULT:   -30.406      1.967      2.458
REMARK INTER + INTRA:         -32.622
REMARK INTER:                 -31.898
REMARK INTRA:                  -0.725
REMARK CONF_INDEPENDENT:        1.492
REMARK UNBOUND:                -0.725
REMARK  5 active torsions:
REMARK  status: ('A' for Active; 'I' for Inactive)
REMARK    1  A    between atoms: C_2  and  O_3 
REMARK    2  A    between atoms: C_2  and  C_12 
REMARK    3  A    between atoms: O_3  and  C_4 
REMARK       I    between atoms: C_12  and  N_14 
REMARK    4  A    between atoms: N_14  and  C_15 
REMARK    5  A    between atoms: C_19  and  N_20 
ROOT
ATOM      1  C   UNL d   1      24.612 -17.564  -1.624  0.00  0.00     0.071 C 
ATOM      2  C   UNL d   1      25.116 -17.666  -0.325  0.00  0.00     0.037 C 
ATOM      3  C   UNL d   1      24.386 -18.200   0.731  0.00  0.00     0.004 C 
ATOM      4  C   UNL d   1      23.052 -18.503   0.544  0.00  0.00     0.023 C 
ATOM      5  C   UNL d   1      22.473 -18.288  -0.711  0.00  0.00     0.047 C 
ATOM      6  C   UNL d   1      21.054 -18.460  -0.839  0.00  0.00     0.099 C 
ATOM      7  N   UNL d   1      19.905 -18.580  -0.895  0.00  0.00    -0.191 NA
ATOM      8  C   UNL d   1      23.255 -17.851  -1.801  0.00  0.00     0.059 C 
ENDROOT
BRANCH   1   9
ATOM      9  O   UNL d   1      25.308 -17.047  -2.692  0.00  0.00    -0.337 OA
BRANCH   9  10
ATOM     10  C   UNL d   1      25.547 -15.625  -2.755  0.00  0.00     0.217 C 
ATOM     11  C   UNL d   1      24.289 -14.741  -2.689  0.00  0.00     0.050 C 
BRANCH  10  12
ATOM     12  C   UNL d   1      26.219 -15.234  -4.106  0.00  0.00     0.251 C 
ATOM     13  O   UNL d   1      25.708 -15.585  -5.177  0.00  0.00    -0.270 OA
ATOM     14  N   UNL d   1      27.391 -14.476  -4.073  0.00  0.00    -0.325 N 
ATOM     15  H   UNL d   1      27.925 -14.439  -3.213  0.00  0.00     0.169 HD
BRANCH  14  16
ATOM     16  C   UNL d   1      28.014 -14.113  -5.303  0.00  0.00     0.038 A 
ATOM     17  C   UNL d   1      29.146 -14.819  -5.723  0.00  0.00     0.056 A 
ATOM     18  C   UNL d   1      29.867 -14.433  -6.851  0.00  0.00     0.064 A 
ATOM     19 CL   UNL d   1      31.252 -15.376  -7.288  0.00  0.00    -0.082 Cl
ATOM     20  C   UNL d   1      29.500 -13.304  -7.593  0.00  0.00     0.070 A 
ATOM     21  C   UNL d   1      28.321 -12.635  -7.200  0.00  0.00     0.064 A 
ATOM     22 CL   UNL d   1      27.802 -11.230  -8.078  0.00  0.00    -0.082 Cl
ATOM     23  C   UNL d   1      27.564 -13.043  -6.080  0.00  0.00     0.056 A 
BRANCH  20  24
ATOM     24  N   UNL d   1      30.202 -12.947  -8.748  0.00  0.00    -0.396 N 
ATOM     25  H   UNL d   1      30.260 -13.622  -9.504  0.00  0.00     0.156 HD
ATOM     26  H   UNL d   1      30.897 -12.211  -8.698  0.00  0.00     0.156 HD
ENDBRANCH  20  24
ENDBRANCH  14  16
ENDBRANCH  10  12
ENDBRANCH   9  10
ENDBRANCH   1   9
TORSDOF 5
ENDMDL
MODEL 6
REMARK VINA RESULT:   -30.401      1.892      2.312
REMARK INTER + INTRA:         -33.216
REMARK INTER:                 -31.892
REMARK INTRA:                  -1.323
REMARK CONF_INDEPENDENT:        1.492
REMARK UNBOUND:                -1.323
REMARK  5 active torsions:
REMARK  status: ('A' for Active; 'I' for Inactive)
REMARK    1  A    between atoms: C_2  and  O_3 
REMARK    2  A    between atoms: C_2  and  C_12 
REMARK    3  A    between atoms: O_3  and  C_4 
REMARK       I    between atoms: C_12  and  N_14 
REMARK    4  A    between atoms: N_14  and  C_15 
REMARK    5  A    between atoms: C_19  and  N_20 
ROOT
ATOM      1  C   UNL d   1      24.360 -16.616  -0.724  0.00  0.00     0.071 C 
ATOM      2  C   UNL d   1      25.110 -17.689  -0.238  0.00  0.00     0.037 C 
ATOM      3  C   UNL d   1      24.610 -18.983  -0.147  0.00  0.00     0.004 C 
ATOM      4  C   UNL d   1      23.271 -19.208  -0.395  0.00  0.00     0.023 C 
ATOM      5  C   UNL d   1      22.453 -18.131  -0.756  0.00  0.00     0.047 C 
ATOM      6  C   UNL d   1      21.039 -18.359  -0.854  0.00  0.00     0.099 C 
ATOM      7  N   UNL d   1      19.904 -18.575  -0.895  0.00  0.00    -0.191 NA
ATOM      8  C   UNL d   1      22.999 -16.846  -0.952  0.00  0.00     0.059 C 
ENDROOT
BRANCH   1   9
ATOM      9  O   UNL d   1      24.825 -15.326  -0.833  0.00  0.00    -0.337 OA
BRANCH   9  10
ATOM     10  C   UNL d   1      26.222 -15.058  -0.583  0.00  0.00     0.217 C 
ATOM     11  C   UNL d   1      26.507 -13.885   0.373  0.00  0.00     0.050 C 
BRANCH  10  12
ATOM     12  C   UNL d   1      26.957 -14.666  -1.900  0.00  0.00     0.251 C 
ATOM     13  O   UNL d   1      28.114 -14.231  -1.858  0.00  0.00    -0.270 OA
ATOM     14  N   UNL d   1      26.284 -14.829  -3.112  0.00  0.00    -0.325 N 
ATOM     15  H   UNL d   1      25.275 -14.919  -3.103  0.00  0.00     0.169 HD
BRANCH  14  16
ATOM     16  C   UNL d   1      26.947 -14.474  -4.324  0.00  0.00     0.038 A 
ATOM     17  C   UNL d   1      27.990 -15.284  -4.786  0.00  0.00     0.056 A 
ATOM     18  C   UNL d   1      28.754 -14.922  -5.895  0.00  0.00     0.064 A 
ATOM     19 CL   UNL d   1      30.021 -15.994  -6.389  0.00  0.00    -0.082 Cl
ATOM     20  C   UNL d   1      28.523 -13.719  -6.571  0.00  0.00     0.070 A 
ATOM     21  C   UNL d   1      27.429 -12.939  -6.137  0.00  0.00     0.064 A 
ATOM     22 CL   UNL d   1      27.079 -11.437  -6.934  0.00  0.00    -0.082 Cl
ATOM     23  C   UNL d   1      26.628 -13.318  -5.038  0.00  0.00     0.056 A 
BRANCH  20  24
ATOM     24  N   UNL d   1      29.265 -13.382  -7.708  0.00  0.00    -0.396 N 
ATOM     25  H   UNL d   1      29.189 -13.979  -8.526  0.00  0.00     0.156 HD
ATOM     26  H   UNL d   1      30.083 -12.793  -7.609  0.00  0.00     0.156 HD
ENDBRANCH  20  24
ENDBRANCH  14  16
ENDBRANCH  10  12
ENDBRANCH   9  10
ENDBRANCH   1   9
TORSDOF 5
ENDMDL
MODEL 7
REMARK VINA RESULT:   -30.324      1.873      2.861
REMARK INTER + INTRA:         -33.094
REMARK INTER:                 -31.816
REMARK INTRA:                  -1.278
REMARK CONF_INDEPENDENT:        1.492
REMARK UNBOUND:                -1.278
REMARK  5 active torsions:
REMARK  status: ('A' for Active; 'I' for Inactive)
REMARK    1  A    between atoms: C_2  and  O_3 
REMARK    2  A    between atoms: C_2  and  C_12 
REMARK    3  A    between atoms: O_3  and  C_4 
REMARK       I    between atoms: C_12  and  N_14 
REMARK    4  A    between atoms: N_14  and  C_15 
REMARK    5  A    between atoms: C_19  and  N_20 
ROOT
ATOM      1  C   UNL d   1      24.360 -16.614  -0.837  0.00  0.00     0.071 C 
ATOM      2  C   UNL d   1      25.111 -17.663  -0.302  0.00  0.00     0.037 C 
ATOM      3  C   UNL d   1      24.610 -18.950  -0.146  0.00  0.00     0.004 C 
ATOM      4  C   UNL d   1      23.270 -19.186  -0.380  0.00  0.00     0.023 C 
ATOM      5  C   UNL d   1      22.452 -18.127  -0.789  0.00  0.00     0.047 C 
ATOM      6  C   UNL d   1      21.038 -18.358  -0.872  0.00  0.00     0.099 C 
ATOM      7  N   UNL d   1      19.902 -18.575  -0.899  0.00  0.00    -0.191 NA
ATOM      8  C   UNL d   1      22.998 -16.853  -1.049  0.00  0.00     0.059 C 
ENDROOT
BRANCH   1   9
ATOM      9  O   UNL d   1      24.825 -15.330  -1.010  0.00  0.00    -0.337 OA
BRANCH   9  10
ATOM     10  C   UNL d   1      26.182 -15.017  -0.629  0.00  0.00     0.217 C 
ATOM     11  C   UNL d   1      26.341 -13.808   0.311  0.00  0.00     0.050 C 
BRANCH  10  12
ATOM     12  C   UNL d   1      27.038 -14.646  -1.878  0.00  0.00     0.251 C 
ATOM     13  O   UNL d   1      28.227 -14.334  -1.744  0.00  0.00    -0.270 OA
ATOM     14  N   UNL d   1      26.434 -14.690  -3.136  0.00  0.00    -0.325 N 
ATOM     15  H   UNL d   1      25.423 -14.676  -3.193  0.00  0.00     0.169 HD
BRANCH  14  16
ATOM     16  C   UNL d   1      27.208 -14.353  -4.285  0.00  0.00     0.038 A 
ATOM     17  C   UNL d   1      26.901 -13.183  -4.988  0.00  0.00     0.056 A 
ATOM     18  C   UNL d   1      27.540 -12.865  -6.185  0.00  0.00     0.064 A 
ATOM     19 CL   UNL d   1      27.090 -11.392  -6.977  0.00  0.00    -0.082 Cl
ATOM     20  C   UNL d   1      28.497 -13.721  -6.744  0.00  0.00     0.070 A 
ATOM     21  C   UNL d   1      28.845 -14.866  -5.997  0.00  0.00     0.064 A 
ATOM     22 CL   UNL d   1      30.030 -15.970  -6.626  0.00  0.00    -0.082 Cl
ATOM     23  C   UNL d   1      28.228 -15.175  -4.765  0.00  0.00     0.056 A 
BRANCH  20  24
ATOM     24  N   UNL d   1      29.165 -13.376  -7.923  0.00  0.00    -0.396 N 
ATOM     25  H   UNL d   1      28.952 -13.899  -8.767  0.00  0.00     0.156 HD
ATOM     26  H   UNL d   1      30.047 -12.881  -7.866  0.00  0.00     0.156 HD
ENDBRANCH  20  24
ENDBRANCH  14  16
ENDBRANCH  10  12
ENDBRANCH   9  10
ENDBRANCH   1   9
TORSDOF 5
ENDMDL
MODEL 8
REMARK VINA RESULT:   -29.870      3.087      3.848
REMARK INTER + INTRA:         -32.113
REMARK INTER:                 -31.361
REMARK INTRA:                  -0.752
REMARK CONF_INDEPENDENT:        1.492
REMARK UNBOUND:                -0.752
REMARK  5 active torsions:
REMARK  status: ('A' for Active; 'I' for Inactive)
REMARK    1  A    between atoms: C_2  and  O_3 
REMARK    2  A    between atoms: C_2  and  C_12 
REMARK    3  A    between atoms: O_3  and  C_4 
REMARK       I    between atoms: C_12  and  N_14 
REMARK    4  A    between atoms: N_14  and  C_15 
REMARK    5  A    between atoms: C_19  and  N_20 
ROOT
ATOM      1  C   UNL d   1      24.313 -16.537  -1.025  0.00  0.00     0.071 C 
ATOM      2  C   UNL d   1      25.029 -17.383  -0.176  0.00  0.00     0.037 C 
ATOM      3  C   UNL d   1      24.531 -18.599   0.278  0.00  0.00     0.004 C 
ATOM      4  C   UNL d   1      23.217 -18.929   0.017  0.00  0.00     0.023 C 
ATOM      5  C   UNL d   1      22.423 -18.043  -0.719  0.00  0.00     0.047 C 
ATOM      6  C   UNL d   1      21.022 -18.331  -0.843  0.00  0.00     0.099 C 
ATOM      7  N   UNL d   1      19.895 -18.583  -0.895  0.00  0.00    -0.191 NA
ATOM      8  C   UNL d   1      22.975 -16.866  -1.267  0.00  0.00     0.059 C 
ENDROOT
BRANCH   1   9
ATOM      9  O   UNL d   1      24.777 -15.331  -1.498  0.00  0.00    -0.337 OA
BRANCH   9  10
ATOM     10  C   UNL d   1      26.189 -15.040  -1.416  0.00  0.00     0.217 C 
ATOM     11  C   UNL d   1      26.543 -13.589  -1.045  0.00  0.00     0.050 C 
BRANCH  10  12
ATOM     12  C   UNL d   1      26.883 -15.263  -2.795  0.00  0.00     0.251 C 
ATOM     13  O   UNL d   1      26.213 -15.245  -3.835  0.00  0.00    -0.270 OA
ATOM     14  N   UNL d   1      28.263 -15.468  -2.821  0.00  0.00    -0.325 N 
ATOM     15  H   UNL d   1      28.732 -15.747  -1.968  0.00  0.00     0.169 HD
BRANCH  14  16
ATOM     16  C   UNL d   1      28.907 -15.672  -4.077  0.00  0.00     0.038 A 
ATOM     17  C   UNL d   1      29.654 -16.839  -4.272  0.00  0.00     0.056 A 
ATOM     18  C   UNL d   1      30.404 -17.037  -5.430  0.00  0.00     0.064 A 
ATOM     19 CL   UNL d   1      31.292 -18.517  -5.577  0.00  0.00    -0.082 Cl
ATOM     20  C   UNL d   1      30.458 -16.061  -6.432  0.00  0.00     0.070 A 
ATOM     21  C   UNL d   1      29.653 -14.916  -6.256  0.00  0.00     0.064 A 
ATOM     22 CL   UNL d   1      29.666 -13.667  -7.462  0.00  0.00    -0.082 Cl
ATOM     23  C   UNL d   1      28.861 -14.726  -5.102  0.00  0.00     0.056 A 
BRANCH  20  24
ATOM     24  N   UNL d   1      31.178 -16.284  -7.610  0.00  0.00    -0.396 N 
ATOM     25  H   UNL d   1      32.144 -16.590  -7.534  0.00  0.00     0.156 HD
ATOM     26  H   UNL d   1      30.875 -15.838  -8.468  0.00  0.00     0.156 HD
ENDBRANCH  20  24
ENDBRANCH  14  16
ENDBRANCH  10  12
ENDBRANCH   9  10
ENDBRANCH   1   9
TORSDOF 5
ENDMDL
MODEL 9
REMARK VINA RESULT:   -29.419      4.790      6.458
REMARK INTER + INTRA:         -31.701
REMARK INTER:                 -30.911
REMARK INTRA:                  -0.790
REMARK CONF_INDEPENDENT:        1.492
REMARK UNBOUND:                -0.790
REMARK  5 active torsions:
REMARK  status: ('A' for Active; 'I' for Inactive)
REMARK    1  A    between atoms: C_2  and  O_3 
REMARK    2  A    between atoms: C_2  and  C_12 
REMARK    3  A    between atoms: O_3  and  C_4 
REMARK       I    between atoms: C_12  and  N_14 
REMARK    4  A    between atoms: N_14  and  C_15 
REMARK    5  A    between atoms: C_19  and  N_20 
ROOT
ATOM      1  C   UNL d   1      24.182 -16.511  -0.917  0.00  0.00     0.071 C 
ATOM      2  C   UNL d   1      24.894 -17.289  -0.003  0.00  0.00     0.037 C 
ATOM      3  C   UNL d   1      24.446 -18.524   0.452  0.00  0.00     0.004 C 
ATOM      4  C   UNL d   1      23.175 -18.946   0.117  0.00  0.00     0.023 C 
ATOM      5  C   UNL d   1      22.376 -18.130  -0.691  0.00  0.00     0.047 C 
ATOM      6  C   UNL d   1      21.008 -18.512  -0.895  0.00  0.00     0.099 C 
ATOM      7  N   UNL d   1      19.905 -18.838  -1.012  0.00  0.00    -0.191 NA
ATOM      8  C   UNL d   1      22.887 -16.932  -1.234  0.00  0.00     0.059 C 
ENDROOT
BRANCH   1   9
ATOM      9  O   UNL d   1      24.599 -15.288  -1.392  0.00  0.00    -0.337 OA
BRANCH   9  10
ATOM     10  C   UNL d   1      25.985 -15.109  -1.752  0.00  0.00     0.217 C 
ATOM     11  C   UNL d   1      26.811 -16.403  -1.863  0.00  0.00     0.050 C 
BRANCH  10  12
ATOM     12  C   UNL d   1      26.734 -14.267  -0.674  0.00  0.00     0.251 C 
ATOM     13  O   UNL d   1      27.683 -13.544  -1.002  0.00  0.00    -0.270 OA
ATOM     14  N   UNL d   1      26.300 -14.344   0.650  0.00  0.00    -0.325 N 
ATOM     15  H   UNL d   1      25.724 -15.127   0.931  0.00  0.00     0.169 HD
BRANCH  14  16
ATOM     16  C   UNL d   1      26.978 -13.578   1.644  0.00  0.00     0.038 A 
ATOM     17  C   UNL d   1      27.682 -14.248   2.651  0.00  0.00     0.056 A 
ATOM     18  C   UNL d   1      28.261 -13.559   3.715  0.00  0.00     0.064 A 
ATOM     19 CL   UNL d   1      29.113 -14.480   4.908  0.00  0.00    -0.082 Cl
ATOM     20  C   UNL d   1      28.135 -12.169   3.830  0.00  0.00     0.070 A 
ATOM     21  C   UNL d   1      27.479 -11.495   2.779  0.00  0.00     0.064 A 
ATOM     22 CL   UNL d   1      27.293  -9.770   2.852  0.00  0.00    -0.082 Cl
ATOM     23  C   UNL d   1      26.923 -12.184   1.678  0.00  0.00     0.056 A 
BRANCH  20  24
ATOM     24  N   UNL d   1      28.754 -11.479   4.877  0.00  0.00    -0.396 N 
ATOM     25  H   UNL d   1      28.186 -11.201   5.673  0.00  0.00     0.156 HD
ATOM     26  H   UNL d   1      29.620 -10.985   4.702  0.00  0.00     0.156 HD
ENDBRANCH  20  24
ENDBRANCH  14  16
ENDBRANCH  10  12
ENDBRANCH   9  10
ENDBRANCH   1   9
TORSDOF 5
ENDMDL
