MODEL 1
REMARK VINA RESULT:   -27.080      0.000      0.000
REMARK INTER + INTRA:         -28.657
REMARK INTER:                 -28.273
REMARK INTRA:                  -0.384
REMARK CONF_INDEPENDENT:        1.193
REMARK UNBOUND:                -0.384
REMARK  4 active torsions:
REMARK  status: ('A' for Active; 'I' for Inactive)
REMARK    1  A    between atoms: C_5  and  C_6 
REMARK    2  A    between atoms: C_12  and  C_13 
REMARK    3  A    between atoms: C_13  and  C_14 
REMARK    4  A    between atoms: C_14  and  O_15 
ROOT
ATOM      1  C   UNL d   1      18.216 -20.254   0.569  0.00  0.00     0.073 C 
ATOM      2  C   UNL d   1      19.442 -19.587   0.055  0.00  0.00     0.059 A 
ATOM      3  N   UNL d   1      19.532 -19.325  -1.250  0.00  0.00    -0.179 NA
ATOM      4  N   UNL d   1      20.725 -18.730  -1.389  0.00  0.00    -0.277 N 
ATOM      5  C   UNL d   1      21.418 -18.595  -0.216  0.00  0.00     0.068 A 
ATOM      6  C   UNL d   1      20.611 -19.156   0.765  0.00  0.00    -0.001 A 
ATOM      7  H   UNL d   1      21.021 -18.463  -2.318  0.00  0.00     0.189 HD
ENDROOT
BRANCH   5   8
ATOM      8  C   UNL d   1      22.762 -18.029  -0.166  0.00  0.00    -0.007 A 
ATOM      9  C   UNL d   1      22.999 -16.687  -0.483  0.00  0.00     0.014 A 
ATOM     10  C   UNL d   1      24.305 -16.188  -0.500  0.00  0.00     0.001 A 
ATOM     11  C   UNL d   1      25.375 -17.010  -0.150  0.00  0.00     0.000 A 
ATOM     12  C   UNL d   1      25.145 -18.340   0.195  0.00  0.00     0.001 A 
ATOM     13  C   UNL d   1      23.846 -18.848   0.177  0.00  0.00     0.014 A 
ENDBRANCH   5   8
BRANCH   6  14
ATOM     14  C   UNL d   1      20.949 -19.249   2.223  0.00  0.00     0.069 C 
BRANCH  14  15
ATOM     15  C   UNL d   1      20.266 -20.376   2.984  0.00  0.00     0.168 C 
BRANCH  15  16
ATOM     16  O   UNL d   1      20.279 -20.143   4.385  0.00  0.00    -0.401 OA
ATOM     17  H   UNL d   1      19.978 -20.963   4.814  0.00  0.00     0.209 HD
ENDBRANCH  15  16
ENDBRANCH  14  15
ENDBRANCH   6  14
TORSDOF 4
ENDMDL
