MODEL 1
REMARK VINA RESULT:   -10.552      0.000      0.000
REMARK INTER + INTRA:         -16.026
REMARK INTER:                 -13.237
REMARK INTRA:                  -2.789
REMARK CONF_INDEPENDENT:        2.685
REMARK UNBOUND:                -2.789
REMARK  9 active torsions:
REMARK  status: ('A' for Active; 'I' for Inactive)
REMARK    1  A    between atoms: C_2  and  C_3 
REMARK       I    between atoms: C_2  and  N_30 
REMARK    2  A    between atoms: C_3  and  S_4 
REMARK    3  A    between atoms: C_5  and  S_4 
REMARK    4  A    between atoms: N_15  and  N_16 
REMARK       I    between atoms: N_16  and  C_17 
REMARK    5  A    between atoms: C_17  and  C_19 
REMARK    6  A    between atoms: C_19  and  C_20 
REMARK    7  A    between atoms: C_20  and  C_21 
REMARK    8  A    between atoms: N_30  and  C_31 
REMARK    9  A    between atoms: C_31  and  C_32 
ROOT
ATOM      1  C   UNL d   1      26.687 -15.341  -1.507  0.00  0.00     0.274 C 
ATOM      2  N   UNL d   1      27.919 -15.800  -2.139  0.00  0.00    -0.358 N 
ATOM      3  C   UNL d   1      28.144 -15.459  -3.473  0.00  0.00     0.046 A 
ATOM      4  C   UNL d   1      29.421 -15.429  -4.042  0.00  0.00     0.030 A 
ATOM      5  C   UNL d   1      29.595 -15.177  -5.418  0.00  0.00     0.002 A 
ATOM      6  C   UNL d   1      28.498 -14.987  -6.254  0.00  0.00     0.001 A 
ATOM      7  C   UNL d   1      27.231 -14.988  -5.703  0.00  0.00     0.019 A 
ATOM      8  C   UNL d   1      27.072 -15.192  -4.324  0.00  0.00     0.060 A 
ATOM      9  C   UNL d   1      25.721 -15.152  -3.764  0.00  0.00     0.277 C 
ATOM     10  O   UNL d   1      24.828 -14.742  -4.508  0.00  0.00    -0.266 OA
ATOM     11  N   UNL d   1      25.584 -15.584  -2.443  0.00  0.00    -0.221 N 
ATOM     12  H   UNL d   1      28.726 -15.951  -1.549  0.00  0.00     0.162 HD
ENDROOT
BRANCH  11  13
ATOM     13  N   UNL d   1      24.272 -15.857  -1.891  0.00  0.00    -0.262 N 
ATOM     14  C   UNL d   1      24.139 -16.812  -0.883  0.00  0.00     0.236 C 
ATOM     15  O   UNL d   1      25.014 -17.530  -0.414  0.00  0.00    -0.272 OA
ATOM     16  H   UNL d   1      23.621 -15.081  -1.906  0.00  0.00     0.190 HD
BRANCH  14  17
ATOM     17  C   UNL d   1      22.771 -16.913  -0.265  0.00  0.00     0.109 C 
BRANCH  17  18
ATOM     18  C   UNL d   1      22.587 -18.383   0.151  0.00  0.00     0.046 C 
BRANCH  18  19
ATOM     19  C   UNL d   1      21.249 -18.938  -0.153  0.00  0.00    -0.050 A 
ATOM     20  C   UNL d   1      20.430 -19.501   0.736  0.00  0.00    -0.006 A 
ATOM     21  C   UNL d   1      20.493 -19.701   2.144  0.00  0.00     0.014 A 
ATOM     22  C   UNL d   1      19.299 -19.989  -0.066  0.00  0.00     0.038 A 
ATOM     23  C   UNL d   1      19.495 -20.376   2.732  0.00  0.00     0.001 A 
ATOM     24  C   UNL d   1      18.375 -20.900   1.961  0.00  0.00     0.002 A 
ATOM     25  C   UNL d   1      18.242 -20.739   0.629  0.00  0.00     0.030 A 
ATOM     26  N   UNL d   1      19.424 -19.700  -1.307  0.00  0.00    -0.385 N 
ATOM     27  C   UNL d   1      20.674 -18.957  -1.532  0.00  0.00     0.155 A 
ATOM     28  H   UNL d   1      18.756 -19.977  -2.020  0.00  0.00     0.160 HD
ENDBRANCH  18  19
ENDBRANCH  17  18
ENDBRANCH  14  17
ENDBRANCH  11  13
BRANCH   1  29
ATOM     29  S   UNL d   1      26.860 -13.578  -1.049  0.00  0.00    -0.112 SA
BRANCH  29  30
ATOM     30  C   UNL d   1      28.329 -13.522   0.056  0.00  0.00     0.180 C 
BRANCH  30  31
ATOM     31  C   UNL d   1      28.389 -14.792   0.931  0.00  0.00     0.227 C 
ATOM     32  O   UNL d   1      28.714 -15.906   0.523  0.00  0.00    -0.273 OA
ATOM     33  N   UNL d   1      28.068 -14.686   2.257  0.00  0.00    -0.358 N 
ATOM     34  H   UNL d   1      28.044 -15.586   2.732  0.00  0.00     0.162 HD
BRANCH  33  35
ATOM     35  C   UNL d   1      27.603 -13.523   2.991  0.00  0.00     0.154 C 
BRANCH  35  36
ATOM     36  C   UNL d   1      27.457 -13.788   4.497  0.00  0.00     0.139 C 
ATOM     37  C   UNL d   1      28.076 -12.706   5.368  0.00  0.00     0.035 C 
ATOM     38  C   UNL d   1      28.539 -13.472   6.581  0.00  0.00     0.029 C 
ATOM     39  C   UNL d   1      28.905 -14.825   6.011  0.00  0.00     0.168 C 
ATOM     40  O   UNL d   1      28.088 -15.030   4.850  0.00  0.00    -0.384 OA
ENDBRANCH  35  36
ENDBRANCH  33  35
ENDBRANCH  30  31
ENDBRANCH  29  30
ENDBRANCH   1  29
TORSDOF 9
ENDMDL
MODEL 2
REMARK VINA RESULT:    -9.309      2.984      4.640
REMARK INTER + INTRA:         -14.629
REMARK INTER:                 -11.994
REMARK INTRA:                  -2.635
REMARK CONF_INDEPENDENT:        2.685
REMARK UNBOUND:                -2.635
REMARK  9 active torsions:
REMARK  status: ('A' for Active; 'I' for Inactive)
REMARK    1  A    between atoms: C_2  and  C_3 
REMARK       I    between atoms: C_2  and  N_30 
REMARK    2  A    between atoms: C_3  and  S_4 
REMARK    3  A    between atoms: C_5  and  S_4 
REMARK    4  A    between atoms: N_15  and  N_16 
REMARK       I    between atoms: N_16  and  C_17 
REMARK    5  A    between atoms: C_17  and  C_19 
REMARK    6  A    between atoms: C_19  and  C_20 
REMARK    7  A    between atoms: C_20  and  C_21 
REMARK    8  A    between atoms: N_30  and  C_31 
REMARK    9  A    between atoms: C_31  and  C_32 
ROOT
ATOM      1  C   UNL d   1      26.798 -15.623  -1.453  0.00  0.00     0.274 C 
ATOM      2  N   UNL d   1      27.985 -16.053  -2.186  0.00  0.00    -0.358 N 
ATOM      3  C   UNL d   1      28.166 -15.580  -3.487  0.00  0.00     0.046 A 
ATOM      4  C   UNL d   1      29.417 -15.533  -4.108  0.00  0.00     0.030 A 
ATOM      5  C   UNL d   1      29.543 -15.143  -5.456  0.00  0.00     0.002 A 
ATOM      6  C   UNL d   1      28.420 -14.827  -6.216  0.00  0.00     0.001 A 
ATOM      7  C   UNL d   1      27.178 -14.844  -5.610  0.00  0.00     0.019 A 
ATOM      8  C   UNL d   1      27.069 -15.188  -4.254  0.00  0.00     0.060 A 
ATOM      9  C   UNL d   1      25.746 -15.163  -3.631  0.00  0.00     0.277 C 
ATOM     10  O   UNL d   1      24.839 -14.645  -4.286  0.00  0.00    -0.266 OA
ATOM     11  N   UNL d   1      25.648 -15.727  -2.357  0.00  0.00    -0.221 N 
ATOM     12  H   UNL d   1      28.809 -16.294  -1.653  0.00  0.00     0.162 HD
ENDROOT
BRANCH  11  13
ATOM     13  N   UNL d   1      24.352 -16.013  -1.777  0.00  0.00    -0.262 N 
ATOM     14  C   UNL d   1      24.243 -16.999  -0.797  0.00  0.00     0.236 C 
ATOM     15  O   UNL d   1      25.128 -17.735  -0.376  0.00  0.00    -0.272 OA
ATOM     16  H   UNL d   1      23.704 -15.235  -1.749  0.00  0.00     0.190 HD
BRANCH  14  17
ATOM     17  C   UNL d   1      22.892 -17.115  -0.143  0.00  0.00     0.109 C 
BRANCH  17  18
ATOM     18  C   UNL d   1      22.657 -18.615   0.111  0.00  0.00     0.046 C 
BRANCH  18  19
ATOM     19  C   UNL d   1      21.279 -19.071  -0.176  0.00  0.00    -0.050 A 
ATOM     20  C   UNL d   1      20.432 -19.572   0.724  0.00  0.00    -0.006 A 
ATOM     21  C   UNL d   1      20.498 -19.775   2.132  0.00  0.00     0.014 A 
ATOM     22  C   UNL d   1      19.259 -19.977  -0.063  0.00  0.00     0.038 A 
ATOM     23  C   UNL d   1      19.461 -20.375   2.733  0.00  0.00     0.001 A 
ATOM     24  C   UNL d   1      18.297 -20.817   1.977  0.00  0.00     0.002 A 
ATOM     25  C   UNL d   1      18.159 -20.648   0.647  0.00  0.00     0.030 A 
ATOM     26  N   UNL d   1      19.389 -19.699  -1.305  0.00  0.00    -0.385 N 
ATOM     27  C   UNL d   1      20.688 -19.050  -1.547  0.00  0.00     0.155 A 
ATOM     28  H   UNL d   1      18.694 -19.928  -2.011  0.00  0.00     0.160 HD
ENDBRANCH  18  19
ENDBRANCH  17  18
ENDBRANCH  14  17
ENDBRANCH  11  13
BRANCH   1  29
ATOM     29  S   UNL d   1      27.059 -13.925  -0.822  0.00  0.00    -0.112 SA
BRANCH  29  30
ATOM     30  C   UNL d   1      28.719 -13.441  -1.449  0.00  0.00     0.180 C 
BRANCH  30  31
ATOM     31  C   UNL d   1      28.755 -11.930  -1.758  0.00  0.00     0.227 C 
ATOM     32  O   UNL d   1      29.505 -11.123  -1.210  0.00  0.00    -0.273 OA
ATOM     33  N   UNL d   1      27.906 -11.438  -2.711  0.00  0.00    -0.358 N 
ATOM     34  H   UNL d   1      27.933 -10.423  -2.780  0.00  0.00     0.162 HD
BRANCH  33  35
ATOM     35  C   UNL d   1      26.888 -12.140  -3.472  0.00  0.00     0.154 C 
BRANCH  35  36
ATOM     36  C   UNL d   1      25.856 -11.193  -4.103  0.00  0.00     0.139 C 
ATOM     37  C   UNL d   1      25.949 -11.113  -5.618  0.00  0.00     0.035 C 
ATOM     38  C   UNL d   1      25.527  -9.695  -5.909  0.00  0.00     0.029 C 
ATOM     39  C   UNL d   1      26.019  -8.937  -4.696  0.00  0.00     0.168 C 
ATOM     40  O   UNL d   1      26.027  -9.858  -3.597  0.00  0.00    -0.384 OA
ENDBRANCH  35  36
ENDBRANCH  33  35
ENDBRANCH  30  31
ENDBRANCH  29  30
ENDBRANCH   1  29
TORSDOF 9
ENDMDL
MODEL 3
REMARK VINA RESULT:    -8.330      4.331      9.711
REMARK INTER + INTRA:         -14.053
REMARK INTER:                 -11.014
REMARK INTRA:                  -3.039
REMARK CONF_INDEPENDENT:        2.685
REMARK UNBOUND:                -3.039
REMARK  9 active torsions:
REMARK  status: ('A' for Active; 'I' for Inactive)
REMARK    1  A    between atoms: C_2  and  C_3 
REMARK       I    between atoms: C_2  and  N_30 
REMARK    2  A    between atoms: C_3  and  S_4 
REMARK    3  A    between atoms: C_5  and  S_4 
REMARK    4  A    between atoms: N_15  and  N_16 
REMARK       I    between atoms: N_16  and  C_17 
REMARK    5  A    between atoms: C_17  and  C_19 
REMARK    6  A    between atoms: C_19  and  C_20 
REMARK    7  A    between atoms: C_20  and  C_21 
REMARK    8  A    between atoms: N_30  and  C_31 
REMARK    9  A    between atoms: C_31  and  C_32 
ROOT
ATOM      1  C   UNL d   1      26.662 -14.751  -3.026  0.00  0.00     0.274 C 
ATOM      2  N   UNL d   1      25.338 -15.322  -2.803  0.00  0.00    -0.358 N 
ATOM      3  C   UNL d   1      25.172 -16.212  -1.741  0.00  0.00     0.046 A 
ATOM      4  C   UNL d   1      23.931 -16.463  -1.150  0.00  0.00     0.030 A 
ATOM      5  C   UNL d   1      23.790 -17.443  -0.147  0.00  0.00     0.002 A 
ATOM      6  C   UNL d   1      24.878 -18.212   0.258  0.00  0.00     0.001 A 
ATOM      7  C   UNL d   1      26.118 -17.958  -0.298  0.00  0.00     0.019 A 
ATOM      8  C   UNL d   1      26.256 -16.948  -1.261  0.00  0.00     0.060 A 
ATOM      9  C   UNL d   1      27.586 -16.680  -1.805  0.00  0.00     0.277 C 
ATOM     10  O   UNL d   1      28.535 -17.222  -1.235  0.00  0.00    -0.266 OA
ATOM     11  N   UNL d   1      27.644 -15.835  -2.917  0.00  0.00    -0.221 N 
ATOM     12  H   UNL d   1      24.534 -14.783  -3.096  0.00  0.00     0.162 HD
ENDROOT
BRANCH  11  13
ATOM     13  N   UNL d   1      28.858 -15.733  -3.701  0.00  0.00    -0.262 N 
ATOM     14  C   UNL d   1      28.769 -15.490  -5.072  0.00  0.00     0.236 C 
ATOM     15  O   UNL d   1      27.752 -15.402  -5.750  0.00  0.00    -0.272 OA
ATOM     16  H   UNL d   1      29.672 -15.391  -3.205  0.00  0.00     0.190 HD
BRANCH  14  17
ATOM     17  C   UNL d   1      30.079 -15.244  -5.771  0.00  0.00     0.109 C 
BRANCH  17  18
ATOM     18  C   UNL d   1      31.116 -16.152  -5.087  0.00  0.00     0.046 C 
BRANCH  18  19
ATOM     19  C   UNL d   1      30.941 -17.595  -5.370  0.00  0.00    -0.050 A 
ATOM     20  C   UNL d   1      31.156 -18.178  -6.549  0.00  0.00    -0.006 A 
ATOM     21  C   UNL d   1      31.636 -17.711  -7.806  0.00  0.00     0.014 A 
ATOM     22  C   UNL d   1      30.735 -19.572  -6.350  0.00  0.00     0.038 A 
ATOM     23  C   UNL d   1      31.674 -18.577  -8.829  0.00  0.00     0.001 A 
ATOM     24  C   UNL d   1      31.234 -19.957  -8.673  0.00  0.00     0.002 A 
ATOM     25  C   UNL d   1      30.781 -20.472  -7.512  0.00  0.00     0.030 A 
ATOM     26  N   UNL d   1      30.348 -19.795  -5.150  0.00  0.00    -0.385 N 
ATOM     27  C   UNL d   1      30.456 -18.568  -4.345  0.00  0.00     0.155 A 
ATOM     28  H   UNL d   1      29.995 -20.692  -4.829  0.00  0.00     0.160 HD
ENDBRANCH  18  19
ENDBRANCH  17  18
ENDBRANCH  14  17
ENDBRANCH  11  13
BRANCH   1  29
ATOM     29  S   UNL d   1      26.950 -13.402  -1.823  0.00  0.00    -0.112 SA
BRANCH  29  30
ATOM     30  C   UNL d   1      26.932 -11.864  -2.830  0.00  0.00     0.180 C 
BRANCH  30  31
ATOM     31  C   UNL d   1      25.737 -11.876  -3.805  0.00  0.00     0.227 C 
ATOM     32  O   UNL d   1      24.941 -12.806  -3.923  0.00  0.00    -0.273 OA
ATOM     33  N   UNL d   1      25.529 -10.779  -4.597  0.00  0.00    -0.358 N 
ATOM     34  H   UNL d   1      24.780 -10.913  -5.272  0.00  0.00     0.162 HD
BRANCH  33  35
ATOM     35  C   UNL d   1      26.330  -9.573  -4.708  0.00  0.00     0.154 C 
BRANCH  35  36
ATOM     36  C   UNL d   1      25.574  -8.416  -5.379  0.00  0.00     0.139 C 
ATOM     37  C   UNL d   1      25.087  -7.359  -4.400  0.00  0.00     0.035 C 
ATOM     38  C   UNL d   1      23.814  -6.866  -5.040  0.00  0.00     0.029 C 
ATOM     39  C   UNL d   1      23.286  -8.096  -5.744  0.00  0.00     0.168 C 
ATOM     40  O   UNL d   1      24.420  -8.910  -6.078  0.00  0.00    -0.384 OA
ENDBRANCH  35  36
ENDBRANCH  33  35
ENDBRANCH  30  31
ENDBRANCH  29  30
ENDBRANCH   1  29
TORSDOF 9
ENDMDL
MODEL 4
REMARK VINA RESULT:    -8.214      3.202      8.431
REMARK INTER + INTRA:         -14.254
REMARK INTER:                 -10.899
REMARK INTRA:                  -3.356
REMARK CONF_INDEPENDENT:        2.685
REMARK UNBOUND:                -3.356
REMARK  9 active torsions:
REMARK  status: ('A' for Active; 'I' for Inactive)
REMARK    1  A    between atoms: C_2  and  C_3 
REMARK       I    between atoms: C_2  and  N_30 
REMARK    2  A    between atoms: C_3  and  S_4 
REMARK    3  A    between atoms: C_5  and  S_4 
REMARK    4  A    between atoms: N_15  and  N_16 
REMARK       I    between atoms: N_16  and  C_17 
REMARK    5  A    between atoms: C_17  and  C_19 
REMARK    6  A    between atoms: C_19  and  C_20 
REMARK    7  A    between atoms: C_20  and  C_21 
REMARK    8  A    between atoms: N_30  and  C_31 
REMARK    9  A    between atoms: C_31  and  C_32 
ROOT
ATOM      1  C   UNL d   1      27.970 -16.146   0.201  0.00  0.00     0.274 C 
ATOM      2  N   UNL d   1      27.028 -17.092   0.790  0.00  0.00    -0.358 N 
ATOM      3  C   UNL d   1      25.832 -17.340   0.116  0.00  0.00     0.046 A 
ATOM      4  C   UNL d   1      25.084 -18.506   0.306  0.00  0.00     0.030 A 
ATOM      5  C   UNL d   1      23.832 -18.673  -0.319  0.00  0.00     0.002 A 
ATOM      6  C   UNL d   1      23.291 -17.666  -1.115  0.00  0.00     0.001 A 
ATOM      7  C   UNL d   1      24.029 -16.519  -1.333  0.00  0.00     0.019 A 
ATOM      8  C   UNL d   1      25.295 -16.383  -0.744  0.00  0.00     0.060 A 
ATOM      9  C   UNL d   1      26.068 -15.173  -1.023  0.00  0.00     0.277 C 
ATOM     10  O   UNL d   1      25.642 -14.440  -1.918  0.00  0.00    -0.266 OA
ATOM     11  N   UNL d   1      27.210 -14.973  -0.244  0.00  0.00    -0.221 N 
ATOM     12  H   UNL d   1      27.400 -17.827   1.377  0.00  0.00     0.162 HD
ENDROOT
BRANCH  11  13
ATOM     13  N   UNL d   1      27.878 -13.687  -0.235  0.00  0.00    -0.262 N 
ATOM     14  C   UNL d   1      27.383 -12.664   0.573  0.00  0.00     0.236 C 
ATOM     15  O   UNL d   1      26.375 -12.685   1.271  0.00  0.00    -0.272 OA
ATOM     16  H   UNL d   1      28.873 -13.709  -0.424  0.00  0.00     0.190 HD
BRANCH  14  17
ATOM     17  C   UNL d   1      28.231 -11.422   0.637  0.00  0.00     0.109 C 
BRANCH  17  18
ATOM     18  C   UNL d   1      28.467 -11.131   2.130  0.00  0.00     0.046 C 
BRANCH  18  19
ATOM     19  C   UNL d   1      29.246 -12.173   2.836  0.00  0.00    -0.050 A 
ATOM     20  C   UNL d   1      28.730 -13.111   3.632  0.00  0.00    -0.006 A 
ATOM     21  C   UNL d   1      27.403 -13.462   4.007  0.00  0.00     0.014 A 
ATOM     22  C   UNL d   1      29.901 -13.815   4.174  0.00  0.00     0.038 A 
ATOM     23  C   UNL d   1      27.239 -14.450   4.899  0.00  0.00     0.001 A 
ATOM     24  C   UNL d   1      28.380 -15.146   5.480  0.00  0.00     0.002 A 
ATOM     25  C   UNL d   1      29.662 -14.877   5.163  0.00  0.00     0.030 A 
ATOM     26  N   UNL d   1      31.001 -13.359   3.705  0.00  0.00    -0.385 N 
ATOM     27  C   UNL d   1      30.735 -12.265   2.757  0.00  0.00     0.155 A 
ATOM     28  H   UNL d   1      31.918 -13.700   3.982  0.00  0.00     0.160 HD
ENDBRANCH  18  19
ENDBRANCH  17  18
ENDBRANCH  14  17
ENDBRANCH  11  13
BRANCH   1  29
ATOM     29  S   UNL d   1      28.882 -16.965  -1.158  0.00  0.00    -0.112 SA
BRANCH  29  30
ATOM     30  C   UNL d   1      28.480 -15.975  -2.655  0.00  0.00     0.180 C 
BRANCH  30  31
ATOM     31  C   UNL d   1      29.470 -14.802  -2.804  0.00  0.00     0.227 C 
ATOM     32  O   UNL d   1      29.974 -14.189  -1.864  0.00  0.00    -0.273 OA
ATOM     33  N   UNL d   1      29.830 -14.407  -4.064  0.00  0.00    -0.358 N 
ATOM     34  H   UNL d   1      30.409 -13.570  -4.067  0.00  0.00     0.162 HD
BRANCH  33  35
ATOM     35  C   UNL d   1      29.358 -14.907  -5.343  0.00  0.00     0.154 C 
BRANCH  35  36
ATOM     36  C   UNL d   1      27.925 -14.459  -5.667  0.00  0.00     0.139 C 
ATOM     37  C   UNL d   1      27.395 -13.389  -4.725  0.00  0.00     0.035 C 
ATOM     38  C   UNL d   1      25.919 -13.690  -4.668  0.00  0.00     0.029 C 
ATOM     39  C   UNL d   1      25.870 -15.194  -4.827  0.00  0.00     0.168 C 
ATOM     40  O   UNL d   1      27.023 -15.575  -5.592  0.00  0.00    -0.384 OA
ENDBRANCH  35  36
ENDBRANCH  33  35
ENDBRANCH  30  31
ENDBRANCH  29  30
ENDBRANCH   1  29
TORSDOF 9
ENDMDL
MODEL 5
REMARK VINA RESULT:    -8.141      2.629      7.814
REMARK INTER + INTRA:         -14.310
REMARK INTER:                 -10.826
REMARK INTRA:                  -3.484
REMARK CONF_INDEPENDENT:        2.685
REMARK UNBOUND:                -3.484
REMARK  9 active torsions:
REMARK  status: ('A' for Active; 'I' for Inactive)
REMARK    1  A    between atoms: C_2  and  C_3 
REMARK       I    between atoms: C_2  and  N_30 
REMARK    2  A    between atoms: C_3  and  S_4 
REMARK    3  A    between atoms: C_5  and  S_4 
REMARK    4  A    between atoms: N_15  and  N_16 
REMARK       I    between atoms: N_16  and  C_17 
REMARK    5  A    between atoms: C_17  and  C_19 
REMARK    6  A    between atoms: C_19  and  C_20 
REMARK    7  A    between atoms: C_20  and  C_21 
REMARK    8  A    between atoms: N_30  and  C_31 
REMARK    9  A    between atoms: C_31  and  C_32 
ROOT
ATOM      1  C   UNL d   1      26.271 -14.818  -2.326  0.00  0.00     0.274 C 
ATOM      2  N   UNL d   1      24.887 -15.280  -2.340  0.00  0.00    -0.358 N 
ATOM      3  C   UNL d   1      24.511 -16.270  -1.431  0.00  0.00     0.046 A 
ATOM      4  C   UNL d   1      23.186 -16.467  -1.031  0.00  0.00     0.030 A 
ATOM      5  C   UNL d   1      22.836 -17.541  -0.189  0.00  0.00     0.002 A 
ATOM      6  C   UNL d   1      23.795 -18.456   0.238  0.00  0.00     0.001 A 
ATOM      7  C   UNL d   1      25.113 -18.261  -0.128  0.00  0.00     0.019 A 
ATOM      8  C   UNL d   1      25.458 -17.161  -0.927  0.00  0.00     0.060 A 
ATOM      9  C   UNL d   1      26.866 -16.961  -1.269  0.00  0.00     0.277 C 
ATOM     10  O   UNL d   1      27.685 -17.658  -0.665  0.00  0.00    -0.266 OA
ATOM     11  N   UNL d   1      27.138 -15.999  -2.244  0.00  0.00    -0.221 N 
ATOM     12  H   UNL d   1      24.175 -14.633  -2.653  0.00  0.00     0.162 HD
ENDROOT
BRANCH  11  13
ATOM     13  N   UNL d   1      28.448 -15.923  -2.858  0.00  0.00    -0.262 N 
ATOM     14  C   UNL d   1      28.550 -15.682  -4.228  0.00  0.00     0.236 C 
ATOM     15  O   UNL d   1      27.635 -15.575  -5.037  0.00  0.00    -0.272 OA
ATOM     16  H   UNL d   1      29.195 -15.596  -2.257  0.00  0.00     0.190 HD
BRANCH  14  17
ATOM     17  C   UNL d   1      29.946 -15.463  -4.745  0.00  0.00     0.109 C 
BRANCH  17  18
ATOM     18  C   UNL d   1      30.869 -16.361  -3.902  0.00  0.00     0.046 C 
BRANCH  18  19
ATOM     19  C   UNL d   1      30.910 -17.774  -4.343  0.00  0.00    -0.050 A 
ATOM     20  C   UNL d   1      31.005 -18.180  -5.609  0.00  0.00    -0.006 A 
ATOM     21  C   UNL d   1      31.149 -17.503  -6.853  0.00  0.00     0.014 A 
ATOM     22  C   UNL d   1      30.890 -19.644  -5.533  0.00  0.00     0.038 A 
ATOM     23  C   UNL d   1      31.154 -18.236  -7.975  0.00  0.00     0.001 A 
ATOM     24  C   UNL d   1      31.010 -19.685  -7.937  0.00  0.00     0.002 A 
ATOM     25  C   UNL d   1      30.882 -20.395  -6.797  0.00  0.00     0.030 A 
ATOM     26  N   UNL d   1      30.780 -20.059  -4.328  0.00  0.00    -0.385 N 
ATOM     27  C   UNL d   1      30.810 -18.922  -3.393  0.00  0.00     0.155 A 
ATOM     28  H   UNL d   1      30.662 -21.037  -4.076  0.00  0.00     0.160 HD
ENDBRANCH  18  19
ENDBRANCH  17  18
ENDBRANCH  14  17
ENDBRANCH  11  13
BRANCH   1  29
ATOM     29  S   UNL d   1      26.509 -13.658  -0.931  0.00  0.00    -0.112 SA
BRANCH  29  30
ATOM     30  C   UNL d   1      28.333 -13.515  -0.747  0.00  0.00     0.180 C 
BRANCH  30  31
ATOM     31  C   UNL d   1      28.860 -14.592   0.223  0.00  0.00     0.227 C 
ATOM     32  O   UNL d   1      29.527 -15.569  -0.114  0.00  0.00    -0.273 OA
ATOM     33  N   UNL d   1      28.582 -14.463   1.556  0.00  0.00    -0.358 N 
ATOM     34  H   UNL d   1      28.886 -15.264   2.105  0.00  0.00     0.162 HD
BRANCH  33  35
ATOM     35  C   UNL d   1      27.782 -13.452   2.225  0.00  0.00     0.154 C 
BRANCH  35  36
ATOM     36  C   UNL d   1      27.417 -13.838   3.666  0.00  0.00     0.139 C 
ATOM     37  C   UNL d   1      28.042 -12.932   4.715  0.00  0.00     0.035 C 
ATOM     38  C   UNL d   1      28.257 -13.862   5.882  0.00  0.00     0.029 C 
ATOM     39  C   UNL d   1      28.533 -15.191   5.213  0.00  0.00     0.168 C 
ATOM     40  O   UNL d   1      27.851 -15.178   3.951  0.00  0.00    -0.384 OA
ENDBRANCH  35  36
ENDBRANCH  33  35
ENDBRANCH  30  31
ENDBRANCH  29  30
ENDBRANCH   1  29
TORSDOF 9
ENDMDL
MODEL 6
REMARK VINA RESULT:    -7.856      3.639      9.211
REMARK INTER + INTRA:         -14.563
REMARK INTER:                 -10.540
REMARK INTRA:                  -4.023
REMARK CONF_INDEPENDENT:        2.685
REMARK UNBOUND:                -4.023
REMARK  9 active torsions:
REMARK  status: ('A' for Active; 'I' for Inactive)
REMARK    1  A    between atoms: C_2  and  C_3 
REMARK       I    between atoms: C_2  and  N_30 
REMARK    2  A    between atoms: C_3  and  S_4 
REMARK    3  A    between atoms: C_5  and  S_4 
REMARK    4  A    between atoms: N_15  and  N_16 
REMARK       I    between atoms: N_16  and  C_17 
REMARK    5  A    between atoms: C_17  and  C_19 
REMARK    6  A    between atoms: C_19  and  C_20 
REMARK    7  A    between atoms: C_20  and  C_21 
REMARK    8  A    between atoms: N_30  and  C_31 
REMARK    9  A    between atoms: C_31  and  C_32 
ROOT
ATOM      1  C   UNL d   1      27.029 -16.100  -1.231  0.00  0.00     0.274 C 
ATOM      2  N   UNL d   1      25.693 -16.204  -1.811  0.00  0.00    -0.358 N 
ATOM      3  C   UNL d   1      24.691 -16.817  -1.057  0.00  0.00     0.046 A 
ATOM      4  C   UNL d   1      23.330 -16.583  -1.275  0.00  0.00     0.030 A 
ATOM      5  C   UNL d   1      22.349 -17.297  -0.559  0.00  0.00     0.002 A 
ATOM      6  C   UNL d   1      22.708 -18.279   0.360  0.00  0.00     0.001 A 
ATOM      7  C   UNL d   1      24.050 -18.504   0.606  0.00  0.00     0.019 A 
ATOM      8  C   UNL d   1      25.018 -17.754  -0.078  0.00  0.00     0.060 A 
ATOM      9  C   UNL d   1      26.428 -17.990   0.230  0.00  0.00     0.277 C 
ATOM     10  O   UNL d   1      26.668 -18.690   1.215  0.00  0.00    -0.266 OA
ATOM     11  N   UNL d   1      27.358 -17.396  -0.627  0.00  0.00    -0.221 N 
ATOM     12  H   UNL d   1      25.415 -15.505  -2.486  0.00  0.00     0.162 HD
ENDROOT
BRANCH  11  13
ATOM     13  N   UNL d   1      28.751 -17.793  -0.589  0.00  0.00    -0.262 N 
ATOM     14  C   UNL d   1      29.584 -17.470  -1.660  0.00  0.00     0.236 C 
ATOM     15  O   UNL d   1      29.272 -16.917  -2.709  0.00  0.00    -0.272 OA
ATOM     16  H   UNL d   1      29.162 -17.862   0.334  0.00  0.00     0.190 HD
BRANCH  14  17
ATOM     17  C   UNL d   1      31.043 -17.783  -1.462  0.00  0.00     0.109 C 
BRANCH  17  18
ATOM     18  C   UNL d   1      31.713 -17.631  -2.840  0.00  0.00     0.046 C 
BRANCH  18  19
ATOM     19  C   UNL d   1      31.412 -18.729  -3.785  0.00  0.00    -0.050 A 
ATOM     20  C   UNL d   1      31.305 -18.596  -5.108  0.00  0.00    -0.006 A 
ATOM     21  C   UNL d   1      31.477 -17.504  -6.005  0.00  0.00     0.014 A 
ATOM     22  C   UNL d   1      30.888 -19.925  -5.576  0.00  0.00     0.038 A 
ATOM     23  C   UNL d   1      31.225 -17.709  -7.306  0.00  0.00     0.001 A 
ATOM     24  C   UNL d   1      30.780 -19.006  -7.798  0.00  0.00     0.002 A 
ATOM     25  C   UNL d   1      30.607 -20.086  -7.011  0.00  0.00     0.030 A 
ATOM     26  N   UNL d   1      30.801 -20.771  -4.620  0.00  0.00    -0.385 N 
ATOM     27  C   UNL d   1      31.156 -20.132  -3.343  0.00  0.00     0.155 A 
ATOM     28  H   UNL d   1      30.501 -21.735  -4.744  0.00  0.00     0.160 HD
ENDBRANCH  18  19
ENDBRANCH  17  18
ENDBRANCH  14  17
ENDBRANCH  11  13
BRANCH   1  29
ATOM     29  S   UNL d   1      27.061 -14.722  -0.028  0.00  0.00    -0.112 SA
BRANCH  29  30
ATOM     30  C   UNL d   1      27.118 -13.201  -1.059  0.00  0.00     0.180 C 
BRANCH  30  31
ATOM     31  C   UNL d   1      26.494 -13.469  -2.444  0.00  0.00     0.227 C 
ATOM     32  O   UNL d   1      25.297 -13.355  -2.705  0.00  0.00    -0.273 OA
ATOM     33  N   UNL d   1      27.317 -13.854  -3.467  0.00  0.00    -0.358 N 
ATOM     34  H   UNL d   1      26.809 -14.099  -4.314  0.00  0.00     0.162 HD
BRANCH  33  35
ATOM     35  C   UNL d   1      28.745 -14.117  -3.437  0.00  0.00     0.154 C 
BRANCH  35  36
ATOM     36  C   UNL d   1      29.238 -14.872  -4.680  0.00  0.00     0.139 C 
ATOM     37  C   UNL d   1      30.251 -14.092  -5.504  0.00  0.00     0.035 C 
ATOM     38  C   UNL d   1      29.972 -14.555  -6.911  0.00  0.00     0.029 C 
ATOM     39  C   UNL d   1      28.483 -14.825  -6.893  0.00  0.00     0.168 C 
ATOM     40  O   UNL d   1      28.135 -15.182  -5.548  0.00  0.00    -0.384 OA
ENDBRANCH  35  36
ENDBRANCH  33  35
ENDBRANCH  30  31
ENDBRANCH  29  30
ENDBRANCH   1  29
TORSDOF 9
ENDMDL
MODEL 7
REMARK VINA RESULT:    -7.594      3.624      5.234
REMARK INTER + INTRA:         -15.188
REMARK INTER:                 -10.278
REMARK INTRA:                  -4.910
REMARK CONF_INDEPENDENT:        2.685
REMARK UNBOUND:                -4.910
REMARK  9 active torsions:
REMARK  status: ('A' for Active; 'I' for Inactive)
REMARK    1  A    between atoms: C_2  and  C_3 
REMARK       I    between atoms: C_2  and  N_30 
REMARK    2  A    between atoms: C_3  and  S_4 
REMARK    3  A    between atoms: C_5  and  S_4 
REMARK    4  A    between atoms: N_15  and  N_16 
REMARK       I    between atoms: N_16  and  C_17 
REMARK    5  A    between atoms: C_17  and  C_19 
REMARK    6  A    between atoms: C_19  and  C_20 
REMARK    7  A    between atoms: C_20  and  C_21 
REMARK    8  A    between atoms: N_30  and  C_31 
REMARK    9  A    between atoms: C_31  and  C_32 
ROOT
ATOM      1  C   UNL d   1      29.310 -16.109  -3.491  0.00  0.00     0.274 C 
ATOM      2  N   UNL d   1      29.680 -17.500  -3.735  0.00  0.00    -0.358 N 
ATOM      3  C   UNL d   1      30.366 -17.804  -4.912  0.00  0.00     0.046 A 
ATOM      4  C   UNL d   1      31.154 -18.949  -5.055  0.00  0.00     0.030 A 
ATOM      5  C   UNL d   1      31.748 -19.270  -6.292  0.00  0.00     0.002 A 
ATOM      6  C   UNL d   1      31.536 -18.474  -7.415  0.00  0.00     0.001 A 
ATOM      7  C   UNL d   1      30.780 -17.324  -7.284  0.00  0.00     0.019 A 
ATOM      8  C   UNL d   1      30.233 -16.989  -6.037  0.00  0.00     0.060 A 
ATOM      9  C   UNL d   1      29.467 -15.748  -5.921  0.00  0.00     0.277 C 
ATOM     10  O   UNL d   1      29.522 -14.975  -6.880  0.00  0.00    -0.266 OA
ATOM     11  N   UNL d   1      28.753 -15.567  -4.735  0.00  0.00    -0.221 N 
ATOM     12  H   UNL d   1      29.832 -18.097  -2.934  0.00  0.00     0.162 HD
ENDROOT
BRANCH  11  13
ATOM     13  N   UNL d   1      27.747 -14.529  -4.633  0.00  0.00    -0.262 N 
ATOM     14  C   UNL d   1      26.403 -14.858  -4.811  0.00  0.00     0.236 C 
ATOM     15  O   UNL d   1      25.936 -15.950  -5.114  0.00  0.00    -0.272 OA
ATOM     16  H   UNL d   1      27.974 -13.759  -4.016  0.00  0.00     0.190 HD
BRANCH  14  17
ATOM     17  C   UNL d   1      25.424 -13.751  -4.531  0.00  0.00     0.109 C 
BRANCH  17  18
ATOM     18  C   UNL d   1      24.775 -14.075  -3.173  0.00  0.00     0.046 C 
BRANCH  18  19
ATOM     19  C   UNL d   1      25.686 -14.728  -2.206  0.00  0.00    -0.050 A 
ATOM     20  C   UNL d   1      25.452 -15.889  -1.594  0.00  0.00    -0.006 A 
ATOM     21  C   UNL d   1      24.405 -16.850  -1.673  0.00  0.00     0.014 A 
ATOM     22  C   UNL d   1      26.578 -16.044  -0.662  0.00  0.00     0.038 A 
ATOM     23  C   UNL d   1      24.455 -17.908  -0.850  0.00  0.00     0.001 A 
ATOM     24  C   UNL d   1      25.540 -18.075   0.107  0.00  0.00     0.002 A 
ATOM     25  C   UNL d   1      26.570 -17.214   0.230  0.00  0.00     0.030 A 
ATOM     26  N   UNL d   1      27.418 -15.083  -0.751  0.00  0.00    -0.385 N 
ATOM     27  C   UNL d   1      26.981 -14.120  -1.776  0.00  0.00     0.155 A 
ATOM     28  H   UNL d   1      28.246 -15.001  -0.168  0.00  0.00     0.160 HD
ENDBRANCH  18  19
ENDBRANCH  17  18
ENDBRANCH  14  17
ENDBRANCH  11  13
BRANCH   1  29
ATOM     29  S   UNL d   1      30.776 -15.186  -2.901  0.00  0.00    -0.112 SA
BRANCH  29  30
ATOM     30  C   UNL d   1      31.397 -16.158  -1.469  0.00  0.00     0.180 C 
BRANCH  30  31
ATOM     31  C   UNL d   1      30.220 -16.634  -0.593  0.00  0.00     0.227 C 
ATOM     32  O   UNL d   1      29.453 -17.549  -0.890  0.00  0.00    -0.273 OA
ATOM     33  N   UNL d   1      30.005 -16.009   0.605  0.00  0.00    -0.358 N 
ATOM     34  H   UNL d   1      29.155 -16.322   1.069  0.00  0.00     0.162 HD
BRANCH  33  35
ATOM     35  C   UNL d   1      30.709 -14.877   1.181  0.00  0.00     0.154 C 
BRANCH  35  36
ATOM     36  C   UNL d   1      29.801 -13.982   2.036  0.00  0.00     0.139 C 
ATOM     37  C   UNL d   1      30.084 -14.075   3.527  0.00  0.00     0.035 C 
ATOM     38  C   UNL d   1      28.727 -13.851   4.145  0.00  0.00     0.029 C 
ATOM     39  C   UNL d   1      27.784 -14.450   3.124  0.00  0.00     0.168 C 
ATOM     40  O   UNL d   1      28.422 -14.338   1.844  0.00  0.00    -0.384 OA
ENDBRANCH  35  36
ENDBRANCH  33  35
ENDBRANCH  30  31
ENDBRANCH  29  30
ENDBRANCH   1  29
TORSDOF 9
ENDMDL
