MODEL 1
REMARK VINA RESULT:    -9.171      0.000      0.000
REMARK INTER + INTRA:         -14.500
REMARK INTER:                 -13.347
REMARK INTRA:                  -1.153
REMARK CONF_INDEPENDENT:        4.176
REMARK UNBOUND:                -1.153
REMARK  14 active torsions:
REMARK  status: ('A' for Active; 'I' for Inactive)
REMARK    1  A    between atoms: C_2  and  C_3 
REMARK    2  A    between atoms: C_3  and  C_4 
REMARK    3  A    between atoms: C_4  and  C_5 
REMARK    4  A    between atoms: C_5  and  C_6 
REMARK    5  A    between atoms: C_6  and  O_7 
REMARK    6  A    between atoms: O_7  and  C_8 
REMARK    7  A    between atoms: C_13  and  C_14 
REMARK       I    between atoms: C_14  and  N_16 
REMARK    8  A    between atoms: N_16  and  C_17 
REMARK    9  A    between atoms: C_17  and  N_19 
REMARK   10  A    between atoms: C_25  and  C_26 
REMARK   11  A    between atoms: C_26  and  C_27 
REMARK   12  A    between atoms: C_27  and  O_29 
REMARK   13  A    between atoms: O_29  and  C_30 
REMARK   14  A    between atoms: C_30  and  C_32 
ROOT
ATOM      1  C   UNL d   1      24.522 -15.598  -1.653  0.00  0.00     0.177 C 
ATOM      2  S   UNL d   1      22.914 -15.947  -1.261  0.00  0.00    -0.041 SA
ENDROOT
BRANCH   1   3
ATOM      3  N   UNL d   1      24.875 -14.697  -2.686  0.00  0.00    -0.299 N 
ATOM      4  C   UNL d   1      25.522 -15.000  -3.898  0.00  0.00     0.260 C 
ATOM      5  O   UNL d   1      25.527 -16.122  -4.398  0.00  0.00    -0.267 OA
ATOM      6  H   UNL d   1      24.868 -13.711  -2.527  0.00  0.00     0.171 HD
BRANCH   4   7
ATOM      7  C   UNL d   1      26.223 -13.918  -4.689  0.00  0.00     0.065 A 
ATOM      8  C   UNL d   1      25.674 -12.620  -4.516  0.00  0.00     0.020 A 
ATOM      9  C   UNL d   1      26.215 -11.482  -5.121  0.00  0.00     0.001 A 
ATOM     10  C   UNL d   1      27.339 -11.611  -5.919  0.00  0.00     0.003 A 
ATOM     11  C   UNL d   1      27.861 -12.885  -6.168  0.00  0.00     0.038 A 
ATOM     12  C   UNL d   1      27.312 -14.043  -5.568  0.00  0.00     0.084 A 
BRANCH  12  13
ATOM     13  O   UNL d   1      28.021 -15.195  -5.795  0.00  0.00    -0.350 OA
BRANCH  13  14
ATOM     14  C   UNL d   1      29.431 -15.036  -5.983  0.00  0.00     0.175 C 
BRANCH  14  15
ATOM     15  C   UNL d   1      30.047 -16.430  -6.248  0.00  0.00     0.027 C 
BRANCH  15  16
ATOM     16  C   UNL d   1      30.022 -17.246  -4.952  0.00  0.00     0.002 C 
BRANCH  16  17
ATOM     17  C   UNL d   1      31.013 -18.433  -4.885  0.00  0.00    -0.000 C 
BRANCH  17  18
ATOM     18  C   UNL d   1      30.613 -19.833  -5.488  0.00  0.00    -0.005 C 
ATOM     19  C   UNL d   1      30.391 -19.790  -7.005  0.00  0.00     0.005 C 
ENDBRANCH  17  18
ENDBRANCH  16  17
ENDBRANCH  15  16
ENDBRANCH  14  15
ENDBRANCH  13  14
ENDBRANCH  12  13
ENDBRANCH   4   7
ENDBRANCH   1   3
BRANCH   1  20
ATOM     20  N   UNL d   1      25.573 -16.321  -1.029  0.00  0.00    -0.343 N 
ATOM     21  C   UNL d   1      26.970 -15.747  -1.187  0.00  0.00     0.146 C 
ATOM     22  C   UNL d   1      27.748 -15.902   0.068  0.00  0.00     0.142 C 
ATOM     23  N   UNL d   1      27.848 -17.346   0.237  0.00  0.00    -0.358 N 
ATOM     24  C   UNL d   1      26.817 -18.230   0.168  0.00  0.00     0.241 C 
ATOM     25  H   UNL d   1      28.629 -17.763   0.719  0.00  0.00     0.162 HD
ATOM     26  O   UNL d   1      27.039 -19.326   0.670  0.00  0.00    -0.271 OA
ATOM     27  C   UNL d   1      25.552 -17.827  -0.638  0.00  0.00     0.188 C 
BRANCH  27  28
ATOM     28  C   UNL d   1      24.224 -18.287  -0.017  0.00  0.00     0.146 C 
BRANCH  28  29
ATOM     29  C   UNL d   1      23.181 -19.032  -0.821  0.00  0.00     0.261 C 
ATOM     30  O   UNL d   1      23.052 -18.939  -2.046  0.00  0.00    -0.265 OA
BRANCH  29  31
ATOM     31  O   UNL d   1      22.297 -19.751  -0.049  0.00  0.00    -0.316 OA
BRANCH  31  32
ATOM     32  C   UNL d   1      20.986 -19.123   0.036  0.00  0.00     0.127 C 
ATOM     33  C   UNL d   1      20.203 -19.324  -1.267  0.00  0.00     0.040 C 
BRANCH  32  34
ATOM     34  C   UNL d   1      20.177 -19.666   1.229  0.00  0.00     0.027 C 
ATOM     35  C   UNL d   1      19.147 -20.707   0.788  0.00  0.00     0.007 C 
ENDBRANCH  32  34
ENDBRANCH  31  32
ENDBRANCH  29  31
ENDBRANCH  28  29
ENDBRANCH  27  28
ENDBRANCH   1  20
TORSDOF 14
ENDMDL
MODEL 2
REMARK VINA RESULT:    -8.558      1.412      2.143
REMARK INTER + INTRA:         -14.291
REMARK INTER:                 -12.734
REMARK INTRA:                  -1.557
REMARK CONF_INDEPENDENT:        4.176
REMARK UNBOUND:                -1.557
REMARK  14 active torsions:
REMARK  status: ('A' for Active; 'I' for Inactive)
REMARK    1  A    between atoms: C_2  and  C_3 
REMARK    2  A    between atoms: C_3  and  C_4 
REMARK    3  A    between atoms: C_4  and  C_5 
REMARK    4  A    between atoms: C_5  and  C_6 
REMARK    5  A    between atoms: C_6  and  O_7 
REMARK    6  A    between atoms: O_7  and  C_8 
REMARK    7  A    between atoms: C_13  and  C_14 
REMARK       I    between atoms: C_14  and  N_16 
REMARK    8  A    between atoms: N_16  and  C_17 
REMARK    9  A    between atoms: C_17  and  N_19 
REMARK   10  A    between atoms: C_25  and  C_26 
REMARK   11  A    between atoms: C_26  and  C_27 
REMARK   12  A    between atoms: C_27  and  O_29 
REMARK   13  A    between atoms: O_29  and  C_30 
REMARK   14  A    between atoms: C_30  and  C_32 
ROOT
ATOM      1  C   UNL d   1      25.770 -14.923  -2.760  0.00  0.00     0.177 C 
ATOM      2  S   UNL d   1      24.147 -14.448  -2.776  0.00  0.00    -0.041 SA
ENDROOT
BRANCH   1   3
ATOM      3  N   UNL d   1      26.700 -14.492  -3.736  0.00  0.00    -0.299 N 
ATOM      4  C   UNL d   1      26.851 -14.982  -5.046  0.00  0.00     0.260 C 
ATOM      5  O   UNL d   1      25.964 -15.578  -5.651  0.00  0.00    -0.267 OA
ATOM      6  H   UNL d   1      27.479 -13.921  -3.481  0.00  0.00     0.171 HD
BRANCH   4   7
ATOM      7  C   UNL d   1      28.137 -14.754  -5.811  0.00  0.00     0.065 A 
ATOM      8  C   UNL d   1      28.190 -13.518  -6.507  0.00  0.00     0.020 A 
ATOM      9  C   UNL d   1      29.313 -13.102  -7.228  0.00  0.00     0.001 A 
ATOM     10  C   UNL d   1      30.431 -13.917  -7.265  0.00  0.00     0.003 A 
ATOM     11  C   UNL d   1      30.386 -15.173  -6.649  0.00  0.00     0.038 A 
ATOM     12  C   UNL d   1      29.248 -15.605  -5.928  0.00  0.00     0.084 A 
BRANCH  12  13
ATOM     13  O   UNL d   1      29.411 -16.795  -5.264  0.00  0.00    -0.350 OA
BRANCH  13  14
ATOM     14  C   UNL d   1      30.311 -16.772  -4.151  0.00  0.00     0.175 C 
BRANCH  14  15
ATOM     15  C   UNL d   1      31.154 -18.069  -4.181  0.00  0.00     0.027 C 
BRANCH  15  16
ATOM     16  C   UNL d   1      30.408 -19.136  -4.988  0.00  0.00     0.002 C 
BRANCH  16  17
ATOM     17  C   UNL d   1      31.159 -19.694  -6.221  0.00  0.00    -0.000 C 
BRANCH  17  18
ATOM     18  C   UNL d   1      31.079 -18.941  -7.604  0.00  0.00    -0.005 C 
ATOM     19  C   UNL d   1      31.143 -19.891  -8.807  0.00  0.00     0.005 C 
ENDBRANCH  17  18
ENDBRANCH  16  17
ENDBRANCH  15  16
ENDBRANCH  14  15
ENDBRANCH  13  14
ENDBRANCH  12  13
ENDBRANCH   4   7
ENDBRANCH   1   3
BRANCH   1  20
ATOM     20  N   UNL d   1      26.212 -15.895  -1.823  0.00  0.00    -0.343 N 
ATOM     21  C   UNL d   1      27.703 -15.931  -1.543  0.00  0.00     0.146 C 
ATOM     22  C   UNL d   1      27.965 -16.188  -0.105  0.00  0.00     0.142 C 
ATOM     23  N   UNL d   1      27.412 -17.517   0.116  0.00  0.00    -0.358 N 
ATOM     24  C   UNL d   1      26.173 -17.938  -0.258  0.00  0.00     0.241 C 
ATOM     25  H   UNL d   1      27.784 -18.127   0.828  0.00  0.00     0.162 HD
ATOM     26  O   UNL d   1      25.776 -18.949   0.311  0.00  0.00    -0.271 OA
ATOM     27  C   UNL d   1      25.466 -17.202  -1.428  0.00  0.00     0.188 C 
BRANCH  27  28
ATOM     28  C   UNL d   1      23.951 -17.021  -1.248  0.00  0.00     0.146 C 
BRANCH  28  29
ATOM     29  C   UNL d   1      23.014 -18.203  -1.117  0.00  0.00     0.261 C 
ATOM     30  O   UNL d   1      22.955 -19.135  -1.926  0.00  0.00    -0.265 OA
BRANCH  29  31
ATOM     31  O   UNL d   1      22.136 -18.099  -0.063  0.00  0.00    -0.316 OA
BRANCH  31  32
ATOM     32  C   UNL d   1      21.273 -19.265   0.068  0.00  0.00     0.127 C 
ATOM     33  C   UNL d   1      20.654 -19.325   1.470  0.00  0.00     0.040 C 
BRANCH  32  34
ATOM     34  C   UNL d   1      20.165 -19.268  -1.000  0.00  0.00     0.027 C 
ATOM     35  C   UNL d   1      18.892 -19.949  -0.494  0.00  0.00     0.007 C 
ENDBRANCH  32  34
ENDBRANCH  31  32
ENDBRANCH  29  31
ENDBRANCH  28  29
ENDBRANCH  27  28
ENDBRANCH   1  20
TORSDOF 14
ENDMDL
MODEL 3
REMARK VINA RESULT:    -7.985      2.324      8.712
REMARK INTER + INTRA:         -14.402
REMARK INTER:                 -12.161
REMARK INTRA:                  -2.241
REMARK CONF_INDEPENDENT:        4.176
REMARK UNBOUND:                -2.241
REMARK  14 active torsions:
REMARK  status: ('A' for Active; 'I' for Inactive)
REMARK    1  A    between atoms: C_2  and  C_3 
REMARK    2  A    between atoms: C_3  and  C_4 
REMARK    3  A    between atoms: C_4  and  C_5 
REMARK    4  A    between atoms: C_5  and  C_6 
REMARK    5  A    between atoms: C_6  and  O_7 
REMARK    6  A    between atoms: O_7  and  C_8 
REMARK    7  A    between atoms: C_13  and  C_14 
REMARK       I    between atoms: C_14  and  N_16 
REMARK    8  A    between atoms: N_16  and  C_17 
REMARK    9  A    between atoms: C_17  and  N_19 
REMARK   10  A    between atoms: C_25  and  C_26 
REMARK   11  A    between atoms: C_26  and  C_27 
REMARK   12  A    between atoms: C_27  and  O_29 
REMARK   13  A    between atoms: O_29  and  C_30 
REMARK   14  A    between atoms: C_30  and  C_32 
ROOT
ATOM      1  C   UNL d   1      27.416 -13.735  -3.738  0.00  0.00     0.177 C 
ATOM      2  S   UNL d   1      27.066 -12.198  -3.126  0.00  0.00    -0.041 SA
ENDROOT
BRANCH   1   3
ATOM      3  N   UNL d   1      27.231 -14.916  -2.982  0.00  0.00    -0.299 N 
ATOM      4  C   UNL d   1      26.010 -15.498  -2.593  0.00  0.00     0.260 C 
ATOM      5  O   UNL d   1      24.947 -15.284  -3.168  0.00  0.00    -0.267 OA
ATOM      6  H   UNL d   1      27.992 -15.325  -2.480  0.00  0.00     0.171 HD
BRANCH   4   7
ATOM      7  C   UNL d   1      25.956 -16.479  -1.442  0.00  0.00     0.065 A 
ATOM      8  C   UNL d   1      27.224 -16.804  -0.892  0.00  0.00     0.020 A 
ATOM      9  C   UNL d   1      27.377 -17.651   0.209  0.00  0.00     0.001 A 
ATOM     10  C   UNL d   1      26.252 -18.197   0.803  0.00  0.00     0.003 A 
ATOM     11  C   UNL d   1      24.994 -17.955   0.241  0.00  0.00     0.038 A 
ATOM     12  C   UNL d   1      24.832 -17.108  -0.881  0.00  0.00     0.084 A 
BRANCH  12  13
ATOM     13  O   UNL d   1      23.528 -16.857  -1.224  0.00  0.00    -0.350 OA
BRANCH  13  14
ATOM     14  C   UNL d   1      22.544 -17.203  -0.243  0.00  0.00     0.175 C 
BRANCH  14  15
ATOM     15  C   UNL d   1      21.511 -18.147  -0.902  0.00  0.00     0.027 C 
BRANCH  15  16
ATOM     16  C   UNL d   1      21.288 -19.361   0.003  0.00  0.00     0.002 C 
BRANCH  16  17
ATOM     17  C   UNL d   1      19.812 -19.703   0.319  0.00  0.00    -0.000 C 
BRANCH  17  18
ATOM     18  C   UNL d   1      19.388 -21.195   0.604  0.00  0.00    -0.005 C 
ATOM     19  C   UNL d   1      18.030 -21.307   1.309  0.00  0.00     0.005 C 
ENDBRANCH  17  18
ENDBRANCH  16  17
ENDBRANCH  15  16
ENDBRANCH  14  15
ENDBRANCH  13  14
ENDBRANCH  12  13
ENDBRANCH   4   7
ENDBRANCH   1   3
BRANCH   1  20
ATOM     20  N   UNL d   1      28.043 -13.863  -5.006  0.00  0.00    -0.343 N 
ATOM     21  C   UNL d   1      27.407 -13.099  -6.152  0.00  0.00     0.146 C 
ATOM     22  C   UNL d   1      28.444 -12.529  -7.048  0.00  0.00     0.142 C 
ATOM     23  N   UNL d   1      29.122 -13.702  -7.583  0.00  0.00    -0.358 N 
ATOM     24  C   UNL d   1      29.598 -14.749  -6.857  0.00  0.00     0.241 C 
ATOM     25  H   UNL d   1      29.560 -13.684  -8.491  0.00  0.00     0.162 HD
ATOM     26  O   UNL d   1      30.421 -15.449  -7.435  0.00  0.00    -0.271 OA
ATOM     27  C   UNL d   1      28.969 -15.027  -5.464  0.00  0.00     0.188 C 
BRANCH  27  28
ATOM     28  C   UNL d   1      29.969 -15.483  -4.390  0.00  0.00     0.146 C 
BRANCH  28  29
ATOM     29  C   UNL d   1      29.724 -16.708  -3.537  0.00  0.00     0.261 C 
ATOM     30  O   UNL d   1      29.688 -16.699  -2.302  0.00  0.00    -0.265 OA
BRANCH  29  31
ATOM     31  O   UNL d   1      29.654 -17.879  -4.257  0.00  0.00    -0.316 OA
BRANCH  31  32
ATOM     32  C   UNL d   1      30.961 -18.350  -4.694  0.00  0.00     0.127 C 
ATOM     33  C   UNL d   1      31.547 -19.337  -3.676  0.00  0.00     0.040 C 
BRANCH  32  34
ATOM     34  C   UNL d   1      30.888 -19.005  -6.085  0.00  0.00     0.027 C 
ATOM     35  C   UNL d   1      30.402 -20.453  -6.005  0.00  0.00     0.007 C 
ENDBRANCH  32  34
ENDBRANCH  31  32
ENDBRANCH  29  31
ENDBRANCH  28  29
ENDBRANCH  27  28
ENDBRANCH   1  20
TORSDOF 14
ENDMDL
MODEL 4
REMARK VINA RESULT:    -7.702      2.540      8.633
REMARK INTER + INTRA:         -14.394
REMARK INTER:                 -11.878
REMARK INTRA:                  -2.516
REMARK CONF_INDEPENDENT:        4.176
REMARK UNBOUND:                -2.516
REMARK  14 active torsions:
REMARK  status: ('A' for Active; 'I' for Inactive)
REMARK    1  A    between atoms: C_2  and  C_3 
REMARK    2  A    between atoms: C_3  and  C_4 
REMARK    3  A    between atoms: C_4  and  C_5 
REMARK    4  A    between atoms: C_5  and  C_6 
REMARK    5  A    between atoms: C_6  and  O_7 
REMARK    6  A    between atoms: O_7  and  C_8 
REMARK    7  A    between atoms: C_13  and  C_14 
REMARK       I    between atoms: C_14  and  N_16 
REMARK    8  A    between atoms: N_16  and  C_17 
REMARK    9  A    between atoms: C_17  and  N_19 
REMARK   10  A    between atoms: C_25  and  C_26 
REMARK   11  A    between atoms: C_26  and  C_27 
REMARK   12  A    between atoms: C_27  and  O_29 
REMARK   13  A    between atoms: O_29  and  C_30 
REMARK   14  A    between atoms: C_30  and  C_32 
ROOT
ATOM      1  C   UNL d   1      27.122 -13.859  -4.162  0.00  0.00     0.177 C 
ATOM      2  S   UNL d   1      26.515 -12.348  -3.706  0.00  0.00    -0.041 SA
ENDROOT
BRANCH   1   3
ATOM      3  N   UNL d   1      26.936 -15.023  -3.380  0.00  0.00    -0.299 N 
ATOM      4  C   UNL d   1      25.755 -15.442  -2.740  0.00  0.00     0.260 C 
ATOM      5  O   UNL d   1      24.635 -15.067  -3.078  0.00  0.00    -0.267 OA
ATOM      6  H   UNL d   1      27.721 -15.547  -3.049  0.00  0.00     0.171 HD
BRANCH   4   7
ATOM      7  C   UNL d   1      25.806 -16.436  -1.600  0.00  0.00     0.065 A 
ATOM      8  C   UNL d   1      27.115 -16.707  -1.121  0.00  0.00     0.020 A 
ATOM      9  C   UNL d   1      27.365 -17.557  -0.040  0.00  0.00     0.001 A 
ATOM     10  C   UNL d   1      26.298 -18.161   0.605  0.00  0.00     0.003 A 
ATOM     11  C   UNL d   1      25.002 -17.972   0.112  0.00  0.00     0.038 A 
ATOM     12  C   UNL d   1      24.743 -17.121  -0.990  0.00  0.00     0.084 A 
BRANCH  12  13
ATOM     13  O   UNL d   1      23.413 -16.928  -1.261  0.00  0.00    -0.350 OA
BRANCH  13  14
ATOM     14  C   UNL d   1      22.492 -17.523  -0.340  0.00  0.00     0.175 C 
BRANCH  14  15
ATOM     15  C   UNL d   1      21.964 -18.838  -0.962  0.00  0.00     0.027 C 
BRANCH  15  16
ATOM     16  C   UNL d   1      20.459 -18.949  -0.702  0.00  0.00     0.002 C 
BRANCH  16  17
ATOM     17  C   UNL d   1      19.971 -20.308  -0.144  0.00  0.00    -0.000 C 
BRANCH  17  18
ATOM     18  C   UNL d   1      18.953 -20.350   1.058  0.00  0.00    -0.005 C 
ATOM     19  C   UNL d   1      18.016 -21.564   1.006  0.00  0.00     0.005 C 
ENDBRANCH  17  18
ENDBRANCH  16  17
ENDBRANCH  15  16
ENDBRANCH  14  15
ENDBRANCH  13  14
ENDBRANCH  12  13
ENDBRANCH   4   7
ENDBRANCH   1   3
BRANCH   1  20
ATOM     20  N   UNL d   1      27.966 -13.966  -5.300  0.00  0.00    -0.343 N 
ATOM     21  C   UNL d   1      27.702 -12.984  -6.427  0.00  0.00     0.146 C 
ATOM     22  C   UNL d   1      28.976 -12.519  -7.032  0.00  0.00     0.142 C 
ATOM     23  N   UNL d   1      29.556 -13.733  -7.591  0.00  0.00    -0.358 N 
ATOM     24  C   UNL d   1      29.705 -14.918  -6.941  0.00  0.00     0.241 C 
ATOM     25  H   UNL d   1      30.166 -13.700  -8.394  0.00  0.00     0.162 HD
ATOM     26  O   UNL d   1      30.509 -15.692  -7.451  0.00  0.00    -0.271 OA
ATOM     27  C   UNL d   1      28.772 -15.223  -5.737  0.00  0.00     0.188 C 
BRANCH  27  28
ATOM     28  C   UNL d   1      29.450 -15.961  -4.573  0.00  0.00     0.146 C 
BRANCH  28  29
ATOM     29  C   UNL d   1      30.178 -15.219  -3.473  0.00  0.00     0.261 C 
ATOM     30  O   UNL d   1      31.177 -14.514  -3.654  0.00  0.00    -0.265 OA
BRANCH  29  31
ATOM     31  O   UNL d   1      29.697 -15.488  -2.212  0.00  0.00    -0.316 OA
BRANCH  31  32
ATOM     32  C   UNL d   1      30.601 -16.321  -1.430  0.00  0.00     0.127 C 
ATOM     33  C   UNL d   1      30.443 -16.034   0.068  0.00  0.00     0.040 C 
BRANCH  32  34
ATOM     34  C   UNL d   1      30.373 -17.818  -1.710  0.00  0.00     0.027 C 
ATOM     35  C   UNL d   1      31.435 -18.386  -2.653  0.00  0.00     0.007 C 
ENDBRANCH  32  34
ENDBRANCH  31  32
ENDBRANCH  29  31
ENDBRANCH  28  29
ENDBRANCH  27  28
ENDBRANCH   1  20
TORSDOF 14
ENDMDL
MODEL 5
REMARK VINA RESULT:    -7.530      2.539      8.496
REMARK INTER + INTRA:         -14.456
REMARK INTER:                 -11.706
REMARK INTRA:                  -2.750
REMARK CONF_INDEPENDENT:        4.176
REMARK UNBOUND:                -2.750
REMARK  14 active torsions:
REMARK  status: ('A' for Active; 'I' for Inactive)
REMARK    1  A    between atoms: C_2  and  C_3 
REMARK    2  A    between atoms: C_3  and  C_4 
REMARK    3  A    between atoms: C_4  and  C_5 
REMARK    4  A    between atoms: C_5  and  C_6 
REMARK    5  A    between atoms: C_6  and  O_7 
REMARK    6  A    between atoms: O_7  and  C_8 
REMARK    7  A    between atoms: C_13  and  C_14 
REMARK       I    between atoms: C_14  and  N_16 
REMARK    8  A    between atoms: N_16  and  C_17 
REMARK    9  A    between atoms: C_17  and  N_19 
REMARK   10  A    between atoms: C_25  and  C_26 
REMARK   11  A    between atoms: C_26  and  C_27 
REMARK   12  A    between atoms: C_27  and  O_29 
REMARK   13  A    between atoms: O_29  and  C_30 
REMARK   14  A    between atoms: C_30  and  C_32 
ROOT
ATOM      1  C   UNL d   1      26.937 -12.249  -1.665  0.00  0.00     0.177 C 
ATOM      2  S   UNL d   1      27.690 -11.320  -0.469  0.00  0.00    -0.041 SA
ENDROOT
BRANCH   1   3
ATOM      3  N   UNL d   1      26.521 -13.583  -1.444  0.00  0.00    -0.299 N 
ATOM      4  C   UNL d   1      26.406 -14.247  -0.209  0.00  0.00     0.260 C 
ATOM      5  O   UNL d   1      26.281 -13.662   0.863  0.00  0.00    -0.267 OA
ATOM      6  H   UNL d   1      26.471 -14.234  -2.201  0.00  0.00     0.171 HD
BRANCH   4   7
ATOM      7  C   UNL d   1      26.386 -15.759  -0.146  0.00  0.00     0.065 A 
ATOM      8  C   UNL d   1      27.670 -16.357  -0.049  0.00  0.00     0.020 A 
ATOM      9  C   UNL d   1      27.856 -17.736   0.072  0.00  0.00     0.001 A 
ATOM     10  C   UNL d   1      26.749 -18.567   0.108  0.00  0.00     0.003 A 
ATOM     11  C   UNL d   1      25.473 -18.016  -0.057  0.00  0.00     0.038 A 
ATOM     12  C   UNL d   1      25.278 -16.621  -0.192  0.00  0.00     0.084 A 
BRANCH  12  13
ATOM     13  O   UNL d   1      23.964 -16.226  -0.201  0.00  0.00    -0.350 OA
BRANCH  13  14
ATOM     14  C   UNL d   1      23.080 -17.008  -1.012  0.00  0.00     0.175 C 
BRANCH  14  15
ATOM     15  C   UNL d   1      22.182 -17.853  -0.077  0.00  0.00     0.027 C 
BRANCH  15  16
ATOM     16  C   UNL d   1      21.493 -18.949  -0.895  0.00  0.00     0.002 C 
BRANCH  16  17
ATOM     17  C   UNL d   1      20.017 -19.234  -0.528  0.00  0.00    -0.000 C 
BRANCH  17  18
ATOM     18  C   UNL d   1      19.664 -19.964   0.824  0.00  0.00    -0.005 C 
ATOM     19  C   UNL d   1      18.463 -20.911   0.697  0.00  0.00     0.005 C 
ENDBRANCH  17  18
ENDBRANCH  16  17
ENDBRANCH  15  16
ENDBRANCH  14  15
ENDBRANCH  13  14
ENDBRANCH  12  13
ENDBRANCH   4   7
ENDBRANCH   1   3
BRANCH   1  20
ATOM     20  N   UNL d   1      26.825 -11.741  -2.987  0.00  0.00    -0.343 N 
ATOM     21  C   UNL d   1      27.691 -10.539  -3.321  0.00  0.00     0.146 C 
ATOM     22  C   UNL d   1      28.226 -10.641  -4.701  0.00  0.00     0.142 C 
ATOM     23  N   UNL d   1      27.034 -10.610  -5.538  0.00  0.00    -0.358 N 
ATOM     24  C   UNL d   1      25.921 -11.372  -5.368  0.00  0.00     0.241 C 
ATOM     25  H   UNL d   1      27.065 -10.248  -6.479  0.00  0.00     0.162 HD
ATOM     26  O   UNL d   1      25.191 -11.451  -6.351  0.00  0.00    -0.271 OA
ATOM     27  C   UNL d   1      25.621 -11.936  -3.952  0.00  0.00     0.188 C 
BRANCH  27  28
ATOM     28  C   UNL d   1      25.040 -13.358  -3.940  0.00  0.00     0.146 C 
BRANCH  28  29
ATOM     29  C   UNL d   1      25.848 -14.556  -4.391  0.00  0.00     0.261 C 
ATOM     30  O   UNL d   1      25.478 -15.357  -5.255  0.00  0.00    -0.265 OA
BRANCH  29  31
ATOM     31  O   UNL d   1      27.003 -14.749  -3.668  0.00  0.00    -0.316 OA
BRANCH  31  32
ATOM     32  C   UNL d   1      28.205 -14.595  -4.475  0.00  0.00     0.127 C 
ATOM     33  C   UNL d   1      28.904 -15.947  -4.667  0.00  0.00     0.040 C 
BRANCH  32  34
ATOM     34  C   UNL d   1      27.889 -13.963  -5.843  0.00  0.00     0.027 C 
ATOM     35  C   UNL d   1      28.918 -14.361  -6.902  0.00  0.00     0.007 C 
ENDBRANCH  32  34
ENDBRANCH  31  32
ENDBRANCH  29  31
ENDBRANCH  28  29
ENDBRANCH  27  28
ENDBRANCH   1  20
TORSDOF 14
ENDMDL
MODEL 6
REMARK VINA RESULT:    -6.466      2.966      7.602
REMARK INTER + INTRA:         -14.556
REMARK INTER:                 -10.642
REMARK INTRA:                  -3.915
REMARK CONF_INDEPENDENT:        4.176
REMARK UNBOUND:                -3.915
REMARK  14 active torsions:
REMARK  status: ('A' for Active; 'I' for Inactive)
REMARK    1  A    between atoms: C_2  and  C_3 
REMARK    2  A    between atoms: C_3  and  C_4 
REMARK    3  A    between atoms: C_4  and  C_5 
REMARK    4  A    between atoms: C_5  and  C_6 
REMARK    5  A    between atoms: C_6  and  O_7 
REMARK    6  A    between atoms: O_7  and  C_8 
REMARK    7  A    between atoms: C_13  and  C_14 
REMARK       I    between atoms: C_14  and  N_16 
REMARK    8  A    between atoms: N_16  and  C_17 
REMARK    9  A    between atoms: C_17  and  N_19 
REMARK   10  A    between atoms: C_25  and  C_26 
REMARK   11  A    between atoms: C_26  and  C_27 
REMARK   12  A    between atoms: C_27  and  O_29 
REMARK   13  A    between atoms: O_29  and  C_30 
REMARK   14  A    between atoms: C_30  and  C_32 
ROOT
ATOM      1  C   UNL d   1      30.470 -17.763  -2.758  0.00  0.00     0.177 C 
ATOM      2  S   UNL d   1      31.267 -18.821  -1.705  0.00  0.00    -0.041 SA
ENDROOT
BRANCH   1   3
ATOM      3  N   UNL d   1      29.515 -16.820  -2.310  0.00  0.00    -0.299 N 
ATOM      4  C   UNL d   1      29.737 -15.717  -1.465  0.00  0.00     0.260 C 
ATOM      5  O   UNL d   1      30.839 -15.199  -1.307  0.00  0.00    -0.267 OA
ATOM      6  H   UNL d   1      28.537 -16.998  -2.409  0.00  0.00     0.171 HD
BRANCH   4   7
ATOM      7  C   UNL d   1      28.587 -15.070  -0.725  0.00  0.00     0.065 A 
ATOM      8  C   UNL d   1      28.846 -13.744  -0.287  0.00  0.00     0.020 A 
ATOM      9  C   UNL d   1      27.891 -12.962   0.368  0.00  0.00     0.001 A 
ATOM     10  C   UNL d   1      26.631 -13.488   0.599  0.00  0.00     0.003 A 
ATOM     11  C   UNL d   1      26.366 -14.815   0.245  0.00  0.00     0.038 A 
ATOM     12  C   UNL d   1      27.332 -15.617  -0.408  0.00  0.00     0.084 A 
BRANCH  12  13
ATOM     13  O   UNL d   1      26.875 -16.844  -0.817  0.00  0.00    -0.350 OA
BRANCH  13  14
ATOM     14  C   UNL d   1      26.469 -17.740   0.223  0.00  0.00     0.175 C 
BRANCH  14  15
ATOM     15  C   UNL d   1      25.082 -18.317  -0.146  0.00  0.00     0.027 C 
BRANCH  15  16
ATOM     16  C   UNL d   1      24.144 -17.168  -0.527  0.00  0.00     0.002 C 
BRANCH  16  17
ATOM     17  C   UNL d   1      22.633 -17.506  -0.529  0.00  0.00    -0.000 C 
BRANCH  17  18
ATOM     18  C   UNL d   1      22.133 -18.893  -1.088  0.00  0.00    -0.005 C 
ATOM     19  C   UNL d   1      20.772 -19.312  -0.517  0.00  0.00     0.005 C 
ENDBRANCH  17  18
ENDBRANCH  16  17
ENDBRANCH  15  16
ENDBRANCH  14  15
ENDBRANCH  13  14
ENDBRANCH  12  13
ENDBRANCH   4   7
ENDBRANCH   1   3
BRANCH   1  20
ATOM     20  N   UNL d   1      30.648 -17.897  -4.160  0.00  0.00    -0.343 N 
ATOM     21  C   UNL d   1      31.090 -19.263  -4.655  0.00  0.00     0.146 C 
ATOM     22  C   UNL d   1      30.412 -19.607  -5.930  0.00  0.00     0.142 C 
ATOM     23  N   UNL d   1      30.888 -18.592  -6.860  0.00  0.00    -0.358 N 
ATOM     24  C   UNL d   1      30.901 -17.251  -6.639  0.00  0.00     0.241 C 
ATOM     25  H   UNL d   1      30.957 -18.780  -7.849  0.00  0.00     0.162 HD
ATOM     26  O   UNL d   1      31.008 -16.560  -7.646  0.00  0.00    -0.271 OA
ATOM     27  C   UNL d   1      30.918 -16.745  -5.171  0.00  0.00     0.188 C 
BRANCH  27  28
ATOM     28  C   UNL d   1      30.073 -15.487  -4.917  0.00  0.00     0.146 C 
BRANCH  28  29
ATOM     29  C   UNL d   1      28.580 -15.464  -5.167  0.00  0.00     0.261 C 
ATOM     30  O   UNL d   1      28.063 -15.205  -6.259  0.00  0.00    -0.265 OA
BRANCH  29  31
ATOM     31  O   UNL d   1      27.826 -15.646  -4.031  0.00  0.00    -0.316 OA
BRANCH  31  32
ATOM     32  C   UNL d   1      26.455 -15.180  -4.185  0.00  0.00     0.127 C 
ATOM     33  C   UNL d   1      25.527 -15.888  -3.189  0.00  0.00     0.040 C 
BRANCH  32  34
ATOM     34  C   UNL d   1      26.355 -13.654  -4.009  0.00  0.00     0.027 C 
ATOM     35  C   UNL d   1      25.533 -13.279  -2.774  0.00  0.00     0.007 C 
ENDBRANCH  32  34
ENDBRANCH  31  32
ENDBRANCH  29  31
ENDBRANCH  28  29
ENDBRANCH  27  28
ENDBRANCH   1  20
TORSDOF 14
ENDMDL
