MODEL 1
REMARK VINA RESULT:   -31.459      0.000      0.000
REMARK INTER + INTRA:         -34.723
REMARK INTER:                 -33.249
REMARK INTRA:                  -1.474
REMARK CONF_INDEPENDENT:        1.790
REMARK UNBOUND:                -1.474
REMARK  6 active torsions:
REMARK  status: ('A' for Active; 'I' for Inactive)
REMARK    1  A    between atoms: C_2  and  C_4 
REMARK    2  A    between atoms: C_4  and  N_5 
REMARK    3  A    between atoms: C_4  and  C_9 
REMARK       I    between atoms: N_5  and  C_6 
REMARK       I    between atoms: C_6  and  N_7 
REMARK       I    between atoms: C_9  and  N_11 
REMARK    4  A    between atoms: N_11  and  C_12 
REMARK    5  A    between atoms: C_15  and  O_16 
REMARK    6  A    between atoms: O_16  and  C_17 
ROOT
ATOM      1  C   UNL d   1      24.504 -17.368  -0.221  0.00  0.00     0.076 A 
ATOM      2  C   UNL d   1      24.289 -18.749  -0.254  0.00  0.00     0.039 A 
ATOM      3  C   UNL d   1      23.028 -19.255  -0.610  0.00  0.00     0.025 A 
ATOM      4  C   UNL d   1      21.950 -18.386  -0.823  0.00  0.00     0.044 A 
ATOM      5  C   UNL d   1      20.631 -18.903  -1.028  0.00  0.00     0.099 C 
ATOM      6  N   UNL d   1      19.547 -19.322  -1.158  0.00  0.00    -0.191 NA
ATOM      7  C   UNL d   1      22.168 -17.007  -0.784  0.00  0.00     0.025 A 
ATOM      8  C   UNL d   1      23.446 -16.505  -0.521  0.00  0.00     0.039 A 
ENDROOT
BRANCH   1   9
ATOM      9  O   UNL d   1      25.782 -16.890   0.006  0.00  0.00    -0.311 OA
BRANCH   9  10
ATOM     10  C   UNL d   1      26.559 -16.492  -1.069  0.00  0.00     0.076 A 
ATOM     11  C   UNL d   1      27.848 -17.037  -1.181  0.00  0.00     0.039 A 
ATOM     12  C   UNL d   1      28.754 -16.555  -2.155  0.00  0.00     0.032 A 
ATOM     13  C   UNL d   1      28.351 -15.582  -3.072  0.00  0.00     0.035 A 
ATOM     14  C   UNL d   1      27.048 -15.088  -2.981  0.00  0.00     0.032 A 
ATOM     15  C   UNL d   1      26.170 -15.529  -1.994  0.00  0.00     0.039 A 
BRANCH  13  16
ATOM     16  N   UNL d   1      29.214 -15.118  -4.107  0.00  0.00    -0.325 N 
ATOM     17  C   UNL d   1      28.764 -15.022  -5.418  0.00  0.00     0.245 C 
ATOM     18  O   UNL d   1      27.582 -15.244  -5.695  0.00  0.00    -0.271 OA
ATOM     19  H   UNL d   1      30.111 -14.730  -3.849  0.00  0.00     0.169 HD
BRANCH  17  20
ATOM     20  C   UNL d   1      29.799 -14.644  -6.552  0.00  0.00     0.182 C 
BRANCH  20  21
ATOM     21  C   UNL d   1      30.473 -15.992  -7.023  0.00  0.00     0.009 C 
ATOM     22  C   UNL d   1      31.970 -15.932  -7.304  0.00  0.00     0.012 C 
ATOM     23  C   UNL d   1      30.330 -17.089  -5.957  0.00  0.00     0.012 C 
ENDBRANCH  20  21
BRANCH  20  24
ATOM     24  N   UNL d   1      29.138 -13.895  -7.645  0.00  0.00    -0.330 N 
ATOM     25  C   UNL d   1      28.288 -12.835  -7.606  0.00  0.00     0.314 C 
ATOM     26  N   UNL d   1      27.662 -12.558  -6.445  0.00  0.00    -0.352 N 
ATOM     27  O   UNL d   1      28.101 -12.133  -8.593  0.00  0.00    -0.248 OA
ATOM     28  H   UNL d   1      27.881 -13.061  -5.605  0.00  0.00     0.160 HD
ATOM     29  H   UNL d   1      27.412 -11.583  -6.306  0.00  0.00     0.160 HD
ATOM     30  H   UNL d   1      29.523 -14.015  -8.575  0.00  0.00     0.165 HD
ENDBRANCH  20  24
ENDBRANCH  17  20
ENDBRANCH  13  16
ENDBRANCH   9  10
ENDBRANCH   1   9
TORSDOF 6
ENDMDL
MODEL 2
REMARK VINA RESULT:   -31.369      1.414      2.346
REMARK INTER + INTRA:         -34.220
REMARK INTER:                 -33.159
REMARK INTRA:                  -1.061
REMARK CONF_INDEPENDENT:        1.790
REMARK UNBOUND:                -1.061
REMARK  6 active torsions:
REMARK  status: ('A' for Active; 'I' for Inactive)
REMARK    1  A    between atoms: C_2  and  C_4 
REMARK    2  A    between atoms: C_4  and  N_5 
REMARK    3  A    between atoms: C_4  and  C_9 
REMARK       I    between atoms: N_5  and  C_6 
REMARK       I    between atoms: C_6  and  N_7 
REMARK       I    between atoms: C_9  and  N_11 
REMARK    4  A    between atoms: N_11  and  C_12 
REMARK    5  A    between atoms: C_15  and  O_16 
REMARK    6  A    between atoms: O_16  and  C_17 
ROOT
ATOM      1  C   UNL d   1      24.482 -17.200  -0.402  0.00  0.00     0.076 A 
ATOM      2  C   UNL d   1      24.301 -18.584  -0.326  0.00  0.00     0.039 A 
ATOM      3  C   UNL d   1      23.037 -19.141  -0.582  0.00  0.00     0.025 A 
ATOM      4  C   UNL d   1      21.928 -18.315  -0.804  0.00  0.00     0.044 A 
ATOM      5  C   UNL d   1      20.615 -18.874  -0.906  0.00  0.00     0.099 C 
ATOM      6  N   UNL d   1      19.537 -19.325  -0.952  0.00  0.00    -0.191 NA
ATOM      7  C   UNL d   1      22.113 -16.932  -0.874  0.00  0.00     0.025 A 
ATOM      8  C   UNL d   1      23.389 -16.384  -0.711  0.00  0.00     0.039 A 
ENDROOT
BRANCH   1   9
ATOM      9  O   UNL d   1      25.756 -16.678  -0.273  0.00  0.00    -0.311 OA
BRANCH   9  10
ATOM     10  C   UNL d   1      26.442 -16.274  -1.406  0.00  0.00     0.076 A 
ATOM     11  C   UNL d   1      27.778 -16.683  -1.542  0.00  0.00     0.039 A 
ATOM     12  C   UNL d   1      28.588 -16.175  -2.585  0.00  0.00     0.032 A 
ATOM     13  C   UNL d   1      28.044 -15.316  -3.543  0.00  0.00     0.035 A 
ATOM     14  C   UNL d   1      26.699 -14.962  -3.425  0.00  0.00     0.032 A 
ATOM     15  C   UNL d   1      25.914 -15.426  -2.372  0.00  0.00     0.039 A 
BRANCH  13  16
ATOM     16  N   UNL d   1      28.810 -14.835  -4.645  0.00  0.00    -0.325 N 
ATOM     17  C   UNL d   1      28.291 -14.853  -5.933  0.00  0.00     0.245 C 
ATOM     18  O   UNL d   1      27.123 -15.195  -6.136  0.00  0.00    -0.271 OA
ATOM     19  H   UNL d   1      29.679 -14.354  -4.454  0.00  0.00     0.169 HD
BRANCH  17  20
ATOM     20  C   UNL d   1      29.232 -14.447  -7.138  0.00  0.00     0.182 C 
BRANCH  20  21
ATOM     21  C   UNL d   1      28.971 -12.917  -7.426  0.00  0.00     0.009 C 
ATOM     22  C   UNL d   1      28.523 -12.567  -8.840  0.00  0.00     0.012 C 
ATOM     23  C   UNL d   1      27.857 -12.362  -6.526  0.00  0.00     0.012 C 
ENDBRANCH  20  21
BRANCH  20  24
ATOM     24  N   UNL d   1      30.647 -14.763  -6.835  0.00  0.00    -0.330 N 
ATOM     25  C   UNL d   1      31.795 -14.366  -7.446  0.00  0.00     0.314 C 
ATOM     26  N   UNL d   1      31.716 -13.864  -8.694  0.00  0.00    -0.352 N 
ATOM     27  O   UNL d   1      32.877 -14.445  -6.878  0.00  0.00    -0.248 OA
ATOM     28  H   UNL d   1      30.828 -13.702  -9.133  0.00  0.00     0.160 HD
ATOM     29  H   UNL d   1      32.443 -13.201  -8.945  0.00  0.00     0.160 HD
ATOM     30  H   UNL d   1      30.840 -15.146  -5.917  0.00  0.00     0.165 HD
ENDBRANCH  20  24
ENDBRANCH  17  20
ENDBRANCH  13  16
ENDBRANCH   9  10
ENDBRANCH   1   9
TORSDOF 6
ENDMDL
MODEL 3
REMARK VINA RESULT:   -31.217      0.888      1.514
REMARK INTER + INTRA:         -34.116
REMARK INTER:                 -33.007
REMARK INTRA:                  -1.109
REMARK CONF_INDEPENDENT:        1.790
REMARK UNBOUND:                -1.109
REMARK  6 active torsions:
REMARK  status: ('A' for Active; 'I' for Inactive)
REMARK    1  A    between atoms: C_2  and  C_4 
REMARK    2  A    between atoms: C_4  and  N_5 
REMARK    3  A    between atoms: C_4  and  C_9 
REMARK       I    between atoms: N_5  and  C_6 
REMARK       I    between atoms: C_6  and  N_7 
REMARK       I    between atoms: C_9  and  N_11 
REMARK    4  A    between atoms: N_11  and  C_12 
REMARK    5  A    between atoms: C_15  and  O_16 
REMARK    6  A    between atoms: O_16  and  C_17 
ROOT
ATOM      1  C   UNL d   1      24.530 -17.298  -0.529  0.00  0.00     0.076 A 
ATOM      2  C   UNL d   1      23.460 -16.447  -0.818  0.00  0.00     0.039 A 
ATOM      3  C   UNL d   1      22.154 -16.960  -0.889  0.00  0.00     0.025 A 
ATOM      4  C   UNL d   1      21.927 -18.338  -0.784  0.00  0.00     0.044 A 
ATOM      5  C   UNL d   1      20.621 -18.878  -1.014  0.00  0.00     0.099 C 
ATOM      6  N   UNL d   1      19.565 -19.325  -1.239  0.00  0.00    -0.191 NA
ATOM      7  C   UNL d   1      23.000 -19.186  -0.499  0.00  0.00     0.025 A 
ATOM      8  C   UNL d   1      24.286 -18.661  -0.337  0.00  0.00     0.039 A 
ENDROOT
BRANCH   1   9
ATOM      9  O   UNL d   1      25.789 -16.758  -0.337  0.00  0.00    -0.311 OA
BRANCH   9  10
ATOM     10  C   UNL d   1      26.399 -16.074  -1.375  0.00  0.00     0.076 A 
ATOM     11  C   UNL d   1      27.584 -16.610  -1.904  0.00  0.00     0.039 A 
ATOM     12  C   UNL d   1      28.348 -15.884  -2.847  0.00  0.00     0.032 A 
ATOM     13  C   UNL d   1      27.891 -14.654  -3.327  0.00  0.00     0.035 A 
ATOM     14  C   UNL d   1      26.683 -14.159  -2.830  0.00  0.00     0.032 A 
ATOM     15  C   UNL d   1      25.954 -14.852  -1.867  0.00  0.00     0.039 A 
BRANCH  13  16
ATOM     16  N   UNL d   1      28.600 -13.924  -4.325  0.00  0.00    -0.325 N 
ATOM     17  C   UNL d   1      28.531 -14.296  -5.661  0.00  0.00     0.245 C 
ATOM     18  O   UNL d   1      27.779 -15.205  -6.023  0.00  0.00    -0.271 OA
ATOM     19  H   UNL d   1      29.040 -13.052  -4.063  0.00  0.00     0.169 HD
BRANCH  17  20
ATOM     20  C   UNL d   1      29.450 -13.547  -6.708  0.00  0.00     0.182 C 
BRANCH  20  21
ATOM     21  C   UNL d   1      30.786 -14.380  -6.821  0.00  0.00     0.009 C 
ATOM     22  C   UNL d   1      30.626 -15.873  -7.083  0.00  0.00     0.012 C 
ATOM     23  C   UNL d   1      31.656 -13.882  -7.986  0.00  0.00     0.012 C 
ENDBRANCH  20  21
BRANCH  20  24
ATOM     24  N   UNL d   1      28.747 -13.370  -7.999  0.00  0.00    -0.330 N 
ATOM     25  C   UNL d   1      28.140 -12.278  -8.537  0.00  0.00     0.314 C 
ATOM     26  N   UNL d   1      27.816 -11.258  -7.718  0.00  0.00    -0.352 N 
ATOM     27  O   UNL d   1      27.905 -12.208  -9.737  0.00  0.00    -0.248 OA
ATOM     28  H   UNL d   1      28.092 -11.259  -6.754  0.00  0.00     0.160 HD
ATOM     29  H   UNL d   1      27.789 -10.340  -8.154  0.00  0.00     0.160 HD
ATOM     30  H   UNL d   1      28.914 -14.075  -8.707  0.00  0.00     0.165 HD
ENDBRANCH  20  24
ENDBRANCH  17  20
ENDBRANCH  13  16
ENDBRANCH   9  10
ENDBRANCH   1   9
TORSDOF 6
ENDMDL
MODEL 4
REMARK VINA RESULT:   -30.754      1.373      2.819
REMARK INTER + INTRA:         -34.206
REMARK INTER:                 -32.544
REMARK INTRA:                  -1.662
REMARK CONF_INDEPENDENT:        1.790
REMARK UNBOUND:                -1.662
REMARK  6 active torsions:
REMARK  status: ('A' for Active; 'I' for Inactive)
REMARK    1  A    between atoms: C_2  and  C_4 
REMARK    2  A    between atoms: C_4  and  N_5 
REMARK    3  A    between atoms: C_4  and  C_9 
REMARK       I    between atoms: N_5  and  C_6 
REMARK       I    between atoms: C_6  and  N_7 
REMARK       I    between atoms: C_9  and  N_11 
REMARK    4  A    between atoms: N_11  and  C_12 
REMARK    5  A    between atoms: C_15  and  O_16 
REMARK    6  A    between atoms: O_16  and  C_17 
ROOT
ATOM      1  C   UNL d   1      24.561 -17.341  -0.324  0.00  0.00     0.076 A 
ATOM      2  C   UNL d   1      23.478 -16.472  -0.491  0.00  0.00     0.039 A 
ATOM      3  C   UNL d   1      22.178 -16.987  -0.618  0.00  0.00     0.025 A 
ATOM      4  C   UNL d   1      21.966 -18.369  -0.692  0.00  0.00     0.044 A 
ATOM      5  C   UNL d   1      20.665 -18.891  -0.981  0.00  0.00     0.099 C 
ATOM      6  N   UNL d   1      19.611 -19.317  -1.255  0.00  0.00    -0.191 NA
ATOM      7  C   UNL d   1      23.051 -19.235  -0.530  0.00  0.00     0.025 A 
ATOM      8  C   UNL d   1      24.333 -18.720  -0.310  0.00  0.00     0.039 A 
ENDROOT
BRANCH   1   9
ATOM      9  O   UNL d   1      25.815 -16.815  -0.073  0.00  0.00    -0.311 OA
BRANCH   9  10
ATOM     10  C   UNL d   1      26.493 -16.161  -1.088  0.00  0.00     0.076 A 
ATOM     11  C   UNL d   1      25.815 -15.142  -1.776  0.00  0.00     0.039 A 
ATOM     12  C   UNL d   1      26.382 -14.546  -2.927  0.00  0.00     0.032 A 
ATOM     13  C   UNL d   1      27.662 -14.911  -3.351  0.00  0.00     0.035 A 
ATOM     14  C   UNL d   1      28.345 -15.888  -2.624  0.00  0.00     0.032 A 
ATOM     15  C   UNL d   1      27.769 -16.507  -1.517  0.00  0.00     0.039 A 
BRANCH  13  16
ATOM     16  N   UNL d   1      28.292 -14.288  -4.467  0.00  0.00    -0.325 N 
ATOM     17  C   UNL d   1      28.028 -14.715  -5.763  0.00  0.00     0.245 C 
ATOM     18  O   UNL d   1      27.170 -15.575  -5.979  0.00  0.00    -0.271 OA
ATOM     19  H   UNL d   1      28.827 -13.444  -4.310  0.00  0.00     0.169 HD
BRANCH  17  20
ATOM     20  C   UNL d   1      28.861 -14.093  -6.954  0.00  0.00     0.182 C 
BRANCH  20  21
ATOM     21  C   UNL d   1      28.689 -12.527  -6.865  0.00  0.00     0.009 C 
ATOM     22  C   UNL d   1      27.390 -12.029  -6.241  0.00  0.00     0.012 C 
ATOM     23  C   UNL d   1      29.791 -11.892  -6.004  0.00  0.00     0.012 C 
ENDBRANCH  20  21
BRANCH  20  24
ATOM     24  N   UNL d   1      30.272 -14.541  -6.903  0.00  0.00    -0.330 N 
ATOM     25  C   UNL d   1      30.805 -15.785  -6.776  0.00  0.00     0.314 C 
ATOM     26  N   UNL d   1      30.015 -16.776  -6.316  0.00  0.00    -0.352 N 
ATOM     27  O   UNL d   1      31.968 -16.014  -7.084  0.00  0.00    -0.248 OA
ATOM     28  H   UNL d   1      29.036 -16.626  -6.154  0.00  0.00     0.160 HD
ATOM     29  H   UNL d   1      30.257 -17.710  -6.632  0.00  0.00     0.160 HD
ATOM     30  H   UNL d   1      30.969 -13.882  -7.231  0.00  0.00     0.165 HD
ENDBRANCH  20  24
ENDBRANCH  17  20
ENDBRANCH  13  16
ENDBRANCH   9  10
ENDBRANCH   1   9
TORSDOF 6
ENDMDL
MODEL 5
REMARK VINA RESULT:   -30.666      3.033      4.003
REMARK INTER + INTRA:         -34.207
REMARK INTER:                 -32.455
REMARK INTRA:                  -1.752
REMARK CONF_INDEPENDENT:        1.790
REMARK UNBOUND:                -1.752
REMARK  6 active torsions:
REMARK  status: ('A' for Active; 'I' for Inactive)
REMARK    1  A    between atoms: C_2  and  C_4 
REMARK    2  A    between atoms: C_4  and  N_5 
REMARK    3  A    between atoms: C_4  and  C_9 
REMARK       I    between atoms: N_5  and  C_6 
REMARK       I    between atoms: C_6  and  N_7 
REMARK       I    between atoms: C_9  and  N_11 
REMARK    4  A    between atoms: N_11  and  C_12 
REMARK    5  A    between atoms: C_15  and  O_16 
REMARK    6  A    between atoms: O_16  and  C_17 
ROOT
ATOM      1  C   UNL d   1      24.580 -17.444  -0.260  0.00  0.00     0.076 A 
ATOM      2  C   UNL d   1      24.335 -18.820  -0.237  0.00  0.00     0.039 A 
ATOM      3  C   UNL d   1      23.062 -19.311  -0.571  0.00  0.00     0.025 A 
ATOM      4  C   UNL d   1      22.003 -18.429  -0.819  0.00  0.00     0.044 A 
ATOM      5  C   UNL d   1      20.672 -18.924  -1.003  0.00  0.00     0.099 C 
ATOM      6  N   UNL d   1      19.580 -19.323  -1.114  0.00  0.00    -0.191 NA
ATOM      7  C   UNL d   1      22.251 -17.054  -0.837  0.00  0.00     0.025 A 
ATOM      8  C   UNL d   1      23.541 -16.570  -0.595  0.00  0.00     0.039 A 
ENDROOT
BRANCH   1   9
ATOM      9  O   UNL d   1      25.869 -16.985  -0.054  0.00  0.00    -0.311 OA
BRANCH   9  10
ATOM     10  C   UNL d   1      26.367 -15.975  -0.859  0.00  0.00     0.076 A 
ATOM     11  C   UNL d   1      26.960 -14.870  -0.230  0.00  0.00     0.039 A 
ATOM     12  C   UNL d   1      27.340 -13.730  -0.977  0.00  0.00     0.032 A 
ATOM     13  C   UNL d   1      27.202 -13.721  -2.367  0.00  0.00     0.035 A 
ATOM     14  C   UNL d   1      26.660 -14.850  -2.984  0.00  0.00     0.032 A 
ATOM     15  C   UNL d   1      26.243 -15.954  -2.244  0.00  0.00     0.039 A 
BRANCH  13  16
ATOM     16  N   UNL d   1      27.632 -12.618  -3.160  0.00  0.00    -0.325 N 
ATOM     17  C   UNL d   1      26.710 -11.782  -3.777  0.00  0.00     0.245 C 
ATOM     18  O   UNL d   1      25.501 -11.920  -3.571  0.00  0.00    -0.271 OA
ATOM     19  H   UNL d   1      28.614 -12.373  -3.153  0.00  0.00     0.169 HD
BRANCH  17  20
ATOM     20  C   UNL d   1      27.236 -10.665  -4.764  0.00  0.00     0.182 C 
BRANCH  20  21
ATOM     21  C   UNL d   1      26.452 -10.848  -6.122  0.00  0.00     0.009 C 
ATOM     22  C   UNL d   1      25.923  -9.574  -6.770  0.00  0.00     0.012 C 
ATOM     23  C   UNL d   1      27.345 -11.480  -7.200  0.00  0.00     0.012 C 
ENDBRANCH  20  21
BRANCH  20  24
ATOM     24  N   UNL d   1      27.087  -9.317  -4.168  0.00  0.00    -0.330 N 
ATOM     25  C   UNL d   1      26.009  -8.711  -3.602  0.00  0.00     0.314 C 
ATOM     26  N   UNL d   1      24.785  -9.217  -3.854  0.00  0.00    -0.352 N 
ATOM     27  O   UNL d   1      26.138  -7.740  -2.868  0.00  0.00    -0.248 OA
ATOM     28  H   UNL d   1      24.672 -10.069  -4.372  0.00  0.00     0.160 HD
ATOM     29  H   UNL d   1      24.091  -9.063  -3.129  0.00  0.00     0.160 HD
ATOM     30  H   UNL d   1      27.942  -8.831  -3.926  0.00  0.00     0.165 HD
ENDBRANCH  20  24
ENDBRANCH  17  20
ENDBRANCH  13  16
ENDBRANCH   9  10
ENDBRANCH   1   9
TORSDOF 6
ENDMDL
MODEL 6
REMARK VINA RESULT:   -30.507      1.460      2.709
REMARK INTER + INTRA:         -33.996
REMARK INTER:                 -32.296
REMARK INTRA:                  -1.699
REMARK CONF_INDEPENDENT:        1.790
REMARK UNBOUND:                -1.699
REMARK  6 active torsions:
REMARK  status: ('A' for Active; 'I' for Inactive)
REMARK    1  A    between atoms: C_2  and  C_4 
REMARK    2  A    between atoms: C_4  and  N_5 
REMARK    3  A    between atoms: C_4  and  C_9 
REMARK       I    between atoms: N_5  and  C_6 
REMARK       I    between atoms: C_6  and  N_7 
REMARK       I    between atoms: C_9  and  N_11 
REMARK    4  A    between atoms: N_11  and  C_12 
REMARK    5  A    between atoms: C_15  and  O_16 
REMARK    6  A    between atoms: O_16  and  C_17 
ROOT
ATOM      1  C   UNL d   1      24.563 -17.205  -0.671  0.00  0.00     0.076 A 
ATOM      2  C   UNL d   1      23.442 -16.369  -0.698  0.00  0.00     0.039 A 
ATOM      3  C   UNL d   1      22.152 -16.924  -0.691  0.00  0.00     0.025 A 
ATOM      4  C   UNL d   1      21.976 -18.311  -0.773  0.00  0.00     0.044 A 
ATOM      5  C   UNL d   1      20.667 -18.870  -0.927  0.00  0.00     0.099 C 
ATOM      6  N   UNL d   1      19.604 -19.325  -1.092  0.00  0.00    -0.191 NA
ATOM      7  C   UNL d   1      23.099 -19.143  -0.751  0.00  0.00     0.025 A 
ATOM      8  C   UNL d   1      24.380 -18.591  -0.663  0.00  0.00     0.039 A 
ENDROOT
BRANCH   1   9
ATOM      9  O   UNL d   1      25.821 -16.643  -0.548  0.00  0.00    -0.311 OA
BRANCH   9  10
ATOM     10  C   UNL d   1      26.398 -16.025  -1.645  0.00  0.00     0.076 A 
ATOM     11  C   UNL d   1      27.799 -16.001  -1.719  0.00  0.00     0.039 A 
ATOM     12  C   UNL d   1      28.458 -15.248  -2.720  0.00  0.00     0.032 A 
ATOM     13  C   UNL d   1      27.718 -14.579  -3.699  0.00  0.00     0.035 A 
ATOM     14  C   UNL d   1      26.325 -14.658  -3.643  0.00  0.00     0.032 A 
ATOM     15  C   UNL d   1      25.676 -15.361  -2.631  0.00  0.00     0.039 A 
BRANCH  13  16
ATOM     16  N   UNL d   1      28.346 -13.864  -4.760  0.00  0.00    -0.325 N 
ATOM     17  C   UNL d   1      28.195 -14.272  -6.079  0.00  0.00     0.245 C 
ATOM     18  O   UNL d   1      27.438 -15.203  -6.367  0.00  0.00    -0.271 OA
ATOM     19  H   UNL d   1      28.786 -12.978  -4.550  0.00  0.00     0.169 HD
BRANCH  17  20
ATOM     20  C   UNL d   1      29.029 -13.536  -7.203  0.00  0.00     0.182 C 
BRANCH  20  21
ATOM     21  C   UNL d   1      28.856 -11.987  -6.961  0.00  0.00     0.009 C 
ATOM     22  C   UNL d   1      29.726 -11.071  -7.814  0.00  0.00     0.012 C 
ATOM     23  C   UNL d   1      27.419 -11.532  -7.261  0.00  0.00     0.012 C 
ENDBRANCH  20  21
BRANCH  20  24
ATOM     24  N   UNL d   1      30.440 -13.986  -7.196  0.00  0.00    -0.330 N 
ATOM     25  C   UNL d   1      30.974 -15.234  -7.271  0.00  0.00     0.314 C 
ATOM     26  N   UNL d   1      30.178 -16.289  -7.006  0.00  0.00    -0.352 N 
ATOM     27  O   UNL d   1      32.145 -15.407  -7.587  0.00  0.00    -0.248 OA
ATOM     28  H   UNL d   1      29.195 -16.168  -6.844  0.00  0.00     0.160 HD
ATOM     29  H   UNL d   1      30.431 -17.155  -7.471  0.00  0.00     0.160 HD
ATOM     30  H   UNL d   1      31.142 -13.281  -7.390  0.00  0.00     0.165 HD
ENDBRANCH  20  24
ENDBRANCH  17  20
ENDBRANCH  13  16
ENDBRANCH   9  10
ENDBRANCH   1   9
TORSDOF 6
ENDMDL
MODEL 7
REMARK VINA RESULT:   -30.196      2.018      2.712
REMARK INTER + INTRA:         -33.725
REMARK INTER:                 -31.986
REMARK INTRA:                  -1.739
REMARK CONF_INDEPENDENT:        1.790
REMARK UNBOUND:                -1.739
REMARK  6 active torsions:
REMARK  status: ('A' for Active; 'I' for Inactive)
REMARK    1  A    between atoms: C_2  and  C_4 
REMARK    2  A    between atoms: C_4  and  N_5 
REMARK    3  A    between atoms: C_4  and  C_9 
REMARK       I    between atoms: N_5  and  C_6 
REMARK       I    between atoms: C_6  and  N_7 
REMARK       I    between atoms: C_9  and  N_11 
REMARK    4  A    between atoms: N_11  and  C_12 
REMARK    5  A    between atoms: C_15  and  O_16 
REMARK    6  A    between atoms: O_16  and  C_17 
ROOT
ATOM      1  C   UNL d   1      24.566 -17.482  -0.359  0.00  0.00     0.076 A 
ATOM      2  C   UNL d   1      23.508 -16.584  -0.528  0.00  0.00     0.039 A 
ATOM      3  C   UNL d   1      22.191 -17.062  -0.633  0.00  0.00     0.025 A 
ATOM      4  C   UNL d   1      21.939 -18.439  -0.684  0.00  0.00     0.044 A 
ATOM      5  C   UNL d   1      20.619 -18.926  -0.951  0.00  0.00     0.099 C 
ATOM      6  N   UNL d   1      19.551 -19.325  -1.206  0.00  0.00    -0.191 NA
ATOM      7  C   UNL d   1      23.000 -19.334  -0.520  0.00  0.00     0.025 A 
ATOM      8  C   UNL d   1      24.298 -18.854  -0.322  0.00  0.00     0.039 A 
ENDROOT
BRANCH   1   9
ATOM      9  O   UNL d   1      25.838 -16.990  -0.129  0.00  0.00    -0.311 OA
BRANCH   9  10
ATOM     10  C   UNL d   1      26.365 -16.043  -0.992  0.00  0.00     0.076 A 
ATOM     11  C   UNL d   1      26.118 -16.200  -2.364  0.00  0.00     0.039 A 
ATOM     12  C   UNL d   1      26.759 -15.370  -3.314  0.00  0.00     0.032 A 
ATOM     13  C   UNL d   1      27.590 -14.329  -2.893  0.00  0.00     0.035 A 
ATOM     14  C   UNL d   1      27.783 -14.152  -1.521  0.00  0.00     0.032 A 
ATOM     15  C   UNL d   1      27.188 -14.997  -0.587  0.00  0.00     0.039 A 
BRANCH  13  16
ATOM     16  N   UNL d   1      28.202 -13.432  -3.816  0.00  0.00    -0.325 N 
ATOM     17  C   UNL d   1      27.435 -12.716  -4.727  0.00  0.00     0.245 C 
ATOM     18  O   UNL d   1      26.203 -12.770  -4.691  0.00  0.00    -0.271 OA
ATOM     19  H   UNL d   1      29.185 -13.222  -3.704  0.00  0.00     0.169 HD
BRANCH  17  20
ATOM     20  C   UNL d   1      28.171 -11.850  -5.826  0.00  0.00     0.182 C 
BRANCH  20  21
ATOM     21  C   UNL d   1      28.116 -12.673  -7.171  0.00  0.00     0.009 C 
ATOM     22  C   UNL d   1      28.974 -12.148  -8.316  0.00  0.00     0.012 C 
ATOM     23  C   UNL d   1      28.603 -14.115  -6.962  0.00  0.00     0.012 C 
ENDBRANCH  20  21
BRANCH  20  24
ATOM     24  N   UNL d   1      27.568 -10.501  -5.928  0.00  0.00    -0.330 N 
ATOM     25  C   UNL d   1      26.267 -10.114  -6.015  0.00  0.00     0.314 C 
ATOM     26  N   UNL d   1      25.349 -11.033  -6.375  0.00  0.00    -0.352 N 
ATOM     27  O   UNL d   1      25.927  -8.966  -5.758  0.00  0.00    -0.248 OA
ATOM     28  H   UNL d   1      25.599 -11.998  -6.491  0.00  0.00     0.160 HD
ATOM     29  H   UNL d   1      24.411 -10.874  -6.021  0.00  0.00     0.160 HD
ATOM     30  H   UNL d   1      28.161  -9.718  -5.677  0.00  0.00     0.165 HD
ENDBRANCH  20  24
ENDBRANCH  17  20
ENDBRANCH  13  16
ENDBRANCH   9  10
ENDBRANCH   1   9
TORSDOF 6
ENDMDL
MODEL 8
REMARK VINA RESULT:   -29.876      3.248      4.115
REMARK INTER + INTRA:         -33.400
REMARK INTER:                 -31.666
REMARK INTRA:                  -1.734
REMARK CONF_INDEPENDENT:        1.790
REMARK UNBOUND:                -1.734
REMARK  6 active torsions:
REMARK  status: ('A' for Active; 'I' for Inactive)
REMARK    1  A    between atoms: C_2  and  C_4 
REMARK    2  A    between atoms: C_4  and  N_5 
REMARK    3  A    between atoms: C_4  and  C_9 
REMARK       I    between atoms: N_5  and  C_6 
REMARK       I    between atoms: C_6  and  N_7 
REMARK       I    between atoms: C_9  and  N_11 
REMARK    4  A    between atoms: N_11  and  C_12 
REMARK    5  A    between atoms: C_15  and  O_16 
REMARK    6  A    between atoms: O_16  and  C_17 
ROOT
ATOM      1  C   UNL d   1      24.731 -17.461  -0.248  0.00  0.00     0.076 A 
ATOM      2  C   UNL d   1      24.484 -18.838  -0.229  0.00  0.00     0.039 A 
ATOM      3  C   UNL d   1      23.199 -19.324  -0.518  0.00  0.00     0.025 A 
ATOM      4  C   UNL d   1      22.132 -18.437  -0.714  0.00  0.00     0.044 A 
ATOM      5  C   UNL d   1      20.794 -18.928  -0.850  0.00  0.00     0.099 C 
ATOM      6  N   UNL d   1      19.698 -19.325  -0.922  0.00  0.00    -0.191 NA
ATOM      7  C   UNL d   1      22.382 -17.062  -0.727  0.00  0.00     0.025 A 
ATOM      8  C   UNL d   1      23.681 -16.583  -0.532  0.00  0.00     0.039 A 
ENDROOT
BRANCH   1   9
ATOM      9  O   UNL d   1      26.028 -17.007  -0.088  0.00  0.00    -0.311 OA
BRANCH   9  10
ATOM     10  C   UNL d   1      26.399 -15.801  -0.658  0.00  0.00     0.076 A 
ATOM     11  C   UNL d   1      26.795 -14.766   0.203  0.00  0.00     0.039 A 
ATOM     12  C   UNL d   1      27.028 -13.461  -0.294  0.00  0.00     0.032 A 
ATOM     13  C   UNL d   1      26.944 -13.204  -1.664  0.00  0.00     0.035 A 
ATOM     14  C   UNL d   1      26.602 -14.258  -2.514  0.00  0.00     0.032 A 
ATOM     15  C   UNL d   1      26.328 -15.532  -2.020  0.00  0.00     0.039 A 
BRANCH  13  16
ATOM     16  N   UNL d   1      27.234 -11.920  -2.209  0.00  0.00    -0.325 N 
ATOM     17  C   UNL d   1      26.342 -11.296  -3.072  0.00  0.00     0.245 C 
ATOM     18  O   UNL d   1      25.239 -11.796  -3.307  0.00  0.00    -0.271 OA
ATOM     19  H   UNL d   1      28.032 -11.413  -1.851  0.00  0.00     0.169 HD
BRANCH  17  20
ATOM     20  C   UNL d   1      26.775  -9.942  -3.766  0.00  0.00     0.182 C 
BRANCH  20  21
ATOM     21  C   UNL d   1      27.933  -9.327  -2.886  0.00  0.00     0.009 C 
ATOM     22  C   UNL d   1      28.715  -8.179  -3.513  0.00  0.00     0.012 C 
ATOM     23  C   UNL d   1      27.386  -8.743  -1.575  0.00  0.00     0.012 C 
ENDBRANCH  20  21
BRANCH  20  24
ATOM     24  N   UNL d   1      27.157 -10.169  -5.179  0.00  0.00    -0.330 N 
ATOM     25  C   UNL d   1      26.418 -10.578  -6.243  0.00  0.00     0.314 C 
ATOM     26  N   UNL d   1      25.235 -11.180  -6.008  0.00  0.00    -0.352 N 
ATOM     27  O   UNL d   1      26.801 -10.394  -7.392  0.00  0.00    -0.248 OA
ATOM     28  H   UNL d   1      24.863 -11.248  -5.078  0.00  0.00     0.160 HD
ATOM     29  H   UNL d   1      24.538 -11.075  -6.740  0.00  0.00     0.160 HD
ATOM     30  H   UNL d   1      28.032  -9.758  -5.483  0.00  0.00     0.165 HD
ENDBRANCH  20  24
ENDBRANCH  17  20
ENDBRANCH  13  16
ENDBRANCH   9  10
ENDBRANCH   1   9
TORSDOF 6
ENDMDL
