MODEL 1
REMARK VINA RESULT:   -30.899      0.000      0.000
REMARK INTER + INTRA:         -35.449
REMARK INTER:                 -34.180
REMARK INTRA:                  -1.269
REMARK CONF_INDEPENDENT:        3.281
REMARK UNBOUND:                -1.269
REMARK  11 active torsions:
REMARK  status: ('A' for Active; 'I' for Inactive)
REMARK    1  A    between atoms: C_2  and  C_3 
REMARK    2  A    between atoms: C_3  and  N_4 
REMARK    3  A    between atoms: C_5  and  S_6 
REMARK    4  A    between atoms: S_6  and  C_7 
REMARK    5  A    between atoms: C_7  and  C_8 
REMARK       I    between atoms: C_8  and  N_10 
REMARK    6  A    between atoms: N_10  and  C_11 
REMARK    7  A    between atoms: C_11  and  C_12 
REMARK    8  A    between atoms: C_12  and  C_13 
REMARK    9  A    between atoms: C_12  and  C_22 
REMARK   10  A    between atoms: C_25  and  O_26 
REMARK   11  A    between atoms: C_32  and  O_33 
ROOT
ATOM      1  C   UNL d   1      26.261 -15.330  -0.213  0.00  0.00     0.068 C 
ENDROOT
BRANCH   1   2
ATOM      2  C   UNL d   1      26.022 -16.847   0.189  0.00  0.00     0.136 C 
BRANCH   2   3
ATOM      3  N   UNL d   1      24.662 -17.347  -0.059  0.00  0.00    -0.359 N 
ATOM      4  C   UNL d   1      24.150 -17.611  -1.332  0.00  0.00     0.227 C 
ATOM      5  O   UNL d   1      24.779 -17.232  -2.317  0.00  0.00    -0.273 OA
ATOM      6  H   UNL d   1      24.039 -17.250   0.731  0.00  0.00     0.162 HD
BRANCH   4   7
ATOM      7  C   UNL d   1      22.829 -18.482  -1.446  0.00  0.00     0.185 C 
BRANCH   7   8
ATOM      8  S   UNL d   1      22.208 -18.938   0.228  0.00  0.00    -0.081 SA
BRANCH   8   9
ATOM      9  C   UNL d   1      20.550 -19.397   0.076  0.00  0.00     0.187 C 
ATOM     10  N   UNL d   1      19.861 -19.985   1.194  0.00  0.00    -0.315 N 
ATOM     11  C   UNL d   1      18.607 -20.500   0.697  0.00  0.00     0.347 C 
ATOM     12  N   UNL d   1      18.622 -19.915  -0.613  0.00  0.00    -0.265 N 
ATOM     13  N   UNL d   1      19.800 -19.324  -0.984  0.00  0.00    -0.150 NA
ATOM     14  H   UNL d   1      17.744 -19.774  -1.106  0.00  0.00     0.187 HD
BRANCH  10  15
ATOM     15  C   UNL d   1      20.189 -19.815   2.611  0.00  0.00     0.129 C 
BRANCH  15  16
ATOM     16  C   UNL d   1      19.480 -20.828   3.517  0.00  0.00     0.015 C 
ATOM     17  C   UNL d   1      19.570 -20.454   4.991  0.00  0.00     0.006 C 
ENDBRANCH  15  16
ENDBRANCH  10  15
BRANCH  11  18
ATOM     18  O   UNL d   1      18.750 -21.888   0.604  0.00  0.00    -0.358 OA
ATOM     19  H   UNL d   1      17.844 -22.231   0.662  0.00  0.00     0.214 HD
ENDBRANCH  11  18
ENDBRANCH   8   9
ENDBRANCH   7   8
ENDBRANCH   4   7
ENDBRANCH   2   3
ENDBRANCH   1   2
BRANCH   1  20
ATOM     20  C   UNL d   1      27.235 -14.627   0.770  0.00  0.00    -0.040 A 
ATOM     21  C   UNL d   1      27.343 -13.347   1.178  0.00  0.00    -0.005 A 
ATOM     22  C   UNL d   1      26.719 -12.103   0.892  0.00  0.00     0.014 C 
ATOM     23  C   UNL d   1      28.418 -13.327   2.199  0.00  0.00     0.038 A 
ATOM     24  C   UNL d   1      26.971 -11.010   1.606  0.00  0.00     0.001 C 
ATOM     25  C   UNL d   1      27.983 -11.005   2.621  0.00  0.00     0.002 C 
ATOM     26  C   UNL d   1      28.719 -12.089   2.917  0.00  0.00     0.030 C 
ATOM     27  N   UNL d   1      28.969 -14.470   2.349  0.00  0.00    -0.385 N 
ATOM     28  C   UNL d   1      28.299 -15.409   1.485  0.00  0.00     0.155 A 
ATOM     29  H   UNL d   1      29.724 -14.683   2.987  0.00  0.00     0.160 HD
ENDBRANCH   1  20
BRANCH   1  30
ATOM     30  C   UNL d   1      26.582 -15.201  -1.743  0.00  0.00    -0.048 A 
ATOM     31  C   UNL d   1      25.712 -14.698  -2.730  0.00  0.00     0.011 A 
ATOM     32  C   UNL d   1      25.957 -14.711  -4.092  0.00  0.00     0.037 A 
ATOM     33  C   UNL d   1      27.153 -15.180  -4.547  0.00  0.00     0.068 A 
ATOM     34  C   UNL d   1      28.101 -15.607  -3.624  0.00  0.00     0.037 A 
ATOM     35  C   UNL d   1      27.794 -15.687  -2.254  0.00  0.00     0.011 A 
BRANCH  33  36
ATOM     36  O   UNL d   1      27.243 -15.172  -5.901  0.00  0.00    -0.356 OA
ATOM     37  C   UNL d   1      28.339 -14.440  -6.409  0.00  0.00     0.210 C 
ENDBRANCH  33  36
ENDBRANCH   1  30
TORSDOF 11
ENDMDL
MODEL 2
REMARK VINA RESULT:   -30.409      1.773      2.073
REMARK INTER + INTRA:         -34.951
REMARK INTER:                 -33.691
REMARK INTRA:                  -1.260
REMARK CONF_INDEPENDENT:        3.281
REMARK UNBOUND:                -1.260
REMARK  11 active torsions:
REMARK  status: ('A' for Active; 'I' for Inactive)
REMARK    1  A    between atoms: C_2  and  C_3 
REMARK    2  A    between atoms: C_3  and  N_4 
REMARK    3  A    between atoms: C_5  and  S_6 
REMARK    4  A    between atoms: S_6  and  C_7 
REMARK    5  A    between atoms: C_7  and  C_8 
REMARK       I    between atoms: C_8  and  N_10 
REMARK    6  A    between atoms: N_10  and  C_11 
REMARK    7  A    between atoms: C_11  and  C_12 
REMARK    8  A    between atoms: C_12  and  C_13 
REMARK    9  A    between atoms: C_12  and  C_22 
REMARK   10  A    between atoms: C_25  and  O_26 
REMARK   11  A    between atoms: C_32  and  O_33 
ROOT
ATOM      1  C   UNL d   1      26.216 -14.934  -1.457  0.00  0.00     0.068 C 
ENDROOT
BRANCH   1   2
ATOM      2  C   UNL d   1      26.378 -16.390  -2.070  0.00  0.00     0.136 C 
BRANCH   2   3
ATOM      3  N   UNL d   1      25.123 -17.138  -2.232  0.00  0.00    -0.359 N 
ATOM      4  C   UNL d   1      24.432 -17.736  -1.175  0.00  0.00     0.227 C 
ATOM      5  O   UNL d   1      24.979 -17.820  -0.078  0.00  0.00    -0.273 OA
ATOM      6  H   UNL d   1      24.925 -17.404  -3.186  0.00  0.00     0.162 HD
BRANCH   4   7
ATOM      7  C   UNL d   1      22.929 -18.184  -1.416  0.00  0.00     0.185 C 
BRANCH   7   8
ATOM      8  S   UNL d   1      22.365 -19.309  -0.070  0.00  0.00    -0.081 SA
BRANCH   8   9
ATOM      9  C   UNL d   1      20.647 -19.450  -0.175  0.00  0.00     0.187 C 
ATOM     10  N   UNL d   1      19.894 -19.929   0.953  0.00  0.00    -0.315 N 
ATOM     11  C   UNL d   1      18.552 -20.190   0.488  0.00  0.00     0.347 C 
ATOM     12  N   UNL d   1      18.637 -19.583  -0.809  0.00  0.00    -0.265 N 
ATOM     13  N   UNL d   1      19.893 -19.211  -1.208  0.00  0.00    -0.150 NA
ATOM     14  H   UNL d   1      17.787 -19.269  -1.269  0.00  0.00     0.187 HD
BRANCH  10  15
ATOM     15  C   UNL d   1      20.289 -19.859   2.362  0.00  0.00     0.129 C 
BRANCH  15  16
ATOM     16  C   UNL d   1      19.238 -20.447   3.310  0.00  0.00     0.015 C 
ATOM     17  C   UNL d   1      19.837 -20.897   4.636  0.00  0.00     0.006 C 
ENDBRANCH  15  16
ENDBRANCH  10  15
BRANCH  11  18
ATOM     18  O   UNL d   1      18.432 -21.577   0.362  0.00  0.00    -0.358 OA
ATOM     19  H   UNL d   1      17.553 -21.779   0.723  0.00  0.00     0.214 HD
ENDBRANCH  11  18
ENDBRANCH   8   9
ENDBRANCH   7   8
ENDBRANCH   4   7
ENDBRANCH   2   3
ENDBRANCH   1   2
BRANCH   1  20
ATOM     20  C   UNL d   1      27.156 -14.720  -0.241  0.00  0.00    -0.040 A 
ATOM     21  C   UNL d   1      27.181 -13.790   0.733  0.00  0.00    -0.005 A 
ATOM     22  C   UNL d   1      26.463 -12.611   1.070  0.00  0.00     0.014 C 
ATOM     23  C   UNL d   1      28.273 -14.183   1.655  0.00  0.00     0.038 A 
ATOM     24  C   UNL d   1      26.650 -11.979   2.226  0.00  0.00     0.001 C 
ATOM     25  C   UNL d   1      27.681 -12.388   3.134  0.00  0.00     0.002 C 
ATOM     26  C   UNL d   1      28.500 -13.424   2.884  0.00  0.00     0.030 C 
ATOM     27  N   UNL d   1      28.909 -15.213   1.246  0.00  0.00    -0.385 N 
ATOM     28  C   UNL d   1      28.289 -15.669   0.027  0.00  0.00     0.155 A 
ATOM     29  H   UNL d   1      29.691 -15.651   1.716  0.00  0.00     0.160 HD
ENDBRANCH   1  20
BRANCH   1  30
ATOM     30  C   UNL d   1      26.253 -13.844  -2.584  0.00  0.00    -0.048 A 
ATOM     31  C   UNL d   1      26.917 -12.604  -2.513  0.00  0.00     0.011 A 
ATOM     32  C   UNL d   1      26.833 -11.599  -3.460  0.00  0.00     0.037 A 
ATOM     33  C   UNL d   1      26.113 -11.815  -4.597  0.00  0.00     0.068 A 
ATOM     34  C   UNL d   1      25.507 -13.052  -4.781  0.00  0.00     0.037 A 
ATOM     35  C   UNL d   1      25.512 -14.021  -3.761  0.00  0.00     0.011 A 
BRANCH  33  36
ATOM     36  O   UNL d   1      26.084 -10.734  -5.417  0.00  0.00    -0.356 OA
ATOM     37  C   UNL d   1      26.153  -9.491  -4.748  0.00  0.00     0.210 C 
ENDBRANCH  33  36
ENDBRANCH   1  30
TORSDOF 11
ENDMDL
MODEL 3
REMARK VINA RESULT:   -30.238      2.241      4.595
REMARK INTER + INTRA:         -34.795
REMARK INTER:                 -33.520
REMARK INTRA:                  -1.275
REMARK CONF_INDEPENDENT:        3.281
REMARK UNBOUND:                -1.275
REMARK  11 active torsions:
REMARK  status: ('A' for Active; 'I' for Inactive)
REMARK    1  A    between atoms: C_2  and  C_3 
REMARK    2  A    between atoms: C_3  and  N_4 
REMARK    3  A    between atoms: C_5  and  S_6 
REMARK    4  A    between atoms: S_6  and  C_7 
REMARK    5  A    between atoms: C_7  and  C_8 
REMARK       I    between atoms: C_8  and  N_10 
REMARK    6  A    between atoms: N_10  and  C_11 
REMARK    7  A    between atoms: C_11  and  C_12 
REMARK    8  A    between atoms: C_12  and  C_13 
REMARK    9  A    between atoms: C_12  and  C_22 
REMARK   10  A    between atoms: C_25  and  O_26 
REMARK   11  A    between atoms: C_32  and  O_33 
ROOT
ATOM      1  C   UNL d   1      27.218 -15.498  -1.251  0.00  0.00     0.068 C 
ENDROOT
BRANCH   1   2
ATOM      2  C   UNL d   1      26.505 -16.897  -1.019  0.00  0.00     0.136 C 
BRANCH   2   3
ATOM      3  N   UNL d   1      25.143 -16.815  -0.470  0.00  0.00    -0.359 N 
ATOM      4  C   UNL d   1      24.000 -17.228  -1.159  0.00  0.00     0.227 C 
ATOM      5  O   UNL d   1      24.090 -17.496  -2.355  0.00  0.00    -0.273 OA
ATOM      6  H   UNL d   1      25.063 -16.211   0.336  0.00  0.00     0.162 HD
BRANCH   4   7
ATOM      7  C   UNL d   1      22.659 -17.433  -0.337  0.00  0.00     0.185 C 
BRANCH   7   8
ATOM      8  S   UNL d   1      22.304 -19.227  -0.114  0.00  0.00    -0.081 SA
BRANCH   8   9
ATOM      9  C   UNL d   1      20.593 -19.449  -0.202  0.00  0.00     0.187 C 
ATOM     10  N   UNL d   1      19.873 -19.953   0.937  0.00  0.00    -0.315 N 
ATOM     11  C   UNL d   1      18.542 -20.280   0.487  0.00  0.00     0.347 C 
ATOM     12  N   UNL d   1      18.586 -19.682  -0.815  0.00  0.00    -0.265 N 
ATOM     13  N   UNL d   1      19.820 -19.255  -1.229  0.00  0.00    -0.150 NA
ATOM     14  H   UNL d   1      17.718 -19.411  -1.270  0.00  0.00     0.187 HD
BRANCH  10  15
ATOM     15  C   UNL d   1      20.278 -19.853   2.342  0.00  0.00     0.129 C 
BRANCH  15  16
ATOM     16  C   UNL d   1      19.257 -20.468   3.305  0.00  0.00     0.015 C 
ATOM     17  C   UNL d   1      19.825 -20.673   4.703  0.00  0.00     0.006 C 
ENDBRANCH  15  16
ENDBRANCH  10  15
BRANCH  11  18
ATOM     18  O   UNL d   1      18.485 -21.673   0.374  0.00  0.00    -0.358 OA
ATOM     19  H   UNL d   1      17.548 -21.866   0.206  0.00  0.00     0.214 HD
ENDBRANCH  11  18
ENDBRANCH   8   9
ENDBRANCH   7   8
ENDBRANCH   4   7
ENDBRANCH   2   3
ENDBRANCH   1   2
BRANCH   1  20
ATOM     20  C   UNL d   1      26.515 -14.678  -2.366  0.00  0.00    -0.040 A 
ATOM     21  C   UNL d   1      26.608 -13.386  -2.737  0.00  0.00    -0.005 A 
ATOM     22  C   UNL d   1      27.287 -12.219  -2.294  0.00  0.00     0.014 C 
ATOM     23  C   UNL d   1      25.745 -13.234  -3.933  0.00  0.00     0.038 A 
ATOM     24  C   UNL d   1      27.277 -11.091  -2.999  0.00  0.00     0.001 C 
ATOM     25  C   UNL d   1      26.474 -10.961  -4.178  0.00  0.00     0.002 C 
ATOM     26  C   UNL d   1      25.703 -11.958  -4.644  0.00  0.00     0.030 C 
ATOM     27  N   UNL d   1      25.123 -14.312  -4.224  0.00  0.00    -0.385 N 
ATOM     28  C   UNL d   1      25.529 -15.333  -3.292  0.00  0.00     0.155 A 
ATOM     29  H   UNL d   1      24.481 -14.432  -4.996  0.00  0.00     0.160 HD
ENDBRANCH   1  20
BRANCH   1  30
ATOM     30  C   UNL d   1      27.476 -14.768   0.112  0.00  0.00    -0.048 A 
ATOM     31  C   UNL d   1      26.762 -13.657   0.602  0.00  0.00     0.011 A 
ATOM     32  C   UNL d   1      27.083 -12.942   1.742  0.00  0.00     0.037 A 
ATOM     33  C   UNL d   1      28.129 -13.355   2.514  0.00  0.00     0.068 A 
ATOM     34  C   UNL d   1      28.823 -14.501   2.143  0.00  0.00     0.037 A 
ATOM     35  C   UNL d   1      28.551 -15.151   0.926  0.00  0.00     0.011 A 
BRANCH  33  36
ATOM     36  O   UNL d   1      28.356 -12.541   3.576  0.00  0.00    -0.356 OA
ATOM     37  C   UNL d   1      27.757 -12.972   4.780  0.00  0.00     0.210 C 
ENDBRANCH  33  36
ENDBRANCH   1  30
TORSDOF 11
ENDMDL
MODEL 4
REMARK VINA RESULT:   -30.163      2.049      5.118
REMARK INTER + INTRA:         -34.719
REMARK INTER:                 -33.444
REMARK INTRA:                  -1.275
REMARK CONF_INDEPENDENT:        3.281
REMARK UNBOUND:                -1.275
REMARK  11 active torsions:
REMARK  status: ('A' for Active; 'I' for Inactive)
REMARK    1  A    between atoms: C_2  and  C_3 
REMARK    2  A    between atoms: C_3  and  N_4 
REMARK    3  A    between atoms: C_5  and  S_6 
REMARK    4  A    between atoms: S_6  and  C_7 
REMARK    5  A    between atoms: C_7  and  C_8 
REMARK       I    between atoms: C_8  and  N_10 
REMARK    6  A    between atoms: N_10  and  C_11 
REMARK    7  A    between atoms: C_11  and  C_12 
REMARK    8  A    between atoms: C_12  and  C_13 
REMARK    9  A    between atoms: C_12  and  C_22 
REMARK   10  A    between atoms: C_25  and  O_26 
REMARK   11  A    between atoms: C_32  and  O_33 
ROOT
ATOM      1  C   UNL d   1      26.563 -15.845  -2.321  0.00  0.00     0.068 C 
ENDROOT
BRANCH   1   2
ATOM      2  C   UNL d   1      25.108 -16.477  -2.385  0.00  0.00     0.136 C 
BRANCH   2   3
ATOM      3  N   UNL d   1      24.626 -17.051  -1.120  0.00  0.00    -0.359 N 
ATOM      4  C   UNL d   1      23.310 -16.936  -0.666  0.00  0.00     0.227 C 
ATOM      5  O   UNL d   1      22.549 -16.159  -1.236  0.00  0.00    -0.273 OA
ATOM      6  H   UNL d   1      25.364 -17.318  -0.484  0.00  0.00     0.162 HD
BRANCH   4   7
ATOM      7  C   UNL d   1      22.832 -17.895   0.505  0.00  0.00     0.185 C 
BRANCH   7   8
ATOM      8  S   UNL d   1      22.338 -19.538  -0.167  0.00  0.00    -0.081 SA
BRANCH   8   9
ATOM      9  C   UNL d   1      20.613 -19.588  -0.244  0.00  0.00     0.187 C 
ATOM     10  N   UNL d   1      19.857 -20.087   0.873  0.00  0.00    -0.315 N 
ATOM     11  C   UNL d   1      18.496 -20.257   0.423  0.00  0.00     0.347 C 
ATOM     12  N   UNL d   1      18.588 -19.590  -0.843  0.00  0.00    -0.265 N 
ATOM     13  N   UNL d   1      19.854 -19.261  -1.248  0.00  0.00    -0.150 NA
ATOM     14  H   UNL d   1      17.747 -19.211  -1.270  0.00  0.00     0.187 HD
BRANCH  10  15
ATOM     15  C   UNL d   1      20.280 -20.109   2.275  0.00  0.00     0.129 C 
BRANCH  15  16
ATOM     16  C   UNL d   1      19.208 -20.669   3.217  0.00  0.00     0.015 C 
ATOM     17  C   UNL d   1      19.688 -20.757   4.659  0.00  0.00     0.006 C 
ENDBRANCH  15  16
ENDBRANCH  10  15
BRANCH  11  18
ATOM     18  O   UNL d   1      18.304 -21.629   0.230  0.00  0.00    -0.358 OA
ATOM     19  H   UNL d   1      17.762 -21.908   0.987  0.00  0.00     0.214 HD
ENDBRANCH  11  18
ENDBRANCH   8   9
ENDBRANCH   7   8
ENDBRANCH   4   7
ENDBRANCH   2   3
ENDBRANCH   1   2
BRANCH   1  20
ATOM     20  C   UNL d   1      26.835 -14.919  -3.537  0.00  0.00    -0.040 A 
ATOM     21  C   UNL d   1      27.774 -14.944  -4.503  0.00  0.00    -0.005 A 
ATOM     22  C   UNL d   1      28.918 -15.722  -4.828  0.00  0.00     0.014 C 
ATOM     23  C   UNL d   1      27.445 -13.835  -5.430  0.00  0.00     0.038 A 
ATOM     24  C   UNL d   1      29.568 -15.569  -5.979  0.00  0.00     0.001 C 
ATOM     25  C   UNL d   1      29.220 -14.521  -6.893  0.00  0.00     0.002 C 
ATOM     26  C   UNL d   1      28.225 -13.650  -6.653  0.00  0.00     0.030 C 
ATOM     27  N   UNL d   1      26.444 -13.147  -5.031  0.00  0.00    -0.385 N 
ATOM     28  C   UNL d   1      25.947 -13.740  -3.815  0.00  0.00     0.155 A 
ATOM     29  H   UNL d   1      26.052 -12.345  -5.506  0.00  0.00     0.160 HD
ENDBRANCH   1  20
BRANCH   1  30
ATOM     30  C   UNL d   1      26.855 -15.253  -0.899  0.00  0.00    -0.048 A 
ATOM     31  C   UNL d   1      26.474 -13.977  -0.440  0.00  0.00     0.011 A 
ATOM     32  C   UNL d   1      26.850 -13.418   0.768  0.00  0.00     0.037 A 
ATOM     33  C   UNL d   1      27.596 -14.156   1.639  0.00  0.00     0.068 A 
ATOM     34  C   UNL d   1      27.931 -15.460   1.295  0.00  0.00     0.037 A 
ATOM     35  C   UNL d   1      27.633 -15.973   0.019  0.00  0.00     0.011 A 
BRANCH  33  36
ATOM     36  O   UNL d   1      27.926 -13.472   2.763  0.00  0.00    -0.356 OA
ATOM     37  C   UNL d   1      27.588 -14.129   3.967  0.00  0.00     0.210 C 
ENDBRANCH  33  36
ENDBRANCH   1  30
TORSDOF 11
ENDMDL
MODEL 5
REMARK VINA RESULT:   -29.774      2.069      4.860
REMARK INTER + INTRA:         -34.319
REMARK INTER:                 -33.056
REMARK INTRA:                  -1.263
REMARK CONF_INDEPENDENT:        3.281
REMARK UNBOUND:                -1.263
REMARK  11 active torsions:
REMARK  status: ('A' for Active; 'I' for Inactive)
REMARK    1  A    between atoms: C_2  and  C_3 
REMARK    2  A    between atoms: C_3  and  N_4 
REMARK    3  A    between atoms: C_5  and  S_6 
REMARK    4  A    between atoms: S_6  and  C_7 
REMARK    5  A    between atoms: C_7  and  C_8 
REMARK       I    between atoms: C_8  and  N_10 
REMARK    6  A    between atoms: N_10  and  C_11 
REMARK    7  A    between atoms: C_11  and  C_12 
REMARK    8  A    between atoms: C_12  and  C_13 
REMARK    9  A    between atoms: C_12  and  C_22 
REMARK   10  A    between atoms: C_25  and  O_26 
REMARK   11  A    between atoms: C_32  and  O_33 
ROOT
ATOM      1  C   UNL d   1      26.837 -15.565  -0.202  0.00  0.00     0.068 C 
ENDROOT
BRANCH   1   2
ATOM      2  C   UNL d   1      25.251 -15.604  -0.267  0.00  0.00     0.136 C 
BRANCH   2   3
ATOM      3  N   UNL d   1      24.672 -16.937  -0.491  0.00  0.00    -0.359 N 
ATOM      4  C   UNL d   1      23.376 -17.152  -0.965  0.00  0.00     0.227 C 
ATOM      5  O   UNL d   1      22.597 -16.204  -1.020  0.00  0.00    -0.273 OA
ATOM      6  H   UNL d   1      25.183 -17.685  -0.045  0.00  0.00     0.162 HD
BRANCH   4   7
ATOM      7  C   UNL d   1      23.004 -18.595  -1.509  0.00  0.00     0.185 C 
BRANCH   7   8
ATOM      8  S   UNL d   1      22.363 -19.656  -0.145  0.00  0.00    -0.081 SA
BRANCH   8   9
ATOM      9  C   UNL d   1      20.637 -19.647  -0.227  0.00  0.00     0.187 C 
ATOM     10  N   UNL d   1      19.861 -20.099   0.897  0.00  0.00    -0.315 N 
ATOM     11  C   UNL d   1      18.496 -20.230   0.446  0.00  0.00     0.347 C 
ATOM     12  N   UNL d   1      18.615 -19.590  -0.832  0.00  0.00    -0.265 N 
ATOM     13  N   UNL d   1      19.893 -19.312  -1.239  0.00  0.00    -0.150 NA
ATOM     14  H   UNL d   1      17.788 -19.189  -1.268  0.00  0.00     0.187 HD
BRANCH  10  15
ATOM     15  C   UNL d   1      20.280 -20.110   2.301  0.00  0.00     0.129 C 
BRANCH  15  16
ATOM     16  C   UNL d   1      19.151 -20.505   3.260  0.00  0.00     0.015 C 
ATOM     17  C   UNL d   1      19.661 -20.819   4.661  0.00  0.00     0.006 C 
ENDBRANCH  15  16
ENDBRANCH  10  15
BRANCH  11  18
ATOM     18  O   UNL d   1      18.257 -21.597   0.277  0.00  0.00    -0.358 OA
ATOM     19  H   UNL d   1      19.025 -22.031   0.685  0.00  0.00     0.214 HD
ENDBRANCH  11  18
ENDBRANCH   8   9
ENDBRANCH   7   8
ENDBRANCH   4   7
ENDBRANCH   2   3
ENDBRANCH   1   2
BRANCH   1  20
ATOM     20  C   UNL d   1      27.466 -15.610  -1.620  0.00  0.00    -0.040 A 
ATOM     21  C   UNL d   1      27.054 -15.131  -2.810  0.00  0.00    -0.005 A 
ATOM     22  C   UNL d   1      25.913 -14.461  -3.328  0.00  0.00     0.014 C 
ATOM     23  C   UNL d   1      28.144 -15.419  -3.773  0.00  0.00     0.038 A 
ATOM     24  C   UNL d   1      25.884 -13.978  -4.568  0.00  0.00     0.001 C 
ATOM     25  C   UNL d   1      26.959 -14.224  -5.484  0.00  0.00     0.002 C 
ATOM     26  C   UNL d   1      28.049 -14.934  -5.149  0.00  0.00     0.030 C 
ATOM     27  N   UNL d   1      29.101 -16.079  -3.242  0.00  0.00    -0.385 N 
ATOM     28  C   UNL d   1      28.796 -16.271  -1.847  0.00  0.00     0.155 A 
ATOM     29  H   UNL d   1      29.941 -16.385  -3.715  0.00  0.00     0.160 HD
ENDBRANCH   1  20
BRANCH   1  30
ATOM     30  C   UNL d   1      27.330 -14.427   0.758  0.00  0.00    -0.048 A 
ATOM     31  C   UNL d   1      28.644 -14.262   1.238  0.00  0.00     0.011 A 
ATOM     32  C   UNL d   1      29.037 -13.334   2.186  0.00  0.00     0.037 A 
ATOM     33  C   UNL d   1      28.120 -12.448   2.668  0.00  0.00     0.068 A 
ATOM     34  C   UNL d   1      26.823 -12.488   2.170  0.00  0.00     0.037 A 
ATOM     35  C   UNL d   1      26.416 -13.506   1.289  0.00  0.00     0.011 A 
BRANCH  33  36
ATOM     36  O   UNL d   1      28.631 -11.623   3.617  0.00  0.00    -0.356 OA
ATOM     37  C   UNL d   1      29.925 -11.976   4.062  0.00  0.00     0.210 C 
ENDBRANCH  33  36
ENDBRANCH   1  30
TORSDOF 11
ENDMDL
MODEL 6
REMARK VINA RESULT:   -29.527      1.262      2.166
REMARK INTER + INTRA:         -34.277
REMARK INTER:                 -32.808
REMARK INTRA:                  -1.469
REMARK CONF_INDEPENDENT:        3.281
REMARK UNBOUND:                -1.469
REMARK  11 active torsions:
REMARK  status: ('A' for Active; 'I' for Inactive)
REMARK    1  A    between atoms: C_2  and  C_3 
REMARK    2  A    between atoms: C_3  and  N_4 
REMARK    3  A    between atoms: C_5  and  S_6 
REMARK    4  A    between atoms: S_6  and  C_7 
REMARK    5  A    between atoms: C_7  and  C_8 
REMARK       I    between atoms: C_8  and  N_10 
REMARK    6  A    between atoms: N_10  and  C_11 
REMARK    7  A    between atoms: C_11  and  C_12 
REMARK    8  A    between atoms: C_12  and  C_13 
REMARK    9  A    between atoms: C_12  and  C_22 
REMARK   10  A    between atoms: C_25  and  O_26 
REMARK   11  A    between atoms: C_32  and  O_33 
ROOT
ATOM      1  C   UNL d   1      26.374 -15.433  -0.196  0.00  0.00     0.068 C 
ENDROOT
BRANCH   1   2
ATOM      2  C   UNL d   1      26.326 -17.018  -0.110  0.00  0.00     0.136 C 
BRANCH   2   3
ATOM      3  N   UNL d   1      24.978 -17.602  -0.180  0.00  0.00    -0.359 N 
ATOM      4  C   UNL d   1      24.306 -17.866  -1.376  0.00  0.00     0.227 C 
ATOM      5  O   UNL d   1      24.762 -17.420  -2.426  0.00  0.00    -0.273 OA
ATOM      6  H   UNL d   1      24.472 -17.567   0.693  0.00  0.00     0.162 HD
BRANCH   4   7
ATOM      7  C   UNL d   1      23.040 -18.821  -1.331  0.00  0.00     0.185 C 
BRANCH   7   8
ATOM      8  S   UNL d   1      22.245 -18.765   0.330  0.00  0.00    -0.081 SA
BRANCH   8   9
ATOM      9  C   UNL d   1      20.604 -19.274   0.155  0.00  0.00     0.187 C 
ATOM     10  N   UNL d   1      19.931 -19.924   1.249  0.00  0.00    -0.315 N 
ATOM     11  C   UNL d   1      18.698 -20.463   0.729  0.00  0.00     0.347 C 
ATOM     12  N   UNL d   1      18.697 -19.833  -0.559  0.00  0.00    -0.265 N 
ATOM     13  N   UNL d   1      19.856 -19.190  -0.905  0.00  0.00    -0.150 NA
ATOM     14  H   UNL d   1      17.816 -19.704  -1.051  0.00  0.00     0.187 HD
BRANCH  10  15
ATOM     15  C   UNL d   1      20.249 -19.791   2.673  0.00  0.00     0.129 C 
BRANCH  15  16
ATOM     16  C   UNL d   1      19.530 -20.825   3.546  0.00  0.00     0.015 C 
ATOM     17  C   UNL d   1      19.542 -20.450   5.022  0.00  0.00     0.006 C 
ENDBRANCH  15  16
ENDBRANCH  10  15
BRANCH  11  18
ATOM     18  O   UNL d   1      18.888 -21.841   0.589  0.00  0.00    -0.358 OA
ATOM     19  H   UNL d   1      19.845 -21.967   0.700  0.00  0.00     0.214 HD
ENDBRANCH  11  18
ENDBRANCH   8   9
ENDBRANCH   7   8
ENDBRANCH   4   7
ENDBRANCH   2   3
ENDBRANCH   1   2
BRANCH   1  20
ATOM     20  C   UNL d   1      27.457 -14.845   0.748  0.00  0.00    -0.040 A 
ATOM     21  C   UNL d   1      28.783 -15.061   0.852  0.00  0.00    -0.005 A 
ATOM     22  C   UNL d   1      29.754 -15.905   0.249  0.00  0.00     0.014 C 
ATOM     23  C   UNL d   1      29.276 -14.125   1.891  0.00  0.00     0.038 A 
ATOM     24  C   UNL d   1      31.056 -15.759   0.484  0.00  0.00     0.001 C 
ATOM     25  C   UNL d   1      31.532 -14.824   1.460  0.00  0.00     0.002 C 
ATOM     26  C   UNL d   1      30.708 -14.040   2.176  0.00  0.00     0.030 C 
ATOM     27  N   UNL d   1      28.332 -13.452   2.427  0.00  0.00    -0.385 N 
ATOM     28  C   UNL d   1      27.096 -13.815   1.780  0.00  0.00     0.155 A 
ATOM     29  H   UNL d   1      28.440 -12.760   3.157  0.00  0.00     0.160 HD
ENDBRANCH   1  20
BRANCH   1  30
ATOM     30  C   UNL d   1      26.396 -14.953  -1.688  0.00  0.00    -0.048 A 
ATOM     31  C   UNL d   1      27.545 -14.774  -2.482  0.00  0.00     0.011 A 
ATOM     32  C   UNL d   1      27.561 -14.225  -3.752  0.00  0.00     0.037 A 
ATOM     33  C   UNL d   1      26.381 -13.878  -4.341  0.00  0.00     0.068 A 
ATOM     34  C   UNL d   1      25.195 -14.113  -3.654  0.00  0.00     0.037 A 
ATOM     35  C   UNL d   1      25.206 -14.570  -2.324  0.00  0.00     0.011 A 
BRANCH  33  36
ATOM     36  O   UNL d   1      26.547 -13.317  -5.566  0.00  0.00    -0.356 OA
ATOM     37  C   UNL d   1      26.956 -11.966  -5.538  0.00  0.00     0.210 C 
ENDBRANCH  33  36
ENDBRANCH   1  30
TORSDOF 11
ENDMDL
MODEL 7
REMARK VINA RESULT:   -28.404      2.598      3.337
REMARK INTER + INTRA:         -32.943
REMARK INTER:                 -31.685
REMARK INTRA:                  -1.257
REMARK CONF_INDEPENDENT:        3.281
REMARK UNBOUND:                -1.257
REMARK  11 active torsions:
REMARK  status: ('A' for Active; 'I' for Inactive)
REMARK    1  A    between atoms: C_2  and  C_3 
REMARK    2  A    between atoms: C_3  and  N_4 
REMARK    3  A    between atoms: C_5  and  S_6 
REMARK    4  A    between atoms: S_6  and  C_7 
REMARK    5  A    between atoms: C_7  and  C_8 
REMARK       I    between atoms: C_8  and  N_10 
REMARK    6  A    between atoms: N_10  and  C_11 
REMARK    7  A    between atoms: C_11  and  C_12 
REMARK    8  A    between atoms: C_12  and  C_13 
REMARK    9  A    between atoms: C_12  and  C_22 
REMARK   10  A    between atoms: C_25  and  O_26 
REMARK   11  A    between atoms: C_32  and  O_33 
ROOT
ATOM      1  C   UNL d   1      26.243 -15.174  -2.186  0.00  0.00     0.068 C 
ENDROOT
BRANCH   1   2
ATOM      2  C   UNL d   1      25.444 -16.215  -3.079  0.00  0.00     0.136 C 
BRANCH   2   3
ATOM      3  N   UNL d   1      24.914 -17.378  -2.352  0.00  0.00    -0.359 N 
ATOM      4  C   UNL d   1      23.863 -17.309  -1.435  0.00  0.00     0.227 C 
ATOM      5  O   UNL d   1      23.474 -16.206  -1.057  0.00  0.00    -0.273 OA
ATOM      6  H   UNL d   1      25.523 -18.184  -2.370  0.00  0.00     0.162 HD
BRANCH   4   7
ATOM      7  C   UNL d   1      23.150 -18.659  -1.005  0.00  0.00     0.185 C 
BRANCH   7   8
ATOM      8  S   UNL d   1      22.127 -18.398   0.505  0.00  0.00    -0.081 SA
BRANCH   8   9
ATOM      9  C   UNL d   1      20.569 -19.089   0.222  0.00  0.00     0.187 C 
ATOM     10  N   UNL d   1      19.884 -19.780   1.282  0.00  0.00    -0.315 N 
ATOM     11  C   UNL d   1      18.761 -20.464   0.686  0.00  0.00     0.347 C 
ATOM     12  N   UNL d   1      18.796 -19.870  -0.618  0.00  0.00    -0.265 N 
ATOM     13  N   UNL d   1      19.903 -19.113  -0.895  0.00  0.00    -0.150 NA
ATOM     14  H   UNL d   1      17.949 -19.851  -1.181  0.00  0.00     0.187 HD
BRANCH  10  15
ATOM     15  C   UNL d   1      20.071 -19.579   2.720  0.00  0.00     0.129 C 
BRANCH  15  16
ATOM     16  C   UNL d   1      19.727 -20.821   3.550  0.00  0.00     0.015 C 
ATOM     17  C   UNL d   1      19.502 -20.496   5.020  0.00  0.00     0.006 C 
ENDBRANCH  15  16
ENDBRANCH  10  15
BRANCH  11  18
ATOM     18  O   UNL d   1      19.109 -21.817   0.608  0.00  0.00    -0.358 OA
ATOM     19  H   UNL d   1      18.360 -22.234   0.152  0.00  0.00     0.214 HD
ENDBRANCH  11  18
ENDBRANCH   8   9
ENDBRANCH   7   8
ENDBRANCH   4   7
ENDBRANCH   2   3
ENDBRANCH   1   2
BRANCH   1  20
ATOM     20  C   UNL d   1      27.574 -15.776  -1.663  0.00  0.00    -0.040 A 
ATOM     21  C   UNL d   1      28.864 -15.482  -1.918  0.00  0.00    -0.005 A 
ATOM     22  C   UNL d   1      29.586 -14.598  -2.765  0.00  0.00     0.014 C 
ATOM     23  C   UNL d   1      29.672 -16.358  -1.036  0.00  0.00     0.038 A 
ATOM     24  C   UNL d   1      30.905 -14.447  -2.662  0.00  0.00     0.001 C 
ATOM     25  C   UNL d   1      31.678 -15.268  -1.777  0.00  0.00     0.002 C 
ATOM     26  C   UNL d   1      31.127 -16.215  -0.999  0.00  0.00     0.030 C 
ATOM     27  N   UNL d   1      28.950 -17.165  -0.358  0.00  0.00    -0.385 N 
ATOM     28  C   UNL d   1      27.567 -16.897  -0.663  0.00  0.00     0.155 A 
ATOM     29  H   UNL d   1      29.291 -17.851   0.303  0.00  0.00     0.160 HD
ENDBRANCH   1  20
BRANCH   1  30
ATOM     30  C   UNL d   1      26.326 -13.777  -2.893  0.00  0.00    -0.048 A 
ATOM     31  C   UNL d   1      25.700 -13.424  -4.105  0.00  0.00     0.011 A 
ATOM     32  C   UNL d   1      25.887 -12.233  -4.784  0.00  0.00     0.037 A 
ATOM     33  C   UNL d   1      26.683 -11.273  -4.233  0.00  0.00     0.068 A 
ATOM     34  C   UNL d   1      27.260 -11.512  -2.992  0.00  0.00     0.037 A 
ATOM     35  C   UNL d   1      27.147 -12.768  -2.369  0.00  0.00     0.011 A 
BRANCH  33  36
ATOM     36  O   UNL d   1      26.809 -10.176  -5.022  0.00  0.00    -0.356 OA
ATOM     37  C   UNL d   1      25.620  -9.788  -5.678  0.00  0.00     0.210 C 
ENDBRANCH  33  36
ENDBRANCH   1  30
TORSDOF 11
ENDMDL
