MODEL 1
REMARK VINA RESULT:    -8.812      0.000      0.000
REMARK INTER + INTRA:         -11.201
REMARK INTER:                 -10.602
REMARK INTRA:                  -0.599
REMARK CONF_INDEPENDENT:        1.790
REMARK UNBOUND:                -0.599
REMARK  6 active torsions:
REMARK  status: ('A' for Active; 'I' for Inactive)
REMARK    1  A    between atoms: C_2  and  C_4 
REMARK       I    between atoms: C_4  and  N_6 
REMARK    2  A    between atoms: N_6  and  C_7 
REMARK    3  A    between atoms: C_11  and  C_12 
REMARK    4  A    between atoms: C_12  and  N_13 
REMARK       I    between atoms: N_13  and  C_14 
REMARK    5  A    between atoms: C_14  and  C_16 
REMARK    6  A    between atoms: C_20  and  N_21 
ROOT
ATOM      1  C   UNL d   1      27.448 -17.015   0.506  0.00  0.00     0.161 C 
ENDROOT
BRANCH   1   2
ATOM      2  C   UNL d   1      26.106 -17.078  -0.192  0.00  0.00    -0.038 A 
ATOM      3  C   UNL d   1      25.858 -16.280  -1.318  0.00  0.00     0.009 A 
ATOM      4  C   UNL d   1      24.649 -16.396  -2.019  0.00  0.00     0.003 A 
ATOM      5  C   UNL d   1      23.650 -17.272  -1.578  0.00  0.00     0.029 A 
ATOM      6  C   UNL d   1      23.862 -18.039  -0.440  0.00  0.00     0.035 A 
ATOM      7  C   UNL d   1      25.080 -17.936   0.230  0.00  0.00     0.038 A 
BRANCH   6   8
ATOM      8  N   UNL d   1      22.883 -18.943   0.026  0.00  0.00    -0.327 N 
ATOM      9  C   UNL d   1      21.533 -18.774  -0.262  0.00  0.00     0.225 C 
ATOM     10  O   UNL d   1      21.087 -17.821  -0.902  0.00  0.00    -0.273 OA
ATOM     11  H   UNL d   1      23.208 -19.824   0.400  0.00  0.00     0.169 HD
BRANCH   9  12
ATOM     12  C   UNL d   1      20.600 -19.868   0.263  0.00  0.00     0.070 C 
ATOM     13  C   UNL d   1      20.293 -19.600   1.743  0.00  0.00     0.019 C 
ATOM     14  C   UNL d   1      19.287 -19.925  -0.510  0.00  0.00     0.019 C 
ENDBRANCH   9  12
ENDBRANCH   6   8
ENDBRANCH   1   2
BRANCH   1  15
ATOM     15  N   UNL d   1      27.610 -15.870   1.388  0.00  0.00    -0.353 N 
ATOM     16  C   UNL d   1      27.631 -14.582   0.937  0.00  0.00     0.252 C 
ATOM     17  O   UNL d   1      27.551 -14.267  -0.248  0.00  0.00    -0.268 OA
ATOM     18  H   UNL d   1      27.540 -15.997   2.383  0.00  0.00     0.163 HD
BRANCH  16  19
ATOM     19  C   UNL d   1      27.754 -13.531   1.986  0.00  0.00     0.034 A 
ATOM     20  C   UNL d   1      28.430 -13.848   3.169  0.00  0.00     0.017 A 
ATOM     21  C   UNL d   1      28.417 -12.965   4.252  0.00  0.00     0.003 A 
ATOM     22  C   UNL d   1      27.783 -11.728   4.138  0.00  0.00     0.036 A 
ATOM     23  C   UNL d   1      27.128 -11.397   2.943  0.00  0.00     0.103 A 
ATOM     24  C   UNL d   1      27.111 -12.291   1.859  0.00  0.00     0.053 A 
BRANCH  23  25
ATOM     25  N   UNL d   1      26.389 -10.129   2.853  0.00  0.00    -0.116 N 
ATOM     26  O   UNL d   1      26.038  -9.743   1.728  0.00  0.00    -0.532 OA
ATOM     27  O   UNL d   1      26.169  -9.518   3.907  0.00  0.00    -0.532 OA
ENDBRANCH  23  25
ENDBRANCH  16  19
ENDBRANCH   1  15
TORSDOF 6
ENDMDL
MODEL 2
REMARK VINA RESULT:    -8.755      4.535      6.671
REMARK INTER + INTRA:         -11.244
REMARK INTER:                 -10.545
REMARK INTRA:                  -0.699
REMARK CONF_INDEPENDENT:        1.790
REMARK UNBOUND:                -0.699
REMARK  6 active torsions:
REMARK  status: ('A' for Active; 'I' for Inactive)
REMARK    1  A    between atoms: C_2  and  C_4 
REMARK       I    between atoms: C_4  and  N_6 
REMARK    2  A    between atoms: N_6  and  C_7 
REMARK    3  A    between atoms: C_11  and  C_12 
REMARK    4  A    between atoms: C_12  and  N_13 
REMARK       I    between atoms: N_13  and  C_14 
REMARK    5  A    between atoms: C_14  and  C_16 
REMARK    6  A    between atoms: C_20  and  N_21 
ROOT
ATOM      1  C   UNL d   1      24.760 -15.165  -2.117  0.00  0.00     0.161 C 
ENDROOT
BRANCH   1   2
ATOM      2  C   UNL d   1      24.758 -16.381  -1.215  0.00  0.00    -0.038 A 
ATOM      3  C   UNL d   1      25.960 -16.860  -0.675  0.00  0.00     0.009 A 
ATOM      4  C   UNL d   1      25.955 -17.933   0.229  0.00  0.00     0.003 A 
ATOM      5  C   UNL d   1      24.758 -18.575   0.567  0.00  0.00     0.029 A 
ATOM      6  C   UNL d   1      23.564 -18.139   0.008  0.00  0.00     0.035 A 
ATOM      7  C   UNL d   1      23.579 -17.053  -0.865  0.00  0.00     0.038 A 
BRANCH   6   8
ATOM      8  N   UNL d   1      22.335 -18.754   0.337  0.00  0.00    -0.327 N 
ATOM      9  C   UNL d   1      21.519 -19.325  -0.633  0.00  0.00     0.225 C 
ATOM     10  O   UNL d   1      21.776 -19.308  -1.837  0.00  0.00    -0.273 OA
ATOM     11  H   UNL d   1      22.163 -18.949   1.314  0.00  0.00     0.169 HD
BRANCH   9  12
ATOM     12  C   UNL d   1      20.248 -20.004  -0.115  0.00  0.00     0.070 C 
ATOM     13  C   UNL d   1      20.071 -19.672   1.374  0.00  0.00     0.019 C 
ATOM     14  C   UNL d   1      19.004 -19.552  -0.872  0.00  0.00     0.019 C 
ENDBRANCH   9  12
ENDBRANCH   6   8
ENDBRANCH   1   2
BRANCH   1  15
ATOM     15  N   UNL d   1      25.911 -15.080  -3.003  0.00  0.00    -0.353 N 
ATOM     16  C   UNL d   1      25.852 -14.524  -4.248  0.00  0.00     0.252 C 
ATOM     17  O   UNL d   1      24.824 -14.076  -4.753  0.00  0.00    -0.268 OA
ATOM     18  H   UNL d   1      26.828 -15.282  -2.644  0.00  0.00     0.163 HD
BRANCH  16  19
ATOM     19  C   UNL d   1      27.138 -14.475  -4.998  0.00  0.00     0.034 A 
ATOM     20  C   UNL d   1      27.406 -13.351  -5.786  0.00  0.00     0.017 A 
ATOM     21  C   UNL d   1      28.506 -13.334  -6.647  0.00  0.00     0.003 A 
ATOM     22  C   UNL d   1      29.386 -14.415  -6.678  0.00  0.00     0.036 A 
ATOM     23  C   UNL d   1      29.134 -15.532  -5.869  0.00  0.00     0.103 A 
ATOM     24  C   UNL d   1      28.014 -15.570  -5.021  0.00  0.00     0.053 A 
BRANCH  23  25
ATOM     25  N   UNL d   1      30.014 -16.706  -5.965  0.00  0.00    -0.116 N 
ATOM     26  O   UNL d   1      30.283 -17.315  -4.919  0.00  0.00    -0.532 OA
ATOM     27  O   UNL d   1      30.442 -17.011  -7.086  0.00  0.00    -0.532 OA
ENDBRANCH  23  25
ENDBRANCH  16  19
ENDBRANCH   1  15
TORSDOF 6
ENDMDL
MODEL 3
REMARK VINA RESULT:    -8.249      4.199      5.649
REMARK INTER + INTRA:         -10.609
REMARK INTER:                 -10.039
REMARK INTRA:                  -0.570
REMARK CONF_INDEPENDENT:        1.790
REMARK UNBOUND:                -0.570
REMARK  6 active torsions:
REMARK  status: ('A' for Active; 'I' for Inactive)
REMARK    1  A    between atoms: C_2  and  C_4 
REMARK       I    between atoms: C_4  and  N_6 
REMARK    2  A    between atoms: N_6  and  C_7 
REMARK    3  A    between atoms: C_11  and  C_12 
REMARK    4  A    between atoms: C_12  and  N_13 
REMARK       I    between atoms: N_13  and  C_14 
REMARK    5  A    between atoms: C_14  and  C_16 
REMARK    6  A    between atoms: C_20  and  N_21 
ROOT
ATOM      1  C   UNL d   1      24.401 -14.922  -2.428  0.00  0.00     0.161 C 
ENDROOT
BRANCH   1   2
ATOM      2  C   UNL d   1      24.667 -16.130  -1.555  0.00  0.00    -0.038 A 
ATOM      3  C   UNL d   1      25.948 -16.354  -1.031  0.00  0.00     0.009 A 
ATOM      4  C   UNL d   1      26.180 -17.422  -0.153  0.00  0.00     0.003 A 
ATOM      5  C   UNL d   1      25.151 -18.312   0.175  0.00  0.00     0.029 A 
ATOM      6  C   UNL d   1      23.886 -18.129  -0.368  0.00  0.00     0.035 A 
ATOM      7  C   UNL d   1      23.661 -17.045  -1.215  0.00  0.00     0.038 A 
BRANCH   6   8
ATOM      8  N   UNL d   1      22.820 -18.999  -0.049  0.00  0.00    -0.327 N 
ATOM      9  C   UNL d   1      21.501 -18.688  -0.363  0.00  0.00     0.225 C 
ATOM     10  O   UNL d   1      21.159 -17.634  -0.900  0.00  0.00    -0.273 OA
ATOM     11  H   UNL d   1      23.059 -19.940   0.229  0.00  0.00     0.169 HD
BRANCH   9  12
ATOM     12  C   UNL d   1      20.464 -19.756  -0.005  0.00  0.00     0.070 C 
ATOM     13  C   UNL d   1      20.166 -19.683   1.499  0.00  0.00     0.019 C 
ATOM     14  C   UNL d   1      19.161 -19.574  -0.775  0.00  0.00     0.019 C 
ENDBRANCH   9  12
ENDBRANCH   6   8
ENDBRANCH   1   2
BRANCH   1  15
ATOM     15  N   UNL d   1      25.573 -14.424  -3.131  0.00  0.00    -0.353 N 
ATOM     16  C   UNL d   1      25.916 -14.833  -4.388  0.00  0.00     0.252 C 
ATOM     17  O   UNL d   1      25.295 -15.678  -5.029  0.00  0.00    -0.268 OA
ATOM     18  H   UNL d   1      26.070 -13.630  -2.766  0.00  0.00     0.163 HD
BRANCH  16  19
ATOM     19  C   UNL d   1      27.119 -14.180  -4.976  0.00  0.00     0.034 A 
ATOM     20  C   UNL d   1      27.979 -14.956  -5.761  0.00  0.00     0.017 A 
ATOM     21  C   UNL d   1      29.209 -14.445  -6.183  0.00  0.00     0.003 A 
ATOM     22  C   UNL d   1      29.561 -13.130  -5.880  0.00  0.00     0.036 A 
ATOM     23  C   UNL d   1      28.688 -12.342  -5.115  0.00  0.00     0.103 A 
ATOM     24  C   UNL d   1      27.462 -12.857  -4.662  0.00  0.00     0.053 A 
BRANCH  23  25
ATOM     25  N   UNL d   1      29.097 -10.985  -4.724  0.00  0.00    -0.116 N 
ATOM     26  O   UNL d   1      29.357 -10.781  -3.529  0.00  0.00    -0.532 OA
ATOM     27  O   UNL d   1      29.148 -10.124  -5.612  0.00  0.00    -0.532 OA
ENDBRANCH  23  25
ENDBRANCH  16  19
ENDBRANCH   1  15
TORSDOF 6
ENDMDL
MODEL 4
REMARK VINA RESULT:    -8.170      4.894      6.449
REMARK INTER + INTRA:         -10.737
REMARK INTER:                  -9.960
REMARK INTRA:                  -0.776
REMARK CONF_INDEPENDENT:        1.790
REMARK UNBOUND:                -0.776
REMARK  6 active torsions:
REMARK  status: ('A' for Active; 'I' for Inactive)
REMARK    1  A    between atoms: C_2  and  C_4 
REMARK       I    between atoms: C_4  and  N_6 
REMARK    2  A    between atoms: N_6  and  C_7 
REMARK    3  A    between atoms: C_11  and  C_12 
REMARK    4  A    between atoms: C_12  and  N_13 
REMARK       I    between atoms: N_13  and  C_14 
REMARK    5  A    between atoms: C_14  and  C_16 
REMARK    6  A    between atoms: C_20  and  N_21 
ROOT
ATOM      1  C   UNL d   1      24.829 -15.210  -2.486  0.00  0.00     0.161 C 
ENDROOT
BRANCH   1   2
ATOM      2  C   UNL d   1      24.677 -16.381  -1.538  0.00  0.00    -0.038 A 
ATOM      3  C   UNL d   1      25.810 -17.073  -1.085  0.00  0.00     0.009 A 
ATOM      4  C   UNL d   1      25.683 -18.103  -0.141  0.00  0.00     0.003 A 
ATOM      5  C   UNL d   1      24.422 -18.491   0.326  0.00  0.00     0.029 A 
ATOM      6  C   UNL d   1      23.286 -17.844  -0.145  0.00  0.00     0.035 A 
ATOM      7  C   UNL d   1      23.429 -16.802  -1.059  0.00  0.00     0.038 A 
BRANCH   6   8
ATOM      8  N   UNL d   1      21.999 -18.199   0.315  0.00  0.00    -0.327 N 
ATOM      9  C   UNL d   1      21.124 -18.949  -0.463  0.00  0.00     0.225 C 
ATOM     10  O   UNL d   1      21.381 -19.325  -1.608  0.00  0.00    -0.273 OA
ATOM     11  H   UNL d   1      21.807 -18.069   1.299  0.00  0.00     0.169 HD
BRANCH   9  12
ATOM     12  C   UNL d   1      19.788 -19.303   0.194  0.00  0.00     0.070 C 
ATOM     13  C   UNL d   1      18.783 -19.707  -0.894  0.00  0.00     0.019 C 
ATOM     14  C   UNL d   1      19.922 -20.450   1.191  0.00  0.00     0.019 C 
ENDBRANCH   9  12
ENDBRANCH   6   8
ENDBRANCH   1   2
BRANCH   1  15
ATOM     15  N   UNL d   1      26.137 -15.116  -3.114  0.00  0.00    -0.353 N 
ATOM     16  C   UNL d   1      26.321 -15.197  -4.464  0.00  0.00     0.252 C 
ATOM     17  O   UNL d   1      25.414 -15.390  -5.271  0.00  0.00    -0.268 OA
ATOM     18  H   UNL d   1      26.928 -14.817  -2.570  0.00  0.00     0.163 HD
BRANCH  16  19
ATOM     19  C   UNL d   1      27.724 -15.029  -4.938  0.00  0.00     0.034 A 
ATOM     20  C   UNL d   1      28.763 -15.458  -4.105  0.00  0.00     0.017 A 
ATOM     21  C   UNL d   1      30.092 -15.161  -4.419  0.00  0.00     0.003 A 
ATOM     22  C   UNL d   1      30.397 -14.489  -5.602  0.00  0.00     0.036 A 
ATOM     23  C   UNL d   1      29.358 -14.081  -6.451  0.00  0.00     0.103 A 
ATOM     24  C   UNL d   1      28.017 -14.350  -6.130  0.00  0.00     0.053 A 
BRANCH  23  25
ATOM     25  N   UNL d   1      29.676 -13.299  -7.654  0.00  0.00    -0.116 N 
ATOM     26  O   UNL d   1      30.827 -13.379  -8.109  0.00  0.00    -0.532 OA
ATOM     27  O   UNL d   1      28.776 -12.599  -8.137  0.00  0.00    -0.532 OA
ENDBRANCH  23  25
ENDBRANCH  16  19
ENDBRANCH   1  15
TORSDOF 6
ENDMDL
MODEL 5
REMARK VINA RESULT:    -8.120      4.311      5.507
REMARK INTER + INTRA:         -10.635
REMARK INTER:                  -9.910
REMARK INTRA:                  -0.724
REMARK CONF_INDEPENDENT:        1.790
REMARK UNBOUND:                -0.724
REMARK  6 active torsions:
REMARK  status: ('A' for Active; 'I' for Inactive)
REMARK    1  A    between atoms: C_2  and  C_4 
REMARK       I    between atoms: C_4  and  N_6 
REMARK    2  A    between atoms: N_6  and  C_7 
REMARK    3  A    between atoms: C_11  and  C_12 
REMARK    4  A    between atoms: C_12  and  N_13 
REMARK       I    between atoms: N_13  and  C_14 
REMARK    5  A    between atoms: C_14  and  C_16 
REMARK    6  A    between atoms: C_20  and  N_21 
ROOT
ATOM      1  C   UNL d   1      26.482 -17.709  -0.172  0.00  0.00     0.161 C 
ENDROOT
BRANCH   1   2
ATOM      2  C   UNL d   1      25.008 -17.402  -0.335  0.00  0.00    -0.038 A 
ATOM      3  C   UNL d   1      24.599 -16.264  -1.045  0.00  0.00     0.009 A 
ATOM      4  C   UNL d   1      23.237 -16.020  -1.273  0.00  0.00     0.003 A 
ATOM      5  C   UNL d   1      22.262 -16.879  -0.752  0.00  0.00     0.029 A 
ATOM      6  C   UNL d   1      22.649 -17.987  -0.009  0.00  0.00     0.035 A 
ATOM      7  C   UNL d   1      24.006 -18.235   0.183  0.00  0.00     0.038 A 
BRANCH   6   8
ATOM      8  N   UNL d   1      21.693 -18.883   0.520  0.00  0.00    -0.327 N 
ATOM      9  C   UNL d   1      20.751 -19.510  -0.288  0.00  0.00     0.225 C 
ATOM     10  O   UNL d   1      20.649 -19.310  -1.499  0.00  0.00    -0.273 OA
ATOM     11  H   UNL d   1      21.843 -19.213   1.463  0.00  0.00     0.169 HD
BRANCH   9  12
ATOM     12  C   UNL d   1      19.820 -20.497   0.422  0.00  0.00     0.070 C 
ATOM     13  C   UNL d   1      19.755 -20.143   1.914  0.00  0.00     0.019 C 
ATOM     14  C   UNL d   1      18.408 -20.473  -0.153  0.00  0.00     0.019 C 
ENDBRANCH   9  12
ENDBRANCH   6   8
ENDBRANCH   1   2
BRANCH   1  15
ATOM     15  N   UNL d   1      27.315 -17.234  -1.266  0.00  0.00    -0.353 N 
ATOM     16  C   UNL d   1      28.578 -16.749  -1.082  0.00  0.00     0.252 C 
ATOM     17  O   UNL d   1      29.117 -16.633   0.017  0.00  0.00    -0.268 OA
ATOM     18  H   UNL d   1      27.036 -17.413  -2.215  0.00  0.00     0.163 HD
BRANCH  16  19
ATOM     19  C   UNL d   1      29.307 -16.354  -2.320  0.00  0.00     0.034 A 
ATOM     20  C   UNL d   1      30.683 -16.121  -2.234  0.00  0.00     0.017 A 
ATOM     21  C   UNL d   1      31.379 -15.576  -3.317  0.00  0.00     0.003 A 
ATOM     22  C   UNL d   1      30.716 -15.321  -4.517  0.00  0.00     0.036 A 
ATOM     23  C   UNL d   1      29.341 -15.580  -4.613  0.00  0.00     0.103 A 
ATOM     24  C   UNL d   1      28.627 -16.101  -3.520  0.00  0.00     0.053 A 
BRANCH  23  25
ATOM     25  N   UNL d   1      28.626 -15.232  -5.850  0.00  0.00    -0.116 N 
ATOM     26  O   UNL d   1      29.303 -14.984  -6.858  0.00  0.00    -0.532 OA
ATOM     27  O   UNL d   1      27.389 -15.200  -5.808  0.00  0.00    -0.532 OA
ENDBRANCH  23  25
ENDBRANCH  16  19
ENDBRANCH   1  15
TORSDOF 6
ENDMDL
MODEL 6
REMARK VINA RESULT:    -8.091      1.822      2.171
REMARK INTER + INTRA:         -10.662
REMARK INTER:                  -9.881
REMARK INTRA:                  -0.781
REMARK CONF_INDEPENDENT:        1.790
REMARK UNBOUND:                -0.781
REMARK  6 active torsions:
REMARK  status: ('A' for Active; 'I' for Inactive)
REMARK    1  A    between atoms: C_2  and  C_4 
REMARK       I    between atoms: C_4  and  N_6 
REMARK    2  A    between atoms: N_6  and  C_7 
REMARK    3  A    between atoms: C_11  and  C_12 
REMARK    4  A    between atoms: C_12  and  N_13 
REMARK       I    between atoms: N_13  and  C_14 
REMARK    5  A    between atoms: C_14  and  C_16 
REMARK    6  A    between atoms: C_20  and  N_21 
ROOT
ATOM      1  C   UNL d   1      26.704 -17.872   0.003  0.00  0.00     0.161 C 
ENDROOT
BRANCH   1   2
ATOM      2  C   UNL d   1      25.242 -17.547  -0.221  0.00  0.00    -0.038 A 
ATOM      3  C   UNL d   1      24.878 -16.430  -0.988  0.00  0.00     0.009 A 
ATOM      4  C   UNL d   1      23.529 -16.172  -1.270  0.00  0.00     0.003 A 
ATOM      5  C   UNL d   1      22.521 -16.994  -0.751  0.00  0.00     0.029 A 
ATOM      6  C   UNL d   1      22.863 -18.080   0.044  0.00  0.00     0.035 A 
ATOM      7  C   UNL d   1      24.209 -18.342   0.292  0.00  0.00     0.038 A 
BRANCH   6   8
ATOM      8  N   UNL d   1      21.875 -18.939   0.574  0.00  0.00    -0.327 N 
ATOM      9  C   UNL d   1      20.906 -19.526  -0.233  0.00  0.00     0.225 C 
ATOM     10  O   UNL d   1      20.810 -19.319  -1.443  0.00  0.00    -0.273 OA
ATOM     11  H   UNL d   1      22.013 -19.277   1.516  0.00  0.00     0.169 HD
BRANCH   9  12
ATOM     12  C   UNL d   1      19.940 -20.478   0.476  0.00  0.00     0.070 C 
ATOM     13  C   UNL d   1      19.831 -20.076   1.954  0.00  0.00     0.019 C 
ATOM     14  C   UNL d   1      18.547 -20.453  -0.145  0.00  0.00     0.019 C 
ENDBRANCH   9  12
ENDBRANCH   6   8
ENDBRANCH   1   2
BRANCH   1  15
ATOM     15  N   UNL d   1      27.402 -16.926   0.860  0.00  0.00    -0.353 N 
ATOM     16  C   UNL d   1      27.818 -15.699   0.429  0.00  0.00     0.252 C 
ATOM     17  O   UNL d   1      27.677 -15.290  -0.722  0.00  0.00    -0.268 OA
ATOM     18  H   UNL d   1      27.444 -17.093   1.850  0.00  0.00     0.163 HD
BRANCH  16  19
ATOM     19  C   UNL d   1      28.471 -14.840   1.456  0.00  0.00     0.034 A 
ATOM     20  C   UNL d   1      29.851 -14.627   1.363  0.00  0.00     0.017 A 
ATOM     21  C   UNL d   1      30.540 -13.983   2.395  0.00  0.00     0.003 A 
ATOM     22  C   UNL d   1      29.844 -13.489   3.498  0.00  0.00     0.036 A 
ATOM     23  C   UNL d   1      28.457 -13.678   3.579  0.00  0.00     0.103 A 
ATOM     24  C   UNL d   1      27.760 -14.350   2.560  0.00  0.00     0.053 A 
BRANCH  23  25
ATOM     25  N   UNL d   1      27.738 -13.232   4.781  0.00  0.00    -0.116 N 
ATOM     26  O   UNL d   1      27.088 -14.078   5.414  0.00  0.00    -0.532 OA
ATOM     27  O   UNL d   1      27.817 -12.034   5.085  0.00  0.00    -0.532 OA
ENDBRANCH  23  25
ENDBRANCH  16  19
ENDBRANCH   1  15
TORSDOF 6
ENDMDL
MODEL 7
REMARK VINA RESULT:    -7.445      3.993      6.231
REMARK INTER + INTRA:          -9.887
REMARK INTER:                  -9.235
REMARK INTRA:                  -0.652
REMARK CONF_INDEPENDENT:        1.790
REMARK UNBOUND:                -0.652
REMARK  6 active torsions:
REMARK  status: ('A' for Active; 'I' for Inactive)
REMARK    1  A    between atoms: C_2  and  C_4 
REMARK       I    between atoms: C_4  and  N_6 
REMARK    2  A    between atoms: N_6  and  C_7 
REMARK    3  A    between atoms: C_11  and  C_12 
REMARK    4  A    between atoms: C_12  and  N_13 
REMARK       I    between atoms: N_13  and  C_14 
REMARK    5  A    between atoms: C_14  and  C_16 
REMARK    6  A    between atoms: C_20  and  N_21 
ROOT
ATOM      1  C   UNL d   1      27.349 -17.465   0.614  0.00  0.00     0.161 C 
ENDROOT
BRANCH   1   2
ATOM      2  C   UNL d   1      26.038 -17.448  -0.142  0.00  0.00    -0.038 A 
ATOM      3  C   UNL d   1      25.888 -16.635  -1.275  0.00  0.00     0.009 A 
ATOM      4  C   UNL d   1      24.707 -16.679  -2.029  0.00  0.00     0.003 A 
ATOM      5  C   UNL d   1      23.640 -17.496  -1.638  0.00  0.00     0.029 A 
ATOM      6  C   UNL d   1      23.757 -18.277  -0.494  0.00  0.00     0.035 A 
ATOM      7  C   UNL d   1      24.947 -18.246   0.229  0.00  0.00     0.038 A 
BRANCH   6   8
ATOM      8  N   UNL d   1      22.706 -19.124  -0.077  0.00  0.00    -0.327 N 
ATOM      9  C   UNL d   1      21.374 -18.819  -0.331  0.00  0.00     0.225 C 
ATOM     10  O   UNL d   1      21.006 -17.788  -0.895  0.00  0.00    -0.273 OA
ATOM     11  H   UNL d   1      22.957 -20.053   0.230  0.00  0.00     0.169 HD
BRANCH   9  12
ATOM     12  C   UNL d   1      20.354 -19.862   0.133  0.00  0.00     0.070 C 
ATOM     13  C   UNL d   1      20.121 -19.702   1.642  0.00  0.00     0.019 C 
ATOM     14  C   UNL d   1      19.018 -19.723  -0.590  0.00  0.00     0.019 C 
ENDBRANCH   9  12
ENDBRANCH   6   8
ENDBRANCH   1   2
BRANCH   1  15
ATOM     15  N   UNL d   1      28.516 -17.714  -0.217  0.00  0.00    -0.353 N 
ATOM     16  C   UNL d   1      29.088 -16.756  -1.003  0.00  0.00     0.252 C 
ATOM     17  O   UNL d   1      28.658 -15.609  -1.111  0.00  0.00    -0.268 OA
ATOM     18  H   UNL d   1      29.035 -18.568  -0.101  0.00  0.00     0.163 HD
BRANCH  16  19
ATOM     19  C   UNL d   1      30.308 -17.172  -1.750  0.00  0.00     0.034 A 
ATOM     20  C   UNL d   1      31.558 -16.922  -1.172  0.00  0.00     0.017 A 
ATOM     21  C   UNL d   1      32.730 -17.126  -1.905  0.00  0.00     0.003 A 
ATOM     22  C   UNL d   1      32.666 -17.644  -3.198  0.00  0.00     0.036 A 
ATOM     23  C   UNL d   1      31.415 -17.920  -3.768  0.00  0.00     0.103 A 
ATOM     24  C   UNL d   1      30.229 -17.692  -3.050  0.00  0.00     0.053 A 
BRANCH  23  25
ATOM     25  N   UNL d   1      31.344 -18.386  -5.161  0.00  0.00    -0.116 N 
ATOM     26  O   UNL d   1      30.227 -18.444  -5.695  0.00  0.00    -0.532 OA
ATOM     27  O   UNL d   1      32.405 -18.702  -5.714  0.00  0.00    -0.532 OA
ENDBRANCH  23  25
ENDBRANCH  16  19
ENDBRANCH   1  15
TORSDOF 6
ENDMDL
MODEL 8
REMARK VINA RESULT:    -7.427      1.916      2.727
REMARK INTER + INTRA:         -10.045
REMARK INTER:                  -9.217
REMARK INTRA:                  -0.828
REMARK CONF_INDEPENDENT:        1.790
REMARK UNBOUND:                -0.828
REMARK  6 active torsions:
REMARK  status: ('A' for Active; 'I' for Inactive)
REMARK    1  A    between atoms: C_2  and  C_4 
REMARK       I    between atoms: C_4  and  N_6 
REMARK    2  A    between atoms: N_6  and  C_7 
REMARK    3  A    between atoms: C_11  and  C_12 
REMARK    4  A    between atoms: C_12  and  N_13 
REMARK       I    between atoms: N_13  and  C_14 
REMARK    5  A    between atoms: C_14  and  C_16 
REMARK    6  A    between atoms: C_20  and  N_21 
ROOT
ATOM      1  C   UNL d   1      28.429 -13.974  -0.136  0.00  0.00     0.161 C 
ENDROOT
BRANCH   1   2
ATOM      2  C   UNL d   1      27.168 -14.365  -0.879  0.00  0.00    -0.038 A 
ATOM      3  C   UNL d   1      26.742 -13.618  -1.986  0.00  0.00     0.009 A 
ATOM      4  C   UNL d   1      25.625 -14.025  -2.730  0.00  0.00     0.003 A 
ATOM      5  C   UNL d   1      24.886 -15.151  -2.350  0.00  0.00     0.029 A 
ATOM      6  C   UNL d   1      25.271 -15.879  -1.230  0.00  0.00     0.035 A 
ATOM      7  C   UNL d   1      26.401 -15.482  -0.519  0.00  0.00     0.038 A 
BRANCH   6   8
ATOM      8  N   UNL d   1      24.558 -17.029  -0.826  0.00  0.00    -0.327 N 
ATOM      9  C   UNL d   1      23.202 -16.983  -0.526  0.00  0.00     0.225 C 
ATOM     10  O   UNL d   1      22.532 -15.950  -0.551  0.00  0.00    -0.273 OA
ATOM     11  H   UNL d   1      25.012 -17.923  -0.957  0.00  0.00     0.169 HD
BRANCH   9  12
ATOM     12  C   UNL d   1      22.557 -18.323  -0.159  0.00  0.00     0.070 C 
ATOM     13  C   UNL d   1      21.223 -18.460  -0.904  0.00  0.00     0.019 C 
ATOM     14  C   UNL d   1      23.447 -19.508  -0.518  0.00  0.00     0.019 C 
ENDBRANCH   9  12
ENDBRANCH   6   8
ENDBRANCH   1   2
BRANCH   1  15
ATOM     15  N   UNL d   1      28.279 -12.809   0.722  0.00  0.00    -0.353 N 
ATOM     16  C   UNL d   1      27.401 -12.763   1.766  0.00  0.00     0.252 C 
ATOM     17  O   UNL d   1      26.634 -13.677   2.060  0.00  0.00    -0.268 OA
ATOM     18  H   UNL d   1      28.951 -12.063   0.665  0.00  0.00     0.163 HD
BRANCH  16  19
ATOM     19  C   UNL d   1      27.418 -11.509   2.570  0.00  0.00     0.034 A 
ATOM     20  C   UNL d   1      27.908 -11.566   3.880  0.00  0.00     0.017 A 
ATOM     21  C   UNL d   1      27.778 -10.467   4.734  0.00  0.00     0.003 A 
ATOM     22  C   UNL d   1      27.216  -9.280   4.265  0.00  0.00     0.036 A 
ATOM     23  C   UNL d   1      26.749  -9.213   2.944  0.00  0.00     0.103 A 
ATOM     24  C   UNL d   1      26.849 -10.322   2.087  0.00  0.00     0.053 A 
BRANCH  23  25
ATOM     25  N   UNL d   1      26.081  -7.989   2.477  0.00  0.00    -0.116 N 
ATOM     26  O   UNL d   1      26.283  -6.942   3.109  0.00  0.00    -0.532 OA
ATOM     27  O   UNL d   1      25.347  -8.080   1.484  0.00  0.00    -0.532 OA
ENDBRANCH  23  25
ENDBRANCH  16  19
ENDBRANCH   1  15
TORSDOF 6
ENDMDL
MODEL 9
REMARK VINA RESULT:    -7.197      5.408      9.227
REMARK INTER + INTRA:          -9.787
REMARK INTER:                  -8.987
REMARK INTRA:                  -0.800
REMARK CONF_INDEPENDENT:        1.790
REMARK UNBOUND:                -0.800
REMARK  6 active torsions:
REMARK  status: ('A' for Active; 'I' for Inactive)
REMARK    1  A    between atoms: C_2  and  C_4 
REMARK       I    between atoms: C_4  and  N_6 
REMARK    2  A    between atoms: N_6  and  C_7 
REMARK    3  A    between atoms: C_11  and  C_12 
REMARK    4  A    between atoms: C_12  and  N_13 
REMARK       I    between atoms: N_13  and  C_14 
REMARK    5  A    between atoms: C_14  and  C_16 
REMARK    6  A    between atoms: C_20  and  N_21 
ROOT
ATOM      1  C   UNL d   1      27.415 -13.833  -2.949  0.00  0.00     0.161 C 
ENDROOT
BRANCH   1   2
ATOM      2  C   UNL d   1      28.158 -14.395  -4.143  0.00  0.00    -0.038 A 
ATOM      3  C   UNL d   1      28.927 -15.560  -4.010  0.00  0.00     0.009 A 
ATOM      4  C   UNL d   1      29.548 -16.133  -5.130  0.00  0.00     0.003 A 
ATOM      5  C   UNL d   1      29.453 -15.525  -6.387  0.00  0.00     0.029 A 
ATOM      6  C   UNL d   1      28.731 -14.347  -6.527  0.00  0.00     0.035 A 
ATOM      7  C   UNL d   1      28.093 -13.805  -5.413  0.00  0.00     0.038 A 
BRANCH   6   8
ATOM      8  N   UNL d   1      28.602 -13.713  -7.782  0.00  0.00    -0.327 N 
ATOM      9  C   UNL d   1      28.842 -12.353  -7.945  0.00  0.00     0.225 C 
ATOM     10  O   UNL d   1      29.143 -11.599  -7.019  0.00  0.00    -0.273 OA
ATOM     11  H   UNL d   1      28.531 -14.308  -8.596  0.00  0.00     0.169 HD
BRANCH   9  12
ATOM     12  C   UNL d   1      28.718 -11.823  -9.376  0.00  0.00     0.070 C 
ATOM     13  C   UNL d   1      30.115 -11.753 -10.009  0.00  0.00     0.019 C 
ATOM     14  C   UNL d   1      27.828 -12.708 -10.242  0.00  0.00     0.019 C 
ENDBRANCH   9  12
ENDBRANCH   6   8
ENDBRANCH   1   2
BRANCH   1  15
ATOM     15  N   UNL d   1      26.761 -14.838  -2.126  0.00  0.00    -0.353 N 
ATOM     16  C   UNL d   1      25.482 -15.261  -2.346  0.00  0.00     0.252 C 
ATOM     17  O   UNL d   1      24.753 -14.816  -3.230  0.00  0.00    -0.268 OA
ATOM     18  H   UNL d   1      27.304 -15.371  -1.469  0.00  0.00     0.163 HD
BRANCH  16  19
ATOM     19  C   UNL d   1      24.989 -16.334  -1.437  0.00  0.00     0.034 A 
ATOM     20  C   UNL d   1      25.923 -17.024  -0.656  0.00  0.00     0.017 A 
ATOM     21  C   UNL d   1      25.541 -18.154   0.073  0.00  0.00     0.003 A 
ATOM     22  C   UNL d   1      24.208 -18.563   0.080  0.00  0.00     0.036 A 
ATOM     23  C   UNL d   1      23.265 -17.856  -0.681  0.00  0.00     0.103 A 
ATOM     24  C   UNL d   1      23.646 -16.736  -1.440  0.00  0.00     0.053 A 
BRANCH  23  25
ATOM     25  N   UNL d   1      21.878 -18.338  -0.740  0.00  0.00    -0.116 N 
ATOM     26  O   UNL d   1      20.980 -17.499  -0.900  0.00  0.00    -0.532 OA
ATOM     27  O   UNL d   1      21.689 -19.556  -0.618  0.00  0.00    -0.532 OA
ENDBRANCH  23  25
ENDBRANCH  16  19
ENDBRANCH   1  15
TORSDOF 6
ENDMDL
