MODEL 1
REMARK VINA RESULT:    -8.189      0.000      0.000
REMARK INTER + INTRA:         -11.367
REMARK INTER:                  -9.978
REMARK INTRA:                  -1.389
REMARK CONF_INDEPENDENT:        1.790
REMARK UNBOUND:                -1.389
REMARK  6 active torsions:
REMARK  status: ('A' for Active; 'I' for Inactive)
REMARK    1  A    between atoms: C_4  and  C_5 
REMARK    2  A    between atoms: C_12  and  C_13 
REMARK       I    between atoms: C_13  and  N_15 
REMARK    3  A    between atoms: N_15  and  N_16 
REMARK    4  A    between atoms: N_16  and  C_17 
REMARK    5  A    between atoms: C_17  and  N_19 
REMARK    6  A    between atoms: N_19  and  C_20 
ROOT
ATOM      1  C   UNL d   1      28.426 -14.259   5.556  0.00  0.00     0.275 C 
ATOM      2  O   UNL d   1      28.433 -15.447   5.856  0.00  0.00    -0.266 OA
ATOM      3  N   UNL d   1      28.331 -13.861   4.223  0.00  0.00    -0.263 N 
ATOM      4  H   UNL d   1      28.319 -12.888   3.932  0.00  0.00     0.190 HD
ENDROOT
BRANCH   3   5
ATOM      5  N   UNL d   1      28.236 -14.825   3.136  0.00  0.00    -0.273 N 
ATOM      6  H   UNL d   1      28.529 -15.773   3.363  0.00  0.00     0.189 HD
BRANCH   5   7
ATOM      7  C   UNL d   1      27.701 -14.413   1.903  0.00  0.00     0.191 C 
ATOM      8  S   UNL d   1      26.959 -12.895   1.790  0.00  0.00    -0.039 SA
BRANCH   7   9
ATOM      9  N   UNL d   1      27.817 -15.362   0.862  0.00  0.00    -0.331 N 
ATOM     10  H   UNL d   1      28.407 -16.167   1.021  0.00  0.00     0.168 HD
BRANCH   9  11
ATOM     11  C   UNL d   1      26.910 -15.469  -0.263  0.00  0.00     0.045 A 
ATOM     12  C   UNL d   1      26.987 -14.505  -1.279  0.00  0.00     0.030 A 
ATOM     13  C   UNL d   1      26.067 -14.458  -2.323  0.00  0.00     0.003 A 
ATOM     14  C   UNL d   1      25.073 -15.420  -2.413  0.00  0.00     0.012 A 
ATOM     15  C   UNL d   1      25.016 -16.467  -1.485  0.00  0.00    -0.024 A 
ATOM     16  C   UNL d   1      24.024 -17.451  -1.644  0.00  0.00     0.012 A 
ATOM     17  C   UNL d   1      25.942 -16.518  -0.394  0.00  0.00     0.001 A 
ATOM     18  C   UNL d   1      23.917 -18.504  -0.743  0.00  0.00     0.001 A 
ATOM     19  C   UNL d   1      24.795 -18.575   0.331  0.00  0.00     0.001 A 
ATOM     20  C   UNL d   1      25.785 -17.595   0.509  0.00  0.00     0.014 A 
ENDBRANCH   9  11
ENDBRANCH   7   9
ENDBRANCH   5   7
ENDBRANCH   3   5
BRANCH   1  21
ATOM     21  C   UNL d   1      28.539 -13.184   6.567  0.00  0.00     0.098 A 
ATOM     22  C   UNL d   1      28.467 -11.766   6.461  0.00  0.00     0.160 A 
ATOM     23  N   UNL d   1      28.648 -11.116   7.622  0.00  0.00    -0.181 NA
ATOM     24  N   UNL d   1      28.899 -12.103   8.498  0.00  0.00    -0.240 N 
ATOM     25  C   UNL d   1      29.121 -11.850   9.925  0.00  0.00     0.221 C 
ATOM     26  C   UNL d   1      28.773 -13.360   7.925  0.00  0.00     0.138 A 
ATOM     27  C   UNL d   1      28.922 -13.173  10.709  0.00  0.00     0.061 C 
ATOM     28  C   UNL d   1      29.590 -14.353   9.979  0.00  0.00     0.081 C 
ATOM     29  N   UNL d   1      28.907 -14.471   8.697  0.00  0.00    -0.370 N 
ATOM     30  C   UNL d   1      31.081 -14.149   9.734  0.00  0.00     0.032 C 
ATOM     31  H   UNL d   1      28.894 -15.396   8.259  0.00  0.00     0.161 HD
BRANCH  25  32
ATOM     32  C   UNL d   1      30.431 -11.121  10.270  0.00  0.00     0.409 C 
ATOM     33  F   UNL d   1      30.386  -9.783  10.377  0.00  0.00    -0.169 F 
ATOM     34  F   UNL d   1      30.987 -11.564  11.418  0.00  0.00    -0.169 F 
ATOM     35  F   UNL d   1      31.344 -11.366   9.286  0.00  0.00    -0.169 F 
ENDBRANCH  25  32
ENDBRANCH   1  21
TORSDOF 6
ENDMDL
MODEL 2
REMARK VINA RESULT:    -7.828      4.712     10.100
REMARK INTER + INTRA:         -10.557
REMARK INTER:                  -9.618
REMARK INTRA:                  -0.939
REMARK CONF_INDEPENDENT:        1.790
REMARK UNBOUND:                -0.939
REMARK  6 active torsions:
REMARK  status: ('A' for Active; 'I' for Inactive)
REMARK    1  A    between atoms: C_4  and  C_5 
REMARK    2  A    between atoms: C_12  and  C_13 
REMARK       I    between atoms: C_13  and  N_15 
REMARK    3  A    between atoms: N_15  and  N_16 
REMARK    4  A    between atoms: N_16  and  C_17 
REMARK    5  A    between atoms: C_17  and  N_19 
REMARK    6  A    between atoms: N_19  and  C_20 
ROOT
ATOM      1  C   UNL d   1      28.584 -13.513   2.501  0.00  0.00     0.275 C 
ATOM      2  O   UNL d   1      28.370 -12.588   3.276  0.00  0.00    -0.266 OA
ATOM      3  N   UNL d   1      29.560 -14.468   2.785  0.00  0.00    -0.263 N 
ATOM      4  H   UNL d   1      29.767 -15.251   2.171  0.00  0.00     0.190 HD
ENDROOT
BRANCH   3   5
ATOM      5  N   UNL d   1      30.362 -14.413   3.998  0.00  0.00    -0.273 N 
ATOM      6  H   UNL d   1      31.365 -14.310   3.858  0.00  0.00     0.189 HD
BRANCH   5   7
ATOM      7  C   UNL d   1      29.714 -14.439   5.246  0.00  0.00     0.191 C 
ATOM      8  S   UNL d   1      28.209 -15.200   5.380  0.00  0.00    -0.039 SA
BRANCH   7   9
ATOM      9  N   UNL d   1      30.405 -13.772   6.284  0.00  0.00    -0.331 N 
ATOM     10  H   UNL d   1      31.416 -13.793   6.267  0.00  0.00     0.168 HD
BRANCH   9  11
ATOM     11  C   UNL d   1      29.818 -12.781   7.163  0.00  0.00     0.045 A 
ATOM     12  C   UNL d   1      29.818 -11.439   6.753  0.00  0.00     0.030 A 
ATOM     13  C   UNL d   1      29.398 -10.411   7.593  0.00  0.00     0.003 A 
ATOM     14  C   UNL d   1      28.905 -10.707   8.855  0.00  0.00     0.012 A 
ATOM     15  C   UNL d   1      28.783 -12.037   9.272  0.00  0.00    -0.024 A 
ATOM     16  C   UNL d   1      28.229 -12.294  10.539  0.00  0.00     0.012 A 
ATOM     17  C   UNL d   1      29.230 -13.105   8.429  0.00  0.00     0.001 A 
ATOM     18  C   UNL d   1      28.097 -13.597  11.006  0.00  0.00     0.001 A 
ATOM     19  C   UNL d   1      28.530 -14.652  10.214  0.00  0.00     0.001 A 
ATOM     20  C   UNL d   1      29.095 -14.411   8.952  0.00  0.00     0.014 A 
ENDBRANCH   9  11
ENDBRANCH   7   9
ENDBRANCH   5   7
ENDBRANCH   3   5
BRANCH   1  21
ATOM     21  C   UNL d   1      27.852 -13.666   1.225  0.00  0.00     0.098 A 
ATOM     22  C   UNL d   1      27.025 -12.772   0.488  0.00  0.00     0.160 A 
ATOM     23  N   UNL d   1      26.505 -13.297  -0.633  0.00  0.00    -0.181 NA
ATOM     24  N   UNL d   1      26.942 -14.567  -0.616  0.00  0.00    -0.240 N 
ATOM     25  C   UNL d   1      26.645 -15.516  -1.693  0.00  0.00     0.221 C 
ATOM     26  C   UNL d   1      27.809 -14.811   0.439  0.00  0.00     0.138 A 
ATOM     27  C   UNL d   1      27.640 -16.701  -1.612  0.00  0.00     0.061 C 
ATOM     28  C   UNL d   1      27.834 -17.161  -0.155  0.00  0.00     0.081 C 
ATOM     29  N   UNL d   1      28.412 -16.024   0.552  0.00  0.00    -0.370 N 
ATOM     30  C   UNL d   1      26.533 -17.566   0.531  0.00  0.00     0.032 C 
ATOM     31  H   UNL d   1      28.987 -16.230   1.374  0.00  0.00     0.161 HD
BRANCH  25  32
ATOM     32  C   UNL d   1      25.174 -15.954  -1.799  0.00  0.00     0.409 C 
ATOM     33  F   UNL d   1      24.443 -15.949  -0.671  0.00  0.00    -0.169 F 
ATOM     34  F   UNL d   1      24.475 -15.224  -2.694  0.00  0.00    -0.169 F 
ATOM     35  F   UNL d   1      25.129 -17.244  -2.242  0.00  0.00    -0.169 F 
ENDBRANCH  25  32
ENDBRANCH   1  21
TORSDOF 6
ENDMDL
MODEL 3
REMARK VINA RESULT:    -7.763      0.638      2.059
REMARK INTER + INTRA:         -10.976
REMARK INTER:                  -9.553
REMARK INTRA:                  -1.423
REMARK CONF_INDEPENDENT:        1.790
REMARK UNBOUND:                -1.423
REMARK  6 active torsions:
REMARK  status: ('A' for Active; 'I' for Inactive)
REMARK    1  A    between atoms: C_4  and  C_5 
REMARK    2  A    between atoms: C_12  and  C_13 
REMARK       I    between atoms: C_13  and  N_15 
REMARK    3  A    between atoms: N_15  and  N_16 
REMARK    4  A    between atoms: N_16  and  C_17 
REMARK    5  A    between atoms: C_17  and  N_19 
REMARK    6  A    between atoms: N_19  and  C_20 
ROOT
ATOM      1  C   UNL d   1      28.409 -14.293   5.763  0.00  0.00     0.275 C 
ATOM      2  O   UNL d   1      28.364 -15.475   6.083  0.00  0.00    -0.266 OA
ATOM      3  N   UNL d   1      28.366 -13.916   4.421  0.00  0.00    -0.263 N 
ATOM      4  H   UNL d   1      28.398 -12.949   4.114  0.00  0.00     0.190 HD
ENDROOT
BRANCH   3   5
ATOM      5  N   UNL d   1      28.268 -14.896   3.349  0.00  0.00    -0.273 N 
ATOM      6  H   UNL d   1      28.511 -15.851   3.602  0.00  0.00     0.189 HD
BRANCH   5   7
ATOM      7  C   UNL d   1      27.794 -14.485   2.091  0.00  0.00     0.191 C 
ATOM      8  S   UNL d   1      26.993 -13.000   1.954  0.00  0.00    -0.039 SA
BRANCH   7   9
ATOM      9  N   UNL d   1      28.019 -15.408   1.044  0.00  0.00    -0.331 N 
ATOM     10  H   UNL d   1      28.871 -15.951   1.070  0.00  0.00     0.168 HD
BRANCH   9  11
ATOM     11  C   UNL d   1      26.998 -15.896   0.138  0.00  0.00     0.045 A 
ATOM     12  C   UNL d   1      26.423 -17.150   0.391  0.00  0.00     0.030 A 
ATOM     13  C   UNL d   1      25.537 -17.748  -0.501  0.00  0.00     0.003 A 
ATOM     14  C   UNL d   1      25.152 -17.075  -1.650  0.00  0.00     0.012 A 
ATOM     15  C   UNL d   1      25.612 -15.777  -1.897  0.00  0.00    -0.024 A 
ATOM     16  C   UNL d   1      25.155 -15.109  -3.047  0.00  0.00     0.012 A 
ATOM     17  C   UNL d   1      26.540 -15.155  -1.000  0.00  0.00     0.001 A 
ATOM     18  C   UNL d   1      25.592 -13.823  -3.344  0.00  0.00     0.001 A 
ATOM     19  C   UNL d   1      26.499 -13.199  -2.498  0.00  0.00     0.001 A 
ATOM     20  C   UNL d   1      26.973 -13.855  -1.351  0.00  0.00     0.014 A 
ENDBRANCH   9  11
ENDBRANCH   7   9
ENDBRANCH   5   7
ENDBRANCH   3   5
BRANCH   1  21
ATOM     21  C   UNL d   1      28.531 -13.204   6.758  0.00  0.00     0.098 A 
ATOM     22  C   UNL d   1      28.465 -11.788   6.633  0.00  0.00     0.160 A 
ATOM     23  N   UNL d   1      28.655 -11.123   7.783  0.00  0.00    -0.181 NA
ATOM     24  N   UNL d   1      28.907 -12.098   8.672  0.00  0.00    -0.240 N 
ATOM     25  C   UNL d   1      29.137 -11.826  10.094  0.00  0.00     0.221 C 
ATOM     26  C   UNL d   1      28.772 -13.362   8.117  0.00  0.00     0.138 A 
ATOM     27  C   UNL d   1      28.937 -13.137  10.897  0.00  0.00     0.061 C 
ATOM     28  C   UNL d   1      29.596 -14.330  10.181  0.00  0.00     0.081 C 
ATOM     29  N   UNL d   1      28.905 -14.463   8.904  0.00  0.00    -0.370 N 
ATOM     30  C   UNL d   1      31.087 -14.136   9.925  0.00  0.00     0.032 C 
ATOM     31  H   UNL d   1      28.887 -15.394   8.479  0.00  0.00     0.161 HD
BRANCH  25  32
ATOM     32  C   UNL d   1      30.452 -11.098  10.422  0.00  0.00     0.409 C 
ATOM     33  F   UNL d   1      30.404  -9.762  10.558  0.00  0.00    -0.169 F 
ATOM     34  F   UNL d   1      31.038 -11.562  11.545  0.00  0.00    -0.169 F 
ATOM     35  F   UNL d   1      31.342 -11.318   9.410  0.00  0.00    -0.169 F 
ENDBRANCH  25  32
ENDBRANCH   1  21
TORSDOF 6
ENDMDL
MODEL 4
REMARK VINA RESULT:    -7.686      3.055      3.886
REMARK INTER + INTRA:         -10.784
REMARK INTER:                  -9.476
REMARK INTRA:                  -1.309
REMARK CONF_INDEPENDENT:        1.790
REMARK UNBOUND:                -1.309
REMARK  6 active torsions:
REMARK  status: ('A' for Active; 'I' for Inactive)
REMARK    1  A    between atoms: C_4  and  C_5 
REMARK    2  A    between atoms: C_12  and  C_13 
REMARK       I    between atoms: C_13  and  N_15 
REMARK    3  A    between atoms: N_15  and  N_16 
REMARK    4  A    between atoms: N_16  and  C_17 
REMARK    5  A    between atoms: C_17  and  N_19 
REMARK    6  A    between atoms: N_19  and  C_20 
ROOT
ATOM      1  C   UNL d   1      27.502 -14.670   1.096  0.00  0.00     0.275 C 
ATOM      2  O   UNL d   1      26.684 -14.764   0.189  0.00  0.00    -0.266 OA
ATOM      3  N   UNL d   1      28.568 -15.564   1.189  0.00  0.00    -0.263 N 
ATOM      4  H   UNL d   1      29.269 -15.520   1.923  0.00  0.00     0.190 HD
ENDROOT
BRANCH   3   5
ATOM      5  N   UNL d   1      28.759 -16.638   0.225  0.00  0.00    -0.273 N 
ATOM      6  H   UNL d   1      28.525 -17.572   0.556  0.00  0.00     0.189 HD
BRANCH   5   7
ATOM      7  C   UNL d   1      29.177 -16.319  -1.079  0.00  0.00     0.191 C 
ATOM      8  S   UNL d   1      30.647 -15.510  -1.301  0.00  0.00    -0.039 SA
BRANCH   7   9
ATOM      9  N   UNL d   1      28.272 -16.695  -2.098  0.00  0.00    -0.331 N 
ATOM     10  H   UNL d   1      28.466 -17.545  -2.610  0.00  0.00     0.168 HD
BRANCH   9  11
ATOM     11  C   UNL d   1      26.928 -16.174  -2.243  0.00  0.00     0.045 A 
ATOM     12  C   UNL d   1      26.717 -15.101  -3.122  0.00  0.00     0.030 A 
ATOM     13  C   UNL d   1      25.487 -14.457  -3.218  0.00  0.00     0.003 A 
ATOM     14  C   UNL d   1      24.407 -14.914  -2.476  0.00  0.00     0.012 A 
ATOM     15  C   UNL d   1      24.535 -16.047  -1.666  0.00  0.00    -0.024 A 
ATOM     16  C   UNL d   1      23.402 -16.507  -0.972  0.00  0.00     0.012 A 
ATOM     17  C   UNL d   1      25.799 -16.708  -1.539  0.00  0.00     0.001 A 
ATOM     18  C   UNL d   1      23.478 -17.621  -0.144  0.00  0.00     0.001 A 
ATOM     19  C   UNL d   1      24.693 -18.277   0.005  0.00  0.00     0.001 A 
ATOM     20  C   UNL d   1      25.836 -17.825  -0.672  0.00  0.00     0.014 A 
ENDBRANCH   9  11
ENDBRANCH   7   9
ENDBRANCH   5   7
ENDBRANCH   3   5
BRANCH   1  21
ATOM     21  C   UNL d   1      27.405 -13.635   2.150  0.00  0.00     0.098 A 
ATOM     22  C   UNL d   1      26.933 -12.293   2.126  0.00  0.00     0.160 A 
ATOM     23  N   UNL d   1      27.035 -11.650   3.300  0.00  0.00    -0.181 NA
ATOM     24  N   UNL d   1      27.632 -12.551   4.099  0.00  0.00    -0.240 N 
ATOM     25  C   UNL d   1      27.907 -12.285   5.514  0.00  0.00     0.221 C 
ATOM     26  C   UNL d   1      27.806 -13.775   3.473  0.00  0.00     0.138 A 
ATOM     27  C   UNL d   1      28.158 -13.631   6.241  0.00  0.00     0.061 C 
ATOM     28  C   UNL d   1      29.056 -14.555   5.397  0.00  0.00     0.081 C 
ATOM     29  N   UNL d   1      28.316 -14.825   4.171  0.00  0.00    -0.370 N 
ATOM     30  C   UNL d   1      30.402 -13.932   5.041  0.00  0.00     0.032 C 
ATOM     31  H   UNL d   1      28.519 -15.704   3.687  0.00  0.00     0.161 HD
BRANCH  25  32
ATOM     32  C   UNL d   1      28.989 -11.227   5.788  0.00  0.00     0.409 C 
ATOM     33  F   UNL d   1      30.068 -11.221   4.986  0.00  0.00    -0.169 F 
ATOM     34  F   UNL d   1      28.505  -9.967   5.764  0.00  0.00    -0.169 F 
ATOM     35  F   UNL d   1      29.487 -11.419   7.045  0.00  0.00    -0.169 F 
ENDBRANCH  25  32
ENDBRANCH   1  21
TORSDOF 6
ENDMDL
MODEL 5
REMARK VINA RESULT:    -7.527      3.543      4.784
REMARK INTER + INTRA:         -10.431
REMARK INTER:                  -9.317
REMARK INTRA:                  -1.115
REMARK CONF_INDEPENDENT:        1.790
REMARK UNBOUND:                -1.115
REMARK  6 active torsions:
REMARK  status: ('A' for Active; 'I' for Inactive)
REMARK    1  A    between atoms: C_4  and  C_5 
REMARK    2  A    between atoms: C_12  and  C_13 
REMARK       I    between atoms: C_13  and  N_15 
REMARK    3  A    between atoms: N_15  and  N_16 
REMARK    4  A    between atoms: N_16  and  C_17 
REMARK    5  A    between atoms: C_17  and  N_19 
REMARK    6  A    between atoms: N_19  and  C_20 
ROOT
ATOM      1  C   UNL d   1      28.933 -14.373   0.373  0.00  0.00     0.275 C 
ATOM      2  O   UNL d   1      28.831 -13.859  -0.735  0.00  0.00    -0.266 OA
ATOM      3  N   UNL d   1      29.735 -15.498   0.565  0.00  0.00    -0.263 N 
ATOM      4  H   UNL d   1      29.849 -15.953   1.466  0.00  0.00     0.190 HD
ENDROOT
BRANCH   3   5
ATOM      5  N   UNL d   1      30.479 -16.109  -0.527  0.00  0.00    -0.273 N 
ATOM      6  H   UNL d   1      31.423 -15.754  -0.669  0.00  0.00     0.189 HD
BRANCH   5   7
ATOM      7  C   UNL d   1      29.890 -17.162  -1.248  0.00  0.00     0.191 C 
ATOM      8  S   UNL d   1      30.318 -17.394  -2.869  0.00  0.00    -0.039 SA
BRANCH   7   9
ATOM      9  N   UNL d   1      28.945 -17.921  -0.521  0.00  0.00    -0.331 N 
ATOM     10  H   UNL d   1      29.293 -18.559   0.183  0.00  0.00     0.168 HD
BRANCH   9  11
ATOM     11  C   UNL d   1      27.529 -17.623  -0.443  0.00  0.00     0.045 A 
ATOM     12  C   UNL d   1      26.765 -18.257   0.548  0.00  0.00     0.030 A 
ATOM     13  C   UNL d   1      25.380 -18.129   0.605  0.00  0.00     0.003 A 
ATOM     14  C   UNL d   1      24.723 -17.308  -0.298  0.00  0.00     0.012 A 
ATOM     15  C   UNL d   1      25.448 -16.569  -1.239  0.00  0.00    -0.024 A 
ATOM     16  C   UNL d   1      24.746 -15.708  -2.102  0.00  0.00     0.012 A 
ATOM     17  C   UNL d   1      26.871 -16.704  -1.325  0.00  0.00     0.001 A 
ATOM     18  C   UNL d   1      25.418 -14.961  -3.062  0.00  0.00     0.001 A 
ATOM     19  C   UNL d   1      26.797 -15.078  -3.175  0.00  0.00     0.001 A 
ATOM     20  C   UNL d   1      27.512 -15.941  -2.329  0.00  0.00     0.014 A 
ENDBRANCH   9  11
ENDBRANCH   7   9
ENDBRANCH   5   7
ENDBRANCH   3   5
BRANCH   1  21
ATOM     21  C   UNL d   1      28.211 -13.859   1.558  0.00  0.00     0.098 A 
ATOM     22  C   UNL d   1      27.033 -13.071   1.687  0.00  0.00     0.160 A 
ATOM     23  N   UNL d   1      26.700 -12.779   2.954  0.00  0.00    -0.181 NA
ATOM     24  N   UNL d   1      27.692 -13.329   3.674  0.00  0.00    -0.240 N 
ATOM     25  C   UNL d   1      27.716 -13.289   5.139  0.00  0.00     0.221 C 
ATOM     26  C   UNL d   1      28.579 -14.046   2.884  0.00  0.00     0.138 A 
ATOM     27  C   UNL d   1      28.698 -14.371   5.657  0.00  0.00     0.061 C 
ATOM     28  C   UNL d   1      29.993 -14.387   4.823  0.00  0.00     0.081 C 
ATOM     29  N   UNL d   1      29.593 -14.740   3.467  0.00  0.00    -0.370 N 
ATOM     30  C   UNL d   1      30.713 -13.042   4.797  0.00  0.00     0.032 C 
ATOM     31  H   UNL d   1      30.293 -15.201   2.879  0.00  0.00     0.161 HD
BRANCH  25  32
ATOM     32  C   UNL d   1      27.948 -11.901   5.758  0.00  0.00     0.409 C 
ATOM     33  F   UNL d   1      29.145 -11.324   5.556  0.00  0.00    -0.169 F 
ATOM     34  F   UNL d   1      27.031 -10.993   5.362  0.00  0.00    -0.169 F 
ATOM     35  F   UNL d   1      27.827 -11.996   7.115  0.00  0.00    -0.169 F 
ENDBRANCH  25  32
ENDBRANCH   1  21
TORSDOF 6
ENDMDL
MODEL 6
REMARK VINA RESULT:    -7.289      3.383      4.572
REMARK INTER + INTRA:         -10.589
REMARK INTER:                  -9.079
REMARK INTRA:                  -1.511
REMARK CONF_INDEPENDENT:        1.790
REMARK UNBOUND:                -1.511
REMARK  6 active torsions:
REMARK  status: ('A' for Active; 'I' for Inactive)
REMARK    1  A    between atoms: C_4  and  C_5 
REMARK    2  A    between atoms: C_12  and  C_13 
REMARK       I    between atoms: C_13  and  N_15 
REMARK    3  A    between atoms: N_15  and  N_16 
REMARK    4  A    between atoms: N_16  and  C_17 
REMARK    5  A    between atoms: C_17  and  N_19 
REMARK    6  A    between atoms: N_19  and  C_20 
ROOT
ATOM      1  C   UNL d   1      28.161 -13.644   0.175  0.00  0.00     0.275 C 
ATOM      2  O   UNL d   1      28.948 -14.580   0.090  0.00  0.00    -0.266 OA
ATOM      3  N   UNL d   1      27.525 -13.145  -0.961  0.00  0.00    -0.263 N 
ATOM      4  H   UNL d   1      26.865 -12.373  -0.934  0.00  0.00     0.190 HD
ENDROOT
BRANCH   3   5
ATOM      5  N   UNL d   1      27.760 -13.702  -2.285  0.00  0.00    -0.273 N 
ATOM      6  H   UNL d   1      28.673 -13.503  -2.690  0.00  0.00     0.189 HD
BRANCH   5   7
ATOM      7  C   UNL d   1      26.771 -14.511  -2.870  0.00  0.00     0.191 C 
ATOM      8  S   UNL d   1      26.880 -14.889  -4.517  0.00  0.00    -0.039 SA
BRANCH   7   9
ATOM      9  N   UNL d   1      25.736 -14.907  -1.993  0.00  0.00    -0.331 N 
ATOM     10  H   UNL d   1      24.829 -14.474  -2.106  0.00  0.00     0.168 HD
BRANCH   9  11
ATOM     11  C   UNL d   1      25.754 -16.110  -1.184  0.00  0.00     0.045 A 
ATOM     12  C   UNL d   1      26.985 -16.566  -0.690  0.00  0.00     0.030 A 
ATOM     13  C   UNL d   1      27.106 -17.781  -0.022  0.00  0.00     0.003 A 
ATOM     14  C   UNL d   1      25.979 -18.550   0.227  0.00  0.00     0.012 A 
ATOM     15  C   UNL d   1      24.713 -18.090  -0.149  0.00  0.00    -0.024 A 
ATOM     16  C   UNL d   1      23.591 -18.876   0.169  0.00  0.00     0.012 A 
ATOM     17  C   UNL d   1      24.572 -16.853  -0.857  0.00  0.00     0.001 A 
ATOM     18  C   UNL d   1      22.312 -18.471  -0.193  0.00  0.00     0.001 A 
ATOM     19  C   UNL d   1      22.146 -17.279  -0.888  0.00  0.00     0.001 A 
ATOM     20  C   UNL d   1      23.256 -16.488  -1.222  0.00  0.00     0.014 A 
ENDBRANCH   9  11
ENDBRANCH   7   9
ENDBRANCH   5   7
ENDBRANCH   3   5
BRANCH   1  21
ATOM     21  C   UNL d   1      27.855 -12.977   1.460  0.00  0.00     0.098 A 
ATOM     22  C   UNL d   1      27.318 -11.694   1.762  0.00  0.00     0.160 A 
ATOM     23  N   UNL d   1      27.211 -11.436   3.076  0.00  0.00    -0.181 NA
ATOM     24  N   UNL d   1      27.732 -12.531   3.653  0.00  0.00    -0.240 N 
ATOM     25  C   UNL d   1      27.781 -12.704   5.108  0.00  0.00     0.221 C 
ATOM     26  C   UNL d   1      28.063 -13.508   2.726  0.00  0.00     0.138 A 
ATOM     27  C   UNL d   1      27.995 -14.205   5.432  0.00  0.00     0.061 C 
ATOM     28  C   UNL d   1      29.057 -14.824   4.503  0.00  0.00     0.081 C 
ATOM     29  N   UNL d   1      28.521 -14.716   3.152  0.00  0.00    -0.370 N 
ATOM     30  C   UNL d   1      30.404 -14.112   4.564  0.00  0.00     0.032 C 
ATOM     31  H   UNL d   1      28.841 -15.405   2.467  0.00  0.00     0.161 HD
BRANCH  25  32
ATOM     32  C   UNL d   1      28.751 -11.770   5.851  0.00  0.00     0.409 C 
ATOM     33  F   UNL d   1      29.793 -11.281   5.158  0.00  0.00    -0.169 F 
ATOM     34  F   UNL d   1      28.133 -10.699   6.392  0.00  0.00    -0.169 F 
ATOM     35  F   UNL d   1      29.310 -12.452   6.893  0.00  0.00    -0.169 F 
ENDBRANCH  25  32
ENDBRANCH   1  21
TORSDOF 6
ENDMDL
MODEL 7
REMARK VINA RESULT:    -7.208      9.633     12.202
REMARK INTER + INTRA:         -10.742
REMARK INTER:                  -8.997
REMARK INTRA:                  -1.744
REMARK CONF_INDEPENDENT:        1.790
REMARK UNBOUND:                -1.744
REMARK  6 active torsions:
REMARK  status: ('A' for Active; 'I' for Inactive)
REMARK    1  A    between atoms: C_4  and  C_5 
REMARK    2  A    between atoms: C_12  and  C_13 
REMARK       I    between atoms: C_13  and  N_15 
REMARK    3  A    between atoms: N_15  and  N_16 
REMARK    4  A    between atoms: N_16  and  C_17 
REMARK    5  A    between atoms: C_17  and  N_19 
REMARK    6  A    between atoms: N_19  and  C_20 
ROOT
ATOM      1  C   UNL d   1      28.269 -14.704  -5.731  0.00  0.00     0.275 C 
ATOM      2  O   UNL d   1      27.245 -15.223  -6.161  0.00  0.00    -0.266 OA
ATOM      3  N   UNL d   1      28.213 -13.767  -4.700  0.00  0.00    -0.263 N 
ATOM      4  H   UNL d   1      29.036 -13.316  -4.312  0.00  0.00     0.190 HD
ENDROOT
BRANCH   3   5
ATOM      5  N   UNL d   1      26.953 -13.362  -4.093  0.00  0.00    -0.273 N 
ATOM      6  H   UNL d   1      26.790 -12.359  -4.044  0.00  0.00     0.189 HD
BRANCH   5   7
ATOM      7  C   UNL d   1      26.041 -14.353  -3.689  0.00  0.00     0.191 C 
ATOM      8  S   UNL d   1      24.405 -13.952  -3.520  0.00  0.00    -0.039 SA
BRANCH   7   9
ATOM      9  N   UNL d   1      26.619 -15.616  -3.428  0.00  0.00    -0.331 N 
ATOM     10  H   UNL d   1      27.156 -16.052  -4.166  0.00  0.00     0.168 HD
BRANCH   9  11
ATOM     11  C   UNL d   1      26.807 -16.183  -2.107  0.00  0.00     0.045 A 
ATOM     12  C   UNL d   1      28.062 -16.051  -1.495  0.00  0.00     0.030 A 
ATOM     13  C   UNL d   1      28.364 -16.680  -0.291  0.00  0.00     0.003 A 
ATOM     14  C   UNL d   1      27.391 -17.414   0.371  0.00  0.00     0.012 A 
ATOM     15  C   UNL d   1      26.091 -17.487  -0.142  0.00  0.00    -0.024 A 
ATOM     16  C   UNL d   1      25.121 -18.197   0.587  0.00  0.00     0.012 A 
ATOM     17  C   UNL d   1      25.769 -16.864  -1.391  0.00  0.00     0.001 A 
ATOM     18  C   UNL d   1      23.818 -18.311   0.115  0.00  0.00     0.001 A 
ATOM     19  C   UNL d   1      23.479 -17.724  -1.097  0.00  0.00     0.001 A 
ATOM     20  C   UNL d   1      24.438 -17.021  -1.842  0.00  0.00     0.014 A 
ENDBRANCH   9  11
ENDBRANCH   7   9
ENDBRANCH   5   7
ENDBRANCH   3   5
BRANCH   1  21
ATOM     21  C   UNL d   1      29.608 -15.015  -6.278  0.00  0.00     0.098 A 
ATOM     22  C   UNL d   1      30.424 -14.347  -7.234  0.00  0.00     0.160 A 
ATOM     23  N   UNL d   1      31.587 -14.965  -7.495  0.00  0.00    -0.181 NA
ATOM     24  N   UNL d   1      31.522 -16.082  -6.752  0.00  0.00    -0.240 N 
ATOM     25  C   UNL d   1      32.618 -17.054  -6.696  0.00  0.00     0.221 C 
ATOM     26  C   UNL d   1      30.388 -16.117  -5.953  0.00  0.00     0.138 A 
ATOM     27  C   UNL d   1      32.436 -17.948  -5.442  0.00  0.00     0.061 C 
ATOM     28  C   UNL d   1      30.965 -18.371  -5.273  0.00  0.00     0.081 C 
ATOM     29  N   UNL d   1      30.213 -17.139  -5.073  0.00  0.00    -0.370 N 
ATOM     30  C   UNL d   1      30.403 -19.107  -6.486  0.00  0.00     0.032 C 
ATOM     31  H   UNL d   1      29.339 -17.206  -4.544  0.00  0.00     0.161 HD
BRANCH  25  32
ATOM     32  C   UNL d   1      32.860 -17.851  -7.989  0.00  0.00     0.409 C 
ATOM     33  F   UNL d   1      33.074 -19.172  -7.873  0.00  0.00    -0.169 F 
ATOM     34  F   UNL d   1      31.854 -17.718  -8.879  0.00  0.00    -0.169 F 
ATOM     35  F   UNL d   1      33.978 -17.365  -8.604  0.00  0.00    -0.169 F 
ENDBRANCH  25  32
ENDBRANCH   1  21
TORSDOF 6
ENDMDL
MODEL 8
REMARK VINA RESULT:    -7.134      8.825     11.843
REMARK INTER + INTRA:         -10.447
REMARK INTER:                  -8.924
REMARK INTRA:                  -1.523
REMARK CONF_INDEPENDENT:        1.790
REMARK UNBOUND:                -1.523
REMARK  6 active torsions:
REMARK  status: ('A' for Active; 'I' for Inactive)
REMARK    1  A    between atoms: C_4  and  C_5 
REMARK    2  A    between atoms: C_12  and  C_13 
REMARK       I    between atoms: C_13  and  N_15 
REMARK    3  A    between atoms: N_15  and  N_16 
REMARK    4  A    between atoms: N_16  and  C_17 
REMARK    5  A    between atoms: C_17  and  N_19 
REMARK    6  A    between atoms: N_19  and  C_20 
ROOT
ATOM      1  C   UNL d   1      28.561 -15.596  -5.036  0.00  0.00     0.275 C 
ATOM      2  O   UNL d   1      28.145 -15.202  -6.119  0.00  0.00    -0.266 OA
ATOM      3  N   UNL d   1      28.074 -15.056  -3.846  0.00  0.00    -0.263 N 
ATOM      4  H   UNL d   1      28.389 -15.356  -2.928  0.00  0.00     0.190 HD
ENDROOT
BRANCH   3   5
ATOM      5  N   UNL d   1      27.061 -14.010  -3.832  0.00  0.00    -0.273 N 
ATOM      6  H   UNL d   1      27.230 -13.227  -4.460  0.00  0.00     0.189 HD
BRANCH   5   7
ATOM      7  C   UNL d   1      25.919 -14.176  -3.029  0.00  0.00     0.191 C 
ATOM      8  S   UNL d   1      24.387 -14.044  -3.735  0.00  0.00    -0.039 SA
BRANCH   7   9
ATOM      9  N   UNL d   1      26.188 -14.413  -1.662  0.00  0.00    -0.331 N 
ATOM     10  H   UNL d   1      26.129 -13.629  -1.027  0.00  0.00     0.168 HD
BRANCH   9  11
ATOM     11  C   UNL d   1      26.198 -15.720  -1.036  0.00  0.00     0.045 A 
ATOM     12  C   UNL d   1      27.427 -16.255  -0.622  0.00  0.00     0.030 A 
ATOM     13  C   UNL d   1      27.540 -17.555  -0.137  0.00  0.00     0.003 A 
ATOM     14  C   UNL d   1      26.407 -18.341   0.005  0.00  0.00     0.012 A 
ATOM     15  C   UNL d   1      25.143 -17.820  -0.291  0.00  0.00    -0.024 A 
ATOM     16  C   UNL d   1      24.015 -18.634  -0.082  0.00  0.00     0.012 A 
ATOM     17  C   UNL d   1      25.011 -16.492  -0.811  0.00  0.00     0.001 A 
ATOM     18  C   UNL d   1      22.738 -18.168  -0.373  0.00  0.00     0.001 A 
ATOM     19  C   UNL d   1      22.580 -16.888  -0.887  0.00  0.00     0.001 A 
ATOM     20  C   UNL d   1      23.696 -16.066  -1.111  0.00  0.00     0.014 A 
ENDBRANCH   9  11
ENDBRANCH   7   9
ENDBRANCH   5   7
ENDBRANCH   3   5
BRANCH   1  21
ATOM     21  C   UNL d   1      29.605 -16.639  -4.917  0.00  0.00     0.098 A 
ATOM     22  C   UNL d   1      30.079 -17.388  -3.804  0.00  0.00     0.160 A 
ATOM     23  N   UNL d   1      31.077 -18.238  -4.096  0.00  0.00    -0.181 NA
ATOM     24  N   UNL d   1      31.309 -18.013  -5.400  0.00  0.00    -0.240 N 
ATOM     25  C   UNL d   1      32.310 -18.766  -6.162  0.00  0.00     0.221 C 
ATOM     26  C   UNL d   1      30.403 -17.117  -5.948  0.00  0.00     0.138 A 
ATOM     27  C   UNL d   1      32.016 -18.607  -7.676  0.00  0.00     0.061 C 
ATOM     28  C   UNL d   1      31.661 -17.148  -8.019  0.00  0.00     0.081 C 
ATOM     29  N   UNL d   1      30.442 -16.847  -7.280  0.00  0.00    -0.370 N 
ATOM     30  C   UNL d   1      32.746 -16.151  -7.623  0.00  0.00     0.032 C 
ATOM     31  H   UNL d   1      29.828 -16.125  -7.668  0.00  0.00     0.161 HD
BRANCH  25  32
ATOM     32  C   UNL d   1      33.774 -18.484  -5.786  0.00  0.00     0.409 C 
ATOM     33  F   UNL d   1      34.376 -19.345  -4.948  0.00  0.00    -0.169 F 
ATOM     34  F   UNL d   1      34.581 -18.394  -6.864  0.00  0.00    -0.169 F 
ATOM     35  F   UNL d   1      33.843 -17.274  -5.157  0.00  0.00    -0.169 F 
ENDBRANCH  25  32
ENDBRANCH   1  21
TORSDOF 6
ENDMDL
MODEL 9
REMARK VINA RESULT:    -6.254      8.108     11.092
REMARK INTER + INTRA:         -10.391
REMARK INTER:                  -8.043
REMARK INTRA:                  -2.347
REMARK CONF_INDEPENDENT:        1.790
REMARK UNBOUND:                -2.347
REMARK  6 active torsions:
REMARK  status: ('A' for Active; 'I' for Inactive)
REMARK    1  A    between atoms: C_4  and  C_5 
REMARK    2  A    between atoms: C_12  and  C_13 
REMARK       I    between atoms: C_13  and  N_15 
REMARK    3  A    between atoms: N_15  and  N_16 
REMARK    4  A    between atoms: N_16  and  C_17 
REMARK    5  A    between atoms: C_17  and  N_19 
REMARK    6  A    between atoms: N_19  and  C_20 
ROOT
ATOM      1  C   UNL d   1      24.965 -14.846  -3.187  0.00  0.00     0.275 C 
ATOM      2  O   UNL d   1      24.028 -14.077  -3.010  0.00  0.00    -0.266 OA
ATOM      3  N   UNL d   1      25.115 -15.981  -2.390  0.00  0.00    -0.263 N 
ATOM      4  H   UNL d   1      25.876 -16.645  -2.505  0.00  0.00     0.190 HD
ENDROOT
BRANCH   3   5
ATOM      5  N   UNL d   1      24.179 -16.302  -1.322  0.00  0.00    -0.273 N 
ATOM      6  H   UNL d   1      23.375 -15.683  -1.242  0.00  0.00     0.189 HD
BRANCH   5   7
ATOM      7  C   UNL d   1      24.404 -17.448  -0.540  0.00  0.00     0.191 C 
ATOM      8  S   UNL d   1      23.302 -18.731  -0.618  0.00  0.00    -0.039 SA
BRANCH   7   9
ATOM      9  N   UNL d   1      25.552 -17.387   0.282  0.00  0.00    -0.331 N 
ATOM     10  H   UNL d   1      25.554 -17.935   1.131  0.00  0.00     0.168 HD
BRANCH   9  11
ATOM     11  C   UNL d   1      26.847 -16.894  -0.143  0.00  0.00     0.045 A 
ATOM     12  C   UNL d   1      27.826 -17.825  -0.520  0.00  0.00     0.030 A 
ATOM     13  C   UNL d   1      29.133 -17.443  -0.810  0.00  0.00     0.003 A 
ATOM     14  C   UNL d   1      29.483 -16.101  -0.790  0.00  0.00     0.012 A 
ATOM     15  C   UNL d   1      28.519 -15.123  -0.526  0.00  0.00    -0.024 A 
ATOM     16  C   UNL d   1      28.904 -13.771  -0.568  0.00  0.00     0.012 A 
ATOM     17  C   UNL d   1      27.174 -15.500  -0.205  0.00  0.00     0.001 A 
ATOM     18  C   UNL d   1      27.987 -12.761  -0.301  0.00  0.00     0.001 A 
ATOM     19  C   UNL d   1      26.679 -13.097   0.022  0.00  0.00     0.001 A 
ATOM     20  C   UNL d   1      26.280 -14.442   0.079  0.00  0.00     0.014 A 
ENDBRANCH   9  11
ENDBRANCH   7   9
ENDBRANCH   5   7
ENDBRANCH   3   5
BRANCH   1  21
ATOM     21  C   UNL d   1      25.996 -14.619  -4.224  0.00  0.00     0.098 A 
ATOM     22  C   UNL d   1      27.011 -15.460  -4.758  0.00  0.00     0.160 A 
ATOM     23  N   UNL d   1      27.784 -14.873  -5.686  0.00  0.00    -0.181 NA
ATOM     24  N   UNL d   1      27.318 -13.614  -5.730  0.00  0.00    -0.240 N 
ATOM     25  C   UNL d   1      27.852 -12.610  -6.656  0.00  0.00     0.221 C 
ATOM     26  C   UNL d   1      26.202 -13.438  -4.926  0.00  0.00     0.138 A 
ATOM     27  C   UNL d   1      26.832 -11.450  -6.786  0.00  0.00     0.061 C 
ATOM     28  C   UNL d   1      26.257 -11.063  -5.411  0.00  0.00     0.081 C 
ATOM     29  N   UNL d   1      25.552 -12.243  -4.924  0.00  0.00    -0.370 N 
ATOM     30  C   UNL d   1      27.325 -10.665  -4.397  0.00  0.00     0.032 C 
ATOM     31  H   UNL d   1      24.780 -12.088  -4.270  0.00  0.00     0.161 HD
BRANCH  25  32
ATOM     32  C   UNL d   1      29.286 -12.138  -6.361  0.00  0.00     0.409 C 
ATOM     33  F   UNL d   1      29.535 -10.821  -6.450  0.00  0.00    -0.169 F 
ATOM     34  F   UNL d   1      29.718 -12.514  -5.139  0.00  0.00    -0.169 F 
ATOM     35  F   UNL d   1      30.135 -12.719  -7.259  0.00  0.00    -0.169 F 
ENDBRANCH  25  32
ENDBRANCH   1  21
TORSDOF 6
ENDMDL
