MODEL 1
REMARK VINA RESULT:    -7.189      0.000      0.000
REMARK INTER + INTRA:          -9.313
REMARK INTER:                  -8.680
REMARK INTRA:                  -0.632
REMARK CONF_INDEPENDENT:        1.492
REMARK UNBOUND:                -0.632
REMARK  5 active torsions:
REMARK  status: ('A' for Active; 'I' for Inactive)
REMARK       I    between atoms: C_2  and  N_3 
REMARK    1  A    between atoms: C_2  and  C_9 
REMARK    2  A    between atoms: N_3  and  C_4 
REMARK    3  A    between atoms: C_5  and  C_4 
REMARK    4  A    between atoms: C_5  and  C_7 
REMARK    5  A    between atoms: C_5  and  O_6 
ROOT
ATOM      1  O   UNL d   1      21.030 -17.375  -0.896  0.00  0.00    -0.268 OA
ATOM      2  C   UNL d   1      21.871 -18.193  -0.538  0.00  0.00     0.251 C 
ATOM      3  N   UNL d   1      21.557 -19.420   0.002  0.00  0.00    -0.354 N 
ATOM      4  H   UNL d   1      22.314 -19.990   0.351  0.00  0.00     0.162 HD
ENDROOT
BRANCH   2   5
ATOM      5  C   UNL d   1      23.321 -17.858  -0.560  0.00  0.00     0.032 A 
ATOM      6  C   UNL d   1      24.281 -18.575   0.168  0.00  0.00     0.017 A 
ATOM      7  C   UNL d   1      25.591 -18.090   0.249  0.00  0.00     0.001 A 
ATOM      8  C   UNL d   1      25.961 -16.944  -0.457  0.00  0.00     0.000 A 
ATOM      9  C   UNL d   1      25.019 -16.266  -1.228  0.00  0.00     0.001 A 
ATOM     10  C   UNL d   1      23.702 -16.722  -1.281  0.00  0.00     0.017 A 
ENDBRANCH   2   5
BRANCH   3  11
ATOM     11  C   UNL d   1      20.170 -19.847   0.172  0.00  0.00     0.155 C 
BRANCH  11  12
ATOM     12  C   UNL d   1      19.593 -19.437   1.537  0.00  0.00     0.149 C 
BRANCH  12  13
ATOM     13  C   UNL d   1      18.627 -20.482   2.103  0.00  0.00     0.148 C 
ATOM     14 CL   UNL d   1      17.993 -21.575   0.858  0.00  0.00    -0.128 Cl
ENDBRANCH  12  13
BRANCH  12  15
ATOM     15  O   UNL d   1      20.656 -19.223   2.480  0.00  0.00    -0.393 OA
ATOM     16  H   UNL d   1      21.301 -19.943   2.390  0.00  0.00     0.210 HD
ENDBRANCH  12  15
ENDBRANCH  11  12
ENDBRANCH   3  11
TORSDOF 5
ENDMDL
MODEL 2
REMARK VINA RESULT:    -7.048      1.350      1.946
REMARK INTER + INTRA:          -9.625
REMARK INTER:                  -8.539
REMARK INTRA:                  -1.086
REMARK CONF_INDEPENDENT:        1.492
REMARK UNBOUND:                -1.086
REMARK  5 active torsions:
REMARK  status: ('A' for Active; 'I' for Inactive)
REMARK       I    between atoms: C_2  and  N_3 
REMARK    1  A    between atoms: C_2  and  C_9 
REMARK    2  A    between atoms: N_3  and  C_4 
REMARK    3  A    between atoms: C_5  and  C_4 
REMARK    4  A    between atoms: C_5  and  C_7 
REMARK    5  A    between atoms: C_5  and  O_6 
ROOT
ATOM      1  O   UNL d   1      21.272 -17.168  -0.895  0.00  0.00    -0.268 OA
ATOM      2  C   UNL d   1      22.156 -17.840  -0.376  0.00  0.00     0.251 C 
ATOM      3  N   UNL d   1      21.910 -18.907   0.458  0.00  0.00    -0.354 N 
ATOM      4  H   UNL d   1      22.700 -19.345   0.911  0.00  0.00     0.162 HD
ENDROOT
BRANCH   2   5
ATOM      5  C   UNL d   1      23.590 -17.467  -0.529  0.00  0.00     0.032 A 
ATOM      6  C   UNL d   1      24.030 -16.485  -1.427  0.00  0.00     0.017 A 
ATOM      7  C   UNL d   1      25.402 -16.321  -1.653  0.00  0.00     0.001 A 
ATOM      8  C   UNL d   1      26.329 -17.074  -0.930  0.00  0.00     0.000 A 
ATOM      9  C   UNL d   1      25.888 -18.009   0.006  0.00  0.00     0.001 A 
ATOM     10  C   UNL d   1      24.522 -18.205   0.207  0.00  0.00     0.017 A 
ENDBRANCH   2   5
BRANCH   3  11
ATOM     11  C   UNL d   1      20.548 -19.330   0.774  0.00  0.00     0.155 C 
BRANCH  11  12
ATOM     12  C   UNL d   1      19.951 -20.243  -0.311  0.00  0.00     0.149 C 
BRANCH  12  13
ATOM     13  C   UNL d   1      18.441 -20.435  -0.149  0.00  0.00     0.148 C 
ATOM     14 CL   UNL d   1      18.029 -21.573   1.149  0.00  0.00    -0.128 Cl
ENDBRANCH  12  13
BRANCH  12  15
ATOM     15  O   UNL d   1      20.217 -19.701  -1.615  0.00  0.00    -0.393 OA
ATOM     16  H   UNL d   1      20.006 -18.753  -1.607  0.00  0.00     0.210 HD
ENDBRANCH  12  15
ENDBRANCH  11  12
ENDBRANCH   3  11
TORSDOF 5
ENDMDL
MODEL 3
REMARK VINA RESULT:    -7.031      1.345      1.455
REMARK INTER + INTRA:          -9.620
REMARK INTER:                  -8.522
REMARK INTRA:                  -1.098
REMARK CONF_INDEPENDENT:        1.492
REMARK UNBOUND:                -1.098
REMARK  5 active torsions:
REMARK  status: ('A' for Active; 'I' for Inactive)
REMARK       I    between atoms: C_2  and  N_3 
REMARK    1  A    between atoms: C_2  and  C_9 
REMARK    2  A    between atoms: N_3  and  C_4 
REMARK    3  A    between atoms: C_5  and  C_4 
REMARK    4  A    between atoms: C_5  and  C_7 
REMARK    5  A    between atoms: C_5  and  O_6 
ROOT
ATOM      1  O   UNL d   1      21.312 -17.194  -0.916  0.00  0.00    -0.268 OA
ATOM      2  C   UNL d   1      22.175 -17.887  -0.390  0.00  0.00     0.251 C 
ATOM      3  N   UNL d   1      21.897 -18.946   0.445  0.00  0.00    -0.354 N 
ATOM      4  H   UNL d   1      22.672 -19.403   0.905  0.00  0.00     0.162 HD
ENDROOT
BRANCH   2   5
ATOM      5  C   UNL d   1      23.618 -17.551  -0.533  0.00  0.00     0.032 A 
ATOM      6  C   UNL d   1      24.635 -18.256   0.125  0.00  0.00     0.017 A 
ATOM      7  C   UNL d   1      25.946 -17.768   0.094  0.00  0.00     0.001 A 
ATOM      8  C   UNL d   1      26.256 -16.631  -0.654  0.00  0.00     0.000 A 
ATOM      9  C   UNL d   1      25.253 -15.965  -1.356  0.00  0.00     0.001 A 
ATOM     10  C   UNL d   1      23.937 -16.423  -1.297  0.00  0.00     0.017 A 
ENDBRANCH   2   5
BRANCH   3  11
ATOM     11  C   UNL d   1      20.522 -19.335   0.752  0.00  0.00     0.155 C 
BRANCH  11  12
ATOM     12  C   UNL d   1      19.916 -20.248  -0.327  0.00  0.00     0.149 C 
BRANCH  12  13
ATOM     13  C   UNL d   1      18.410 -20.453  -0.144  0.00  0.00     0.148 C 
ATOM     14 CL   UNL d   1      18.026 -21.552   1.196  0.00  0.00    -0.128 Cl
ENDBRANCH  12  13
BRANCH  12  15
ATOM     15  O   UNL d   1      20.157 -19.698  -1.633  0.00  0.00    -0.393 OA
ATOM     16  H   UNL d   1      19.968 -18.746  -1.610  0.00  0.00     0.210 HD
ENDBRANCH  12  15
ENDBRANCH  11  12
ENDBRANCH   3  11
TORSDOF 5
ENDMDL
MODEL 4
REMARK VINA RESULT:    -6.816      2.882      5.996
REMARK INTER + INTRA:          -9.420
REMARK INTER:                  -8.307
REMARK INTRA:                  -1.113
REMARK CONF_INDEPENDENT:        1.492
REMARK UNBOUND:                -1.113
REMARK  5 active torsions:
REMARK  status: ('A' for Active; 'I' for Inactive)
REMARK       I    between atoms: C_2  and  N_3 
REMARK    1  A    between atoms: C_2  and  C_9 
REMARK    2  A    between atoms: N_3  and  C_4 
REMARK    3  A    between atoms: C_5  and  C_4 
REMARK    4  A    between atoms: C_5  and  C_7 
REMARK    5  A    between atoms: C_5  and  O_6 
ROOT
ATOM      1  O   UNL d   1      20.738 -17.825  -1.257  0.00  0.00    -0.268 OA
ATOM      2  C   UNL d   1      21.033 -18.737  -0.492  0.00  0.00     0.251 C 
ATOM      3  N   UNL d   1      22.310 -19.234  -0.358  0.00  0.00    -0.354 N 
ATOM      4  H   UNL d   1      22.442 -20.046   0.230  0.00  0.00     0.162 HD
ENDROOT
BRANCH   2   5
ATOM      5  C   UNL d   1      19.983 -19.458   0.279  0.00  0.00     0.032 A 
ATOM      6  C   UNL d   1      20.027 -19.609   1.672  0.00  0.00     0.017 A 
ATOM      7  C   UNL d   1      19.111 -20.456   2.304  0.00  0.00     0.001 A 
ATOM      8  C   UNL d   1      18.108 -21.085   1.564  0.00  0.00     0.000 A 
ATOM      9  C   UNL d   1      18.030 -20.887   0.187  0.00  0.00     0.001 A 
ATOM     10  C   UNL d   1      18.964 -20.074  -0.455  0.00  0.00     0.017 A 
ENDBRANCH   2   5
BRANCH   3  11
ATOM     11  C   UNL d   1      23.427 -18.685  -1.121  0.00  0.00     0.155 C 
BRANCH  11  12
ATOM     12  C   UNL d   1      23.966 -17.378  -0.515  0.00  0.00     0.149 C 
BRANCH  12  13
ATOM     13  C   UNL d   1      25.406 -17.083  -0.944  0.00  0.00     0.148 C 
ATOM     14 CL   UNL d   1      26.603 -17.665   0.231  0.00  0.00    -0.128 Cl
ENDBRANCH  12  13
BRANCH  12  15
ATOM     15  O   UNL d   1      23.129 -16.274  -0.897  0.00  0.00    -0.393 OA
ATOM     16  H   UNL d   1      22.296 -16.624  -1.254  0.00  0.00     0.210 HD
ENDBRANCH  12  15
ENDBRANCH  11  12
ENDBRANCH   3  11
TORSDOF 5
ENDMDL
MODEL 5
REMARK VINA RESULT:    -6.026      1.787      2.890
REMARK INTER + INTRA:          -8.569
REMARK INTER:                  -7.518
REMARK INTRA:                  -1.051
REMARK CONF_INDEPENDENT:        1.492
REMARK UNBOUND:                -1.051
REMARK  5 active torsions:
REMARK  status: ('A' for Active; 'I' for Inactive)
REMARK       I    between atoms: C_2  and  N_3 
REMARK    1  A    between atoms: C_2  and  C_9 
REMARK    2  A    between atoms: N_3  and  C_4 
REMARK    3  A    between atoms: C_5  and  C_4 
REMARK    4  A    between atoms: C_5  and  C_7 
REMARK    5  A    between atoms: C_5  and  O_6 
ROOT
ATOM      1  O   UNL d   1      24.902 -18.835   0.219  0.00  0.00    -0.268 OA
ATOM      2  C   UNL d   1      24.312 -18.061  -0.527  0.00  0.00     0.251 C 
ATOM      3  N   UNL d   1      22.991 -18.210  -0.887  0.00  0.00    -0.354 N 
ATOM      4  H   UNL d   1      22.615 -17.575  -1.577  0.00  0.00     0.162 HD
ENDROOT
BRANCH   2   5
ATOM      5  C   UNL d   1      25.034 -16.946  -1.197  0.00  0.00     0.032 A 
ATOM      6  C   UNL d   1      24.390 -15.990  -1.995  0.00  0.00     0.017 A 
ATOM      7  C   UNL d   1      25.153 -15.087  -2.744  0.00  0.00     0.001 A 
ATOM      8  C   UNL d   1      26.545 -15.083  -2.636  0.00  0.00     0.000 A 
ATOM      9  C   UNL d   1      27.181 -15.997  -1.796  0.00  0.00     0.001 A 
ATOM     10  C   UNL d   1      26.428 -16.925  -1.077  0.00  0.00     0.017 A 
ENDBRANCH   2   5
BRANCH   3  11
ATOM     11  C   UNL d   1      22.181 -19.314  -0.379  0.00  0.00     0.155 C 
BRANCH  11  12
ATOM     12  C   UNL d   1      20.686 -19.139  -0.698  0.00  0.00     0.149 C 
BRANCH  12  13
ATOM     13  C   UNL d   1      19.798 -19.325   0.535  0.00  0.00     0.148 C 
ATOM     14 CL   UNL d   1      18.866 -20.835   0.488  0.00  0.00    -0.128 Cl
ENDBRANCH  12  13
BRANCH  12  15
ATOM     15  O   UNL d   1      20.448 -17.836  -1.254  0.00  0.00    -0.393 OA
ATOM     16  H   UNL d   1      19.496 -17.737  -1.420  0.00  0.00     0.210 HD
ENDBRANCH  12  15
ENDBRANCH  11  12
ENDBRANCH   3  11
TORSDOF 5
ENDMDL
MODEL 6
REMARK VINA RESULT:    -5.750     11.258     13.106
REMARK INTER + INTRA:          -7.574
REMARK INTER:                  -7.241
REMARK INTRA:                  -0.333
REMARK CONF_INDEPENDENT:        1.492
REMARK UNBOUND:                -0.333
REMARK  5 active torsions:
REMARK  status: ('A' for Active; 'I' for Inactive)
REMARK       I    between atoms: C_2  and  N_3 
REMARK    1  A    between atoms: C_2  and  C_9 
REMARK    2  A    between atoms: N_3  and  C_4 
REMARK    3  A    between atoms: C_5  and  C_4 
REMARK    4  A    between atoms: C_5  and  C_7 
REMARK    5  A    between atoms: C_5  and  O_6 
ROOT
ATOM      1  O   UNL d   1      31.133 -21.575   6.979  0.00  0.00    -0.268 OA
ATOM      2  C   UNL d   1      32.140 -21.701   6.291  0.00  0.00     0.251 C 
ATOM      3  N   UNL d   1      32.146 -21.575   4.921  0.00  0.00    -0.354 N 
ATOM      4  H   UNL d   1      33.004 -21.785   4.430  0.00  0.00     0.162 HD
ENDROOT
BRANCH   2   5
ATOM      5  C   UNL d   1      33.433 -22.122   6.898  0.00  0.00     0.032 A 
ATOM      6  C   UNL d   1      33.827 -23.463   7.001  0.00  0.00     0.017 A 
ATOM      7  C   UNL d   1      34.962 -23.795   7.750  0.00  0.00     0.001 A 
ATOM      8  C   UNL d   1      35.744 -22.790   8.324  0.00  0.00     0.000 A 
ATOM      9  C   UNL d   1      35.382 -21.453   8.170  0.00  0.00     0.001 A 
ATOM     10  C   UNL d   1      34.231 -21.119   7.458  0.00  0.00     0.017 A 
ENDBRANCH   2   5
BRANCH   3  11
ATOM     11  C   UNL d   1      30.929 -21.257   4.178  0.00  0.00     0.155 C 
BRANCH  11  12
ATOM     12  C   UNL d   1      31.155 -21.248   2.657  0.00  0.00     0.149 C 
BRANCH  12  13
ATOM     13  C   UNL d   1      32.455 -21.950   2.253  0.00  0.00     0.148 C 
ATOM     14 CL   UNL d   1      32.287 -22.896   0.761  0.00  0.00    -0.128 Cl
ENDBRANCH  12  13
BRANCH  12  15
ATOM     15  O   UNL d   1      30.053 -21.884   1.989  0.00  0.00    -0.393 OA
ATOM     16  H   UNL d   1      29.442 -21.198   1.675  0.00  0.00     0.210 HD
ENDBRANCH  12  15
ENDBRANCH  11  12
ENDBRANCH   3  11
TORSDOF 5
ENDMDL
MODEL 7
REMARK VINA RESULT:    -5.499      4.860      7.151
REMARK INTER + INTRA:          -8.133
REMARK INTER:                  -6.990
REMARK INTRA:                  -1.143
REMARK CONF_INDEPENDENT:        1.492
REMARK UNBOUND:                -1.143
REMARK  5 active torsions:
REMARK  status: ('A' for Active; 'I' for Inactive)
REMARK       I    between atoms: C_2  and  N_3 
REMARK    1  A    between atoms: C_2  and  C_9 
REMARK    2  A    between atoms: N_3  and  C_4 
REMARK    3  A    between atoms: C_5  and  C_4 
REMARK    4  A    between atoms: C_5  and  C_7 
REMARK    5  A    between atoms: C_5  and  O_6 
ROOT
ATOM      1  O   UNL d   1      26.047 -15.631  -0.163  0.00  0.00    -0.268 OA
ATOM      2  C   UNL d   1      25.243 -15.950  -1.031  0.00  0.00     0.251 C 
ATOM      3  N   UNL d   1      25.138 -15.308  -2.244  0.00  0.00    -0.354 N 
ATOM      4  H   UNL d   1      24.386 -15.582  -2.861  0.00  0.00     0.162 HD
ENDROOT
BRANCH   2   5
ATOM      5  C   UNL d   1      24.225 -17.007  -0.779  0.00  0.00     0.032 A 
ATOM      6  C   UNL d   1      24.561 -18.343  -0.520  0.00  0.00     0.017 A 
ATOM      7  C   UNL d   1      23.554 -19.314  -0.481  0.00  0.00     0.001 A 
ATOM      8  C   UNL d   1      22.215 -18.944  -0.617  0.00  0.00     0.000 A 
ATOM      9  C   UNL d   1      21.879 -17.606  -0.816  0.00  0.00     0.001 A 
ATOM     10  C   UNL d   1      22.881 -16.639  -0.895  0.00  0.00     0.017 A 
ENDBRANCH   2   5
BRANCH   3  11
ATOM     11  C   UNL d   1      26.010 -14.190  -2.594  0.00  0.00     0.155 C 
BRANCH  11  12
ATOM     12  C   UNL d   1      25.512 -13.422  -3.831  0.00  0.00     0.149 C 
BRANCH  12  13
ATOM     13  C   UNL d   1      26.588 -13.292  -4.913  0.00  0.00     0.148 C 
ATOM     14 CL   UNL d   1      27.385 -14.836  -5.276  0.00  0.00    -0.128 Cl
ENDBRANCH  12  13
BRANCH  12  15
ATOM     15  O   UNL d   1      24.362 -14.078  -4.391  0.00  0.00    -0.393 OA
ATOM     16  H   UNL d   1      23.934 -13.472  -5.018  0.00  0.00     0.210 HD
ENDBRANCH  12  15
ENDBRANCH  11  12
ENDBRANCH   3  11
TORSDOF 5
ENDMDL
MODEL 8
REMARK VINA RESULT:    -4.895      5.843      8.078
REMARK INTER + INTRA:          -7.532
REMARK INTER:                  -6.387
REMARK INTRA:                  -1.145
REMARK CONF_INDEPENDENT:        1.492
REMARK UNBOUND:                -1.145
REMARK  5 active torsions:
REMARK  status: ('A' for Active; 'I' for Inactive)
REMARK       I    between atoms: C_2  and  N_3 
REMARK    1  A    between atoms: C_2  and  C_9 
REMARK    2  A    between atoms: N_3  and  C_4 
REMARK    3  A    between atoms: C_5  and  C_4 
REMARK    4  A    between atoms: C_5  and  C_7 
REMARK    5  A    between atoms: C_5  and  O_6 
ROOT
ATOM      1  O   UNL d   1      24.816 -14.820  -3.596  0.00  0.00    -0.268 OA
ATOM      2  C   UNL d   1      25.686 -15.199  -2.819  0.00  0.00     0.251 C 
ATOM      3  N   UNL d   1      27.014 -14.858  -2.938  0.00  0.00    -0.354 N 
ATOM      4  H   UNL d   1      27.672 -15.290  -2.305  0.00  0.00     0.162 HD
ENDROOT
BRANCH   2   5
ATOM      5  C   UNL d   1      25.371 -16.169  -1.734  0.00  0.00     0.032 A 
ATOM      6  C   UNL d   1      26.360 -16.839  -1.000  0.00  0.00     0.017 A 
ATOM      7  C   UNL d   1      25.993 -17.873  -0.130  0.00  0.00     0.001 A 
ATOM      8  C   UNL d   1      24.646 -18.181   0.067  0.00  0.00     0.000 A 
ATOM      9  C   UNL d   1      23.661 -17.473  -0.620  0.00  0.00     0.001 A 
ATOM     10  C   UNL d   1      24.022 -16.469  -1.518  0.00  0.00     0.017 A 
ENDBRANCH   2   5
BRANCH   3  11
ATOM     11  C   UNL d   1      27.485 -13.987  -4.012  0.00  0.00     0.155 C 
BRANCH  11  12
ATOM     12  C   UNL d   1      27.973 -14.777  -5.238  0.00  0.00     0.149 C 
BRANCH  12  13
ATOM     13  C   UNL d   1      29.158 -15.691  -4.912  0.00  0.00     0.148 C 
ATOM     14 CL   UNL d   1      30.036 -16.218  -6.363  0.00  0.00    -0.128 Cl
ENDBRANCH  12  13
BRANCH  12  15
ATOM     15  O   UNL d   1      26.903 -15.573  -5.772  0.00  0.00    -0.393 OA
ATOM     16  H   UNL d   1      26.135 -15.499  -5.182  0.00  0.00     0.210 HD
ENDBRANCH  12  15
ENDBRANCH  11  12
ENDBRANCH   3  11
TORSDOF 5
ENDMDL
MODEL 9
REMARK VINA RESULT:    -4.834      2.941      4.271
REMARK INTER + INTRA:          -7.434
REMARK INTER:                  -6.325
REMARK INTRA:                  -1.109
REMARK CONF_INDEPENDENT:        1.492
REMARK UNBOUND:                -1.109
REMARK  5 active torsions:
REMARK  status: ('A' for Active; 'I' for Inactive)
REMARK       I    between atoms: C_2  and  N_3 
REMARK    1  A    between atoms: C_2  and  C_9 
REMARK    2  A    between atoms: N_3  and  C_4 
REMARK    3  A    between atoms: C_5  and  C_4 
REMARK    4  A    between atoms: C_5  and  C_7 
REMARK    5  A    between atoms: C_5  and  O_6 
ROOT
ATOM      1  O   UNL d   1      25.520 -15.807  -0.143  0.00  0.00    -0.268 OA
ATOM      2  C   UNL d   1      25.044 -16.159  -1.216  0.00  0.00     0.251 C 
ATOM      3  N   UNL d   1      24.288 -17.299  -1.376  0.00  0.00    -0.354 N 
ATOM      4  H   UNL d   1      24.014 -17.557  -2.314  0.00  0.00     0.162 HD
ENDROOT
BRANCH   2   5
ATOM      5  C   UNL d   1      25.355 -15.419  -2.470  0.00  0.00     0.032 A 
ATOM      6  C   UNL d   1      26.549 -15.595  -3.184  0.00  0.00     0.017 A 
ATOM      7  C   UNL d   1      26.854 -14.733  -4.243  0.00  0.00     0.001 A 
ATOM      8  C   UNL d   1      25.941 -13.754  -4.639  0.00  0.00     0.000 A 
ATOM      9  C   UNL d   1      24.728 -13.619  -3.965  0.00  0.00     0.001 A 
ATOM     10  C   UNL d   1      24.435 -14.450  -2.884  0.00  0.00     0.017 A 
ENDBRANCH   2   5
BRANCH   3  11
ATOM     11  C   UNL d   1      23.980 -18.175  -0.249  0.00  0.00     0.155 C 
BRANCH  11  12
ATOM     12  C   UNL d   1      22.870 -19.187  -0.579  0.00  0.00     0.149 C 
BRANCH  12  13
ATOM     13  C   UNL d   1      21.597 -18.950   0.240  0.00  0.00     0.148 C 
ATOM     14 CL   UNL d   1      20.153 -19.647  -0.521  0.00  0.00    -0.128 Cl
ENDBRANCH  12  13
BRANCH  12  15
ATOM     15  O   UNL d   1      22.544 -19.125  -1.977  0.00  0.00    -0.393 OA
ATOM     16  H   UNL d   1      21.907 -18.406  -2.117  0.00  0.00     0.210 HD
ENDBRANCH  12  15
ENDBRANCH  11  12
ENDBRANCH   3  11
TORSDOF 5
ENDMDL
