MODEL 1
REMARK VINA RESULT:    -8.581      0.000      0.000
REMARK INTER + INTRA:         -14.138
REMARK INTER:                 -12.160
REMARK INTRA:                  -1.978
REMARK CONF_INDEPENDENT:        3.580
REMARK UNBOUND:                -1.978
REMARK  12 active torsions:
REMARK  status: ('A' for Active; 'I' for Inactive)
REMARK    1  A    between atoms: C_2  and  C_3 
REMARK    2  A    between atoms: C_3  and  C_4 
REMARK    3  A    between atoms: C_4  and  C_5 
REMARK    4  A    between atoms: C_6  and  C_5 
REMARK    5  A    between atoms: C_6  and  N_21 
REMARK    6  A    between atoms: C_6  and  C_7 
REMARK       I    between atoms: C_7  and  N_9 
REMARK    7  A    between atoms: N_9  and  C_10 
REMARK    8  A    between atoms: C_10  and  S_11 
REMARK    9  A    between atoms: S_11  and  C_14 
REMARK       I    between atoms: N_21  and  C_23 
REMARK   10  A    between atoms: C_23  and  C_25 
REMARK   11  A    between atoms: C_27  and  N_28 
REMARK   12  A    between atoms: C_32  and  N_33 
ROOT
ATOM      1  C   UNL d   1      25.445 -16.397  -0.298  0.00  0.00     0.179 C 
ENDROOT
BRANCH   1   2
ATOM      2  N   UNL d   1      26.839 -16.664   0.296  0.00  0.00    -0.339 N 
ATOM      3  C   UNL d   1      27.336 -18.040   0.257  0.00  0.00     0.154 C 
ATOM      4  C   UNL d   1      27.841 -15.696   0.654  0.00  0.00     0.254 C 
ATOM      5  O   UNL d   1      29.008 -15.868   0.290  0.00  0.00    -0.267 OA
BRANCH   4   6
ATOM      6  C   UNL d   1      27.616 -14.508   1.620  0.00  0.00     0.036 C 
ATOM      7  C   UNL d   1      27.287 -13.222   1.167  0.00  0.00     0.053 C 
ATOM      8  C   UNL d   1      27.151 -12.140   2.101  0.00  0.00     0.106 C 
ATOM      9  C   UNL d   1      27.294 -12.294   3.482  0.00  0.00     0.072 C 
ATOM     10  C   UNL d   1      27.643 -13.520   3.923  0.00  0.00     0.106 C 
ATOM     11  C   UNL d   1      27.883 -14.535   2.987  0.00  0.00     0.053 C 
BRANCH   8  12
ATOM     12  N   UNL d   1      26.849 -10.787   1.654  0.00  0.00    -0.116 N 
ATOM     13  O   UNL d   1      27.158 -10.483   0.501  0.00  0.00    -0.532 OA
ATOM     14  O   UNL d   1      26.295 -10.034   2.469  0.00  0.00    -0.532 OA
ENDBRANCH   8  12
BRANCH  10  15
ATOM     15  N   UNL d   1      27.855 -13.763   5.348  0.00  0.00    -0.116 N 
ATOM     16  O   UNL d   1      28.479 -14.788   5.689  0.00  0.00    -0.532 OA
ATOM     17  O   UNL d   1      27.406 -12.960   6.125  0.00  0.00    -0.532 OA
ENDBRANCH  10  15
ENDBRANCH   4   6
ENDBRANCH   1   2
BRANCH   1  18
ATOM     18  C   UNL d   1      25.260 -15.463  -1.583  0.00  0.00     0.241 C 
ATOM     19  O   UNL d   1      24.273 -15.429  -2.313  0.00  0.00    -0.271 OA
ATOM     20  N   UNL d   1      26.265 -14.567  -1.871  0.00  0.00    -0.346 N 
ATOM     21  H   UNL d   1      27.172 -14.596  -1.422  0.00  0.00     0.163 HD
BRANCH  20  22
ATOM     22  C   UNL d   1      25.959 -13.316  -2.578  0.00  0.00     0.268 C 
BRANCH  22  23
ATOM     23  S   UNL d   1      25.776 -13.495  -4.366  0.00  0.00     0.192 S 
ATOM     24  O   UNL d   1      24.724 -14.447  -4.644  0.00  0.00    -0.221 OA
ATOM     25  O   UNL d   1      25.711 -12.155  -4.924  0.00  0.00    -0.221 OA
BRANCH  23  26
ATOM     26  C   UNL d   1      27.259 -14.240  -4.940  0.00  0.00     0.060 A 
ATOM     27  C   UNL d   1      27.838 -15.296  -4.227  0.00  0.00     0.024 A 
ATOM     28  C   UNL d   1      28.942 -15.953  -4.766  0.00  0.00     0.008 A 
ATOM     29  C   UNL d   1      29.464 -15.549  -6.001  0.00  0.00    -0.062 A 
ATOM     30  C   UNL d   1      30.636 -16.262  -6.606  0.00  0.00     0.048 C 
ATOM     31  C   UNL d   1      28.882 -14.472  -6.684  0.00  0.00     0.008 A 
ATOM     32  C   UNL d   1      27.779 -13.816  -6.157  0.00  0.00     0.024 A 
ENDBRANCH  23  26
ENDBRANCH  22  23
ENDBRANCH  20  22
ENDBRANCH   1  18
BRANCH   1  33
ATOM     33  C   UNL d   1      24.908 -17.766  -0.676  0.00  0.00     0.035 C 
BRANCH  33  34
ATOM     34  C   UNL d   1      23.726 -18.392  -0.026  0.00  0.00     0.002 C 
BRANCH  34  35
ATOM     35  C   UNL d   1      22.775 -19.129  -0.901  0.00  0.00    -0.000 C 
BRANCH  35  36
ATOM     36  C   UNL d   1      21.478 -18.376  -0.895  0.00  0.00    -0.005 C 
ATOM     37  C   UNL d   1      20.343 -19.341  -0.741  0.00  0.00     0.005 C 
ENDBRANCH  35  36
ENDBRANCH  34  35
ENDBRANCH  33  34
ENDBRANCH   1  33
TORSDOF 12
ENDMDL
MODEL 2
REMARK VINA RESULT:    -8.303      3.528      6.865
REMARK INTER + INTRA:         -14.125
REMARK INTER:                 -11.882
REMARK INTRA:                  -2.243
REMARK CONF_INDEPENDENT:        3.580
REMARK UNBOUND:                -2.243
REMARK  12 active torsions:
REMARK  status: ('A' for Active; 'I' for Inactive)
REMARK    1  A    between atoms: C_2  and  C_3 
REMARK    2  A    between atoms: C_3  and  C_4 
REMARK    3  A    between atoms: C_4  and  C_5 
REMARK    4  A    between atoms: C_6  and  C_5 
REMARK    5  A    between atoms: C_6  and  N_21 
REMARK    6  A    between atoms: C_6  and  C_7 
REMARK       I    between atoms: C_7  and  N_9 
REMARK    7  A    between atoms: N_9  and  C_10 
REMARK    8  A    between atoms: C_10  and  S_11 
REMARK    9  A    between atoms: S_11  and  C_14 
REMARK       I    between atoms: N_21  and  C_23 
REMARK   10  A    between atoms: C_23  and  C_25 
REMARK   11  A    between atoms: C_27  and  N_28 
REMARK   12  A    between atoms: C_32  and  N_33 
ROOT
ATOM      1  C   UNL d   1      28.158 -13.583   3.268  0.00  0.00     0.179 C 
ENDROOT
BRANCH   1   2
ATOM      2  N   UNL d   1      29.492 -12.818   3.353  0.00  0.00    -0.339 N 
ATOM      3  C   UNL d   1      30.702 -13.601   3.613  0.00  0.00     0.154 C 
ATOM      4  C   UNL d   1      29.754 -11.462   2.952  0.00  0.00     0.254 C 
ATOM      5  O   UNL d   1      30.749 -11.215   2.264  0.00  0.00    -0.267 OA
BRANCH   4   6
ATOM      6  C   UNL d   1      28.971 -10.225   3.454  0.00  0.00     0.036 C 
ATOM      7  C   UNL d   1      29.285  -9.576   4.656  0.00  0.00     0.053 C 
ATOM      8  C   UNL d   1      28.488  -8.470   5.108  0.00  0.00     0.106 C 
ATOM      9  C   UNL d   1      27.405  -7.958   4.390  0.00  0.00     0.072 C 
ATOM     10  C   UNL d   1      27.077  -8.598   3.249  0.00  0.00     0.106 C 
ATOM     11  C   UNL d   1      27.795  -9.745   2.883  0.00  0.00     0.053 C 
BRANCH   8  12
ATOM     12  N   UNL d   1      28.767  -7.802   6.373  0.00  0.00    -0.116 N 
ATOM     13  O   UNL d   1      29.733  -8.197   7.028  0.00  0.00    -0.532 OA
ATOM     14  O   UNL d   1      28.011  -6.875   6.700  0.00  0.00    -0.532 OA
ENDBRANCH   8  12
BRANCH  10  15
ATOM     15  N   UNL d   1      25.933  -8.157   2.453  0.00  0.00    -0.116 N 
ATOM     16  O   UNL d   1      25.866  -6.956   2.123  0.00  0.00    -0.532 OA
ATOM     17  O   UNL d   1      25.105  -8.982   2.162  0.00  0.00    -0.532 OA
ENDBRANCH  10  15
ENDBRANCH   4   6
ENDBRANCH   1   2
BRANCH   1  18
ATOM     18  C   UNL d   1      27.579 -14.079   1.862  0.00  0.00     0.241 C 
ATOM     19  O   UNL d   1      26.567 -13.657   1.312  0.00  0.00    -0.271 OA
ATOM     20  N   UNL d   1      28.307 -15.020   1.169  0.00  0.00    -0.346 N 
ATOM     21  H   UNL d   1      29.079 -15.530   1.580  0.00  0.00     0.163 HD
BRANCH  20  22
ATOM     22  C   UNL d   1      28.231 -15.077  -0.297  0.00  0.00     0.268 C 
BRANCH  22  23
ATOM     23  S   UNL d   1      27.940 -16.730  -0.965  0.00  0.00     0.192 S 
ATOM     24  O   UNL d   1      28.134 -16.705  -2.398  0.00  0.00    -0.221 OA
ATOM     25  O   UNL d   1      28.695 -17.661  -0.144  0.00  0.00    -0.221 OA
BRANCH  23  26
ATOM     26  C   UNL d   1      26.233 -17.066  -0.721  0.00  0.00     0.060 A 
ATOM     27  C   UNL d   1      25.264 -16.295  -1.374  0.00  0.00     0.024 A 
ATOM     28  C   UNL d   1      23.923 -16.658  -1.264  0.00  0.00     0.008 A 
ATOM     29  C   UNL d   1      23.559 -17.775  -0.502  0.00  0.00    -0.062 A 
ATOM     30  C   UNL d   1      22.124 -18.193  -0.394  0.00  0.00     0.048 C 
ATOM     31  C   UNL d   1      24.546 -18.516   0.163  0.00  0.00     0.008 A 
ATOM     32  C   UNL d   1      25.885 -18.164   0.055  0.00  0.00     0.024 A 
ENDBRANCH  23  26
ENDBRANCH  22  23
ENDBRANCH  20  22
ENDBRANCH   1  18
BRANCH   1  33
ATOM     33  C   UNL d   1      28.360 -14.824   4.117  0.00  0.00     0.035 C 
BRANCH  33  34
ATOM     34  C   UNL d   1      28.206 -14.841   5.596  0.00  0.00     0.002 C 
BRANCH  34  35
ATOM     35  C   UNL d   1      29.250 -14.151   6.400  0.00  0.00    -0.000 C 
BRANCH  35  36
ATOM     36  C   UNL d   1      28.577 -13.057   7.173  0.00  0.00    -0.005 C 
ATOM     37  C   UNL d   1      27.780 -12.202   6.236  0.00  0.00     0.005 C 
ENDBRANCH  35  36
ENDBRANCH  34  35
ENDBRANCH  33  34
ENDBRANCH   1  33
TORSDOF 12
ENDMDL
MODEL 3
REMARK VINA RESULT:    -7.771      2.599      4.260
REMARK INTER + INTRA:         -14.316
REMARK INTER:                 -11.350
REMARK INTRA:                  -2.966
REMARK CONF_INDEPENDENT:        3.580
REMARK UNBOUND:                -2.966
REMARK  12 active torsions:
REMARK  status: ('A' for Active; 'I' for Inactive)
REMARK    1  A    between atoms: C_2  and  C_3 
REMARK    2  A    between atoms: C_3  and  C_4 
REMARK    3  A    between atoms: C_4  and  C_5 
REMARK    4  A    between atoms: C_6  and  C_5 
REMARK    5  A    between atoms: C_6  and  N_21 
REMARK    6  A    between atoms: C_6  and  C_7 
REMARK       I    between atoms: C_7  and  N_9 
REMARK    7  A    between atoms: N_9  and  C_10 
REMARK    8  A    between atoms: C_10  and  S_11 
REMARK    9  A    between atoms: S_11  and  C_14 
REMARK       I    between atoms: N_21  and  C_23 
REMARK   10  A    between atoms: C_23  and  C_25 
REMARK   11  A    between atoms: C_27  and  N_28 
REMARK   12  A    between atoms: C_32  and  N_33 
ROOT
ATOM      1  C   UNL d   1      26.687 -14.910   0.455  0.00  0.00     0.179 C 
ENDROOT
BRANCH   1   2
ATOM      2  N   UNL d   1      27.630 -14.159   1.412  0.00  0.00    -0.339 N 
ATOM      3  C   UNL d   1      27.985 -14.825   2.667  0.00  0.00     0.154 C 
ATOM      4  C   UNL d   1      28.426 -12.996   1.128  0.00  0.00     0.254 C 
ATOM      5  O   UNL d   1      29.614 -12.976   1.465  0.00  0.00    -0.267 OA
BRANCH   4   6
ATOM      6  C   UNL d   1      27.874 -11.662   0.569  0.00  0.00     0.036 C 
ATOM      7  C   UNL d   1      28.089 -11.256  -0.755  0.00  0.00     0.053 C 
ATOM      8  C   UNL d   1      27.608  -9.981  -1.207  0.00  0.00     0.106 C 
ATOM      9  C   UNL d   1      26.885  -9.102  -0.398  0.00  0.00     0.072 C 
ATOM     10  C   UNL d   1      26.702  -9.470   0.887  0.00  0.00     0.106 C 
ATOM     11  C   UNL d   1      27.277 -10.666   1.338  0.00  0.00     0.053 C 
BRANCH   8  12
ATOM     12  N   UNL d   1      27.852  -9.517  -2.566  0.00  0.00    -0.116 N 
ATOM     13  O   UNL d   1      28.460 -10.271  -3.328  0.00  0.00    -0.532 OA
ATOM     14  O   UNL d   1      27.426  -8.391  -2.863  0.00  0.00    -0.532 OA
ENDBRANCH   8  12
BRANCH  10  15
ATOM     15  N   UNL d   1      25.992  -8.594   1.817  0.00  0.00    -0.116 N 
ATOM     16  O   UNL d   1      26.279  -8.658   3.029  0.00  0.00    -0.532 OA
ATOM     17  O   UNL d   1      25.157  -7.857   1.362  0.00  0.00    -0.532 OA
ENDBRANCH  10  15
ENDBRANCH   4   6
ENDBRANCH   1   2
BRANCH   1  18
ATOM     18  C   UNL d   1      26.607 -14.524  -1.095  0.00  0.00     0.241 C 
ATOM     19  O   UNL d   1      26.109 -13.502  -1.558  0.00  0.00    -0.271 OA
ATOM     20  N   UNL d   1      27.201 -15.379  -1.997  0.00  0.00    -0.346 N 
ATOM     21  H   UNL d   1      27.521 -16.306  -1.747  0.00  0.00     0.163 HD
BRANCH  20  22
ATOM     22  C   UNL d   1      27.717 -14.863  -3.272  0.00  0.00     0.268 C 
BRANCH  22  23
ATOM     23  S   UNL d   1      26.455 -14.597  -4.536  0.00  0.00     0.192 S 
ATOM     24  O   UNL d   1      26.889 -15.200  -5.777  0.00  0.00    -0.221 OA
ATOM     25  O   UNL d   1      25.179 -14.972  -3.951  0.00  0.00    -0.221 OA
BRANCH  23  26
ATOM     26  C   UNL d   1      26.416 -12.866  -4.835  0.00  0.00     0.060 A 
ATOM     27  C   UNL d   1      27.046 -12.333  -5.965  0.00  0.00     0.024 A 
ATOM     28  C   UNL d   1      26.897 -10.977  -6.249  0.00  0.00     0.008 A 
ATOM     29  C   UNL d   1      26.131 -10.165  -5.403  0.00  0.00    -0.062 A 
ATOM     30  C   UNL d   1      25.940  -8.710  -5.708  0.00  0.00     0.048 C 
ATOM     31  C   UNL d   1      25.531 -10.717  -4.263  0.00  0.00     0.008 A 
ATOM     32  C   UNL d   1      25.670 -12.068  -3.976  0.00  0.00     0.024 A 
ENDBRANCH  23  26
ENDBRANCH  22  23
ENDBRANCH  20  22
ENDBRANCH   1  18
BRANCH   1  33
ATOM     33  C   UNL d   1      27.131 -16.360   0.519  0.00  0.00     0.035 C 
BRANCH  33  34
ATOM     34  C   UNL d   1      26.202 -17.510   0.357  0.00  0.00     0.002 C 
BRANCH  34  35
ATOM     35  C   UNL d   1      25.210 -17.436  -0.749  0.00  0.00    -0.000 C 
BRANCH  35  36
ATOM     36  C   UNL d   1      23.910 -17.969  -0.227  0.00  0.00    -0.005 C 
ATOM     37  C   UNL d   1      22.815 -16.989  -0.521  0.00  0.00     0.005 C 
ENDBRANCH  35  36
ENDBRANCH  34  35
ENDBRANCH  33  34
ENDBRANCH   1  33
TORSDOF 12
ENDMDL
MODEL 4
REMARK VINA RESULT:    -7.762      2.598      4.572
REMARK INTER + INTRA:         -14.219
REMARK INTER:                 -11.341
REMARK INTRA:                  -2.877
REMARK CONF_INDEPENDENT:        3.580
REMARK UNBOUND:                -2.877
REMARK  12 active torsions:
REMARK  status: ('A' for Active; 'I' for Inactive)
REMARK    1  A    between atoms: C_2  and  C_3 
REMARK    2  A    between atoms: C_3  and  C_4 
REMARK    3  A    between atoms: C_4  and  C_5 
REMARK    4  A    between atoms: C_6  and  C_5 
REMARK    5  A    between atoms: C_6  and  N_21 
REMARK    6  A    between atoms: C_6  and  C_7 
REMARK       I    between atoms: C_7  and  N_9 
REMARK    7  A    between atoms: N_9  and  C_10 
REMARK    8  A    between atoms: C_10  and  S_11 
REMARK    9  A    between atoms: S_11  and  C_14 
REMARK       I    between atoms: N_21  and  C_23 
REMARK   10  A    between atoms: C_23  and  C_25 
REMARK   11  A    between atoms: C_27  and  N_28 
REMARK   12  A    between atoms: C_32  and  N_33 
ROOT
ATOM      1  C   UNL d   1      26.771 -14.832   0.551  0.00  0.00     0.179 C 
ENDROOT
BRANCH   1   2
ATOM      2  N   UNL d   1      27.735 -14.121   1.518  0.00  0.00    -0.339 N 
ATOM      3  C   UNL d   1      28.084 -14.821   2.756  0.00  0.00     0.154 C 
ATOM      4  C   UNL d   1      28.552 -12.968   1.254  0.00  0.00     0.254 C 
ATOM      5  O   UNL d   1      29.743 -12.979   1.584  0.00  0.00    -0.267 OA
BRANCH   4   6
ATOM      6  C   UNL d   1      28.023 -11.611   0.728  0.00  0.00     0.036 C 
ATOM      7  C   UNL d   1      27.219 -10.767   1.506  0.00  0.00     0.053 C 
ATOM      8  C   UNL d   1      26.703  -9.548   0.949  0.00  0.00     0.106 C 
ATOM      9  C   UNL d   1      26.984  -9.115  -0.348  0.00  0.00     0.072 C 
ATOM     10  C   UNL d   1      27.729  -9.938  -1.114  0.00  0.00     0.106 C 
ATOM     11  C   UNL d   1      28.129 -11.176  -0.590  0.00  0.00     0.053 C 
BRANCH   8  12
ATOM     12  N   UNL d   1      25.833  -8.671   1.723  0.00  0.00    -0.116 N 
ATOM     13  O   UNL d   1      26.199  -8.355   2.856  0.00  0.00    -0.532 OA
ATOM     14  O   UNL d   1      24.781  -8.300   1.181  0.00  0.00    -0.532 OA
ENDBRANCH   8  12
BRANCH  10  15
ATOM     15  N   UNL d   1      28.039  -9.587  -2.498  0.00  0.00    -0.116 N 
ATOM     16  O   UNL d   1      28.437 -10.486  -3.265  0.00  0.00    -0.532 OA
ATOM     17  O   UNL d   1      27.901  -8.437  -2.826  0.00  0.00    -0.532 OA
ENDBRANCH  10  15
ENDBRANCH   4   6
ENDBRANCH   1   2
BRANCH   1  18
ATOM     18  C   UNL d   1      26.692 -14.414  -0.991  0.00  0.00     0.241 C 
ATOM     19  O   UNL d   1      26.310 -13.331  -1.424  0.00  0.00    -0.271 OA
ATOM     20  N   UNL d   1      27.149 -15.320  -1.922  0.00  0.00    -0.346 N 
ATOM     21  H   UNL d   1      27.361 -16.283  -1.694  0.00  0.00     0.163 HD
BRANCH  20  22
ATOM     22  C   UNL d   1      27.687 -14.850  -3.206  0.00  0.00     0.268 C 
BRANCH  22  23
ATOM     23  S   UNL d   1      26.441 -14.599  -4.489  0.00  0.00     0.192 S 
ATOM     24  O   UNL d   1      26.899 -15.200  -5.722  0.00  0.00    -0.221 OA
ATOM     25  O   UNL d   1      25.161 -14.985  -3.923  0.00  0.00    -0.221 OA
BRANCH  23  26
ATOM     26  C   UNL d   1      26.389 -12.869  -4.793  0.00  0.00     0.060 A 
ATOM     27  C   UNL d   1      26.968 -12.340  -5.952  0.00  0.00     0.024 A 
ATOM     28  C   UNL d   1      26.806 -10.985  -6.233  0.00  0.00     0.008 A 
ATOM     29  C   UNL d   1      26.080 -10.169  -5.357  0.00  0.00    -0.062 A 
ATOM     30  C   UNL d   1      25.876  -8.715  -5.658  0.00  0.00     0.048 C 
ATOM     31  C   UNL d   1      25.531 -10.717  -4.190  0.00  0.00     0.008 A 
ATOM     32  C   UNL d   1      25.683 -12.068  -3.904  0.00  0.00     0.024 A 
ENDBRANCH  23  26
ENDBRANCH  22  23
ENDBRANCH  20  22
ENDBRANCH   1  18
BRANCH   1  33
ATOM     33  C   UNL d   1      27.183 -16.292   0.584  0.00  0.00     0.035 C 
BRANCH  33  34
ATOM     34  C   UNL d   1      26.261 -17.412   0.260  0.00  0.00     0.002 C 
BRANCH  34  35
ATOM     35  C   UNL d   1      24.953 -17.063  -0.358  0.00  0.00    -0.000 C 
BRANCH  35  36
ATOM     36  C   UNL d   1      24.040 -18.239  -0.179  0.00  0.00    -0.005 C 
ATOM     37  C   UNL d   1      22.641 -17.843  -0.537  0.00  0.00     0.005 C 
ENDBRANCH  35  36
ENDBRANCH  34  35
ENDBRANCH  33  34
ENDBRANCH   1  33
TORSDOF 12
ENDMDL
MODEL 5
REMARK VINA RESULT:    -7.656      2.576      5.418
REMARK INTER + INTRA:         -14.509
REMARK INTER:                 -11.236
REMARK INTRA:                  -3.273
REMARK CONF_INDEPENDENT:        3.580
REMARK UNBOUND:                -3.273
REMARK  12 active torsions:
REMARK  status: ('A' for Active; 'I' for Inactive)
REMARK    1  A    between atoms: C_2  and  C_3 
REMARK    2  A    between atoms: C_3  and  C_4 
REMARK    3  A    between atoms: C_4  and  C_5 
REMARK    4  A    between atoms: C_6  and  C_5 
REMARK    5  A    between atoms: C_6  and  N_21 
REMARK    6  A    between atoms: C_6  and  C_7 
REMARK       I    between atoms: C_7  and  N_9 
REMARK    7  A    between atoms: N_9  and  C_10 
REMARK    8  A    between atoms: C_10  and  S_11 
REMARK    9  A    between atoms: S_11  and  C_14 
REMARK       I    between atoms: N_21  and  C_23 
REMARK   10  A    between atoms: C_23  and  C_25 
REMARK   11  A    between atoms: C_27  and  N_28 
REMARK   12  A    between atoms: C_32  and  N_33 
ROOT
ATOM      1  C   UNL d   1      28.054 -12.480  -0.626  0.00  0.00     0.179 C 
ENDROOT
BRANCH   1   2
ATOM      2  N   UNL d   1      29.240 -12.569   0.351  0.00  0.00    -0.339 N 
ATOM      3  C   UNL d   1      30.174 -13.683   0.176  0.00  0.00     0.154 C 
ATOM      4  C   UNL d   1      29.709 -11.556   1.258  0.00  0.00     0.254 C 
ATOM      5  O   UNL d   1      30.916 -11.299   1.309  0.00  0.00    -0.267 OA
BRANCH   4   6
ATOM      6  C   UNL d   1      28.836 -10.854   2.326  0.00  0.00     0.036 C 
ATOM      7  C   UNL d   1      28.956 -11.131   3.695  0.00  0.00     0.053 C 
ATOM      8  C   UNL d   1      28.079 -10.497   4.639  0.00  0.00     0.106 C 
ATOM      9  C   UNL d   1      27.103  -9.566   4.277  0.00  0.00     0.072 C 
ATOM     10  C   UNL d   1      26.959  -9.319   2.959  0.00  0.00     0.106 C 
ATOM     11  C   UNL d   1      27.747 -10.033   2.045  0.00  0.00     0.053 C 
BRANCH   8  12
ATOM     12  N   UNL d   1      28.156 -10.796   6.063  0.00  0.00    -0.116 N 
ATOM     13  O   UNL d   1      28.605  -9.924   6.808  0.00  0.00    -0.532 OA
ATOM     14  O   UNL d   1      27.758 -11.913   6.427  0.00  0.00    -0.532 OA
ENDBRANCH   8  12
BRANCH  10  15
ATOM     15  N   UNL d   1      25.935  -8.390   2.485  0.00  0.00    -0.116 N 
ATOM     16  O   UNL d   1      25.041  -8.825   1.731  0.00  0.00    -0.532 OA
ATOM     17  O   UNL d   1      26.014  -7.243   2.843  0.00  0.00    -0.532 OA
ENDBRANCH  10  15
ENDBRANCH   4   6
ENDBRANCH   1   2
BRANCH   1  18
ATOM     18  C   UNL d   1      28.207 -12.929  -2.153  0.00  0.00     0.241 C 
ATOM     19  O   UNL d   1      29.203 -13.442  -2.656  0.00  0.00    -0.271 OA
ATOM     20  N   UNL d   1      27.109 -12.789  -2.973  0.00  0.00    -0.346 N 
ATOM     21  H   UNL d   1      26.287 -12.263  -2.705  0.00  0.00     0.163 HD
BRANCH  20  22
ATOM     22  C   UNL d   1      26.930 -13.682  -4.125  0.00  0.00     0.268 C 
BRANCH  22  23
ATOM     23  S   UNL d   1      25.534 -14.819  -3.979  0.00  0.00     0.192 S 
ATOM     24  O   UNL d   1      24.351 -14.075  -3.608  0.00  0.00    -0.221 OA
ATOM     25  O   UNL d   1      25.530 -15.644  -5.174  0.00  0.00    -0.221 OA
BRANCH  23  26
ATOM     26  C   UNL d   1      25.890 -15.862  -2.612  0.00  0.00     0.060 A 
ATOM     27  C   UNL d   1      27.215 -16.068  -2.210  0.00  0.00     0.024 A 
ATOM     28  C   UNL d   1      27.465 -16.798  -1.049  0.00  0.00     0.008 A 
ATOM     29  C   UNL d   1      26.400 -17.322  -0.307  0.00  0.00    -0.062 A 
ATOM     30  C   UNL d   1      26.652 -18.087   0.957  0.00  0.00     0.048 C 
ATOM     31  C   UNL d   1      25.083 -17.123  -0.744  0.00  0.00     0.008 A 
ATOM     32  C   UNL d   1      24.824 -16.393  -1.896  0.00  0.00     0.024 A 
ENDBRANCH  23  26
ENDBRANCH  22  23
ENDBRANCH  20  22
ENDBRANCH   1  18
BRANCH   1  33
ATOM     33  C   UNL d   1      26.976 -13.361  -0.021  0.00  0.00     0.035 C 
BRANCH  33  34
ATOM     34  C   UNL d   1      26.659 -13.389   1.432  0.00  0.00     0.002 C 
BRANCH  34  35
ATOM     35  C   UNL d   1      27.551 -14.193   2.310  0.00  0.00    -0.000 C 
BRANCH  35  36
ATOM     36  C   UNL d   1      27.266 -13.797   3.728  0.00  0.00    -0.005 C 
ATOM     37  C   UNL d   1      28.150 -14.578   4.651  0.00  0.00     0.005 C 
ENDBRANCH  35  36
ENDBRANCH  34  35
ENDBRANCH  33  34
ENDBRANCH   1  33
TORSDOF 12
ENDMDL
MODEL 6
REMARK VINA RESULT:    -7.618      2.075      3.822
REMARK INTER + INTRA:         -14.454
REMARK INTER:                 -11.198
REMARK INTRA:                  -3.256
REMARK CONF_INDEPENDENT:        3.580
REMARK UNBOUND:                -3.256
REMARK  12 active torsions:
REMARK  status: ('A' for Active; 'I' for Inactive)
REMARK    1  A    between atoms: C_2  and  C_3 
REMARK    2  A    between atoms: C_3  and  C_4 
REMARK    3  A    between atoms: C_4  and  C_5 
REMARK    4  A    between atoms: C_6  and  C_5 
REMARK    5  A    between atoms: C_6  and  N_21 
REMARK    6  A    between atoms: C_6  and  C_7 
REMARK       I    between atoms: C_7  and  N_9 
REMARK    7  A    between atoms: N_9  and  C_10 
REMARK    8  A    between atoms: C_10  and  S_11 
REMARK    9  A    between atoms: S_11  and  C_14 
REMARK       I    between atoms: N_21  and  C_23 
REMARK   10  A    between atoms: C_23  and  C_25 
REMARK   11  A    between atoms: C_27  and  N_28 
REMARK   12  A    between atoms: C_32  and  N_33 
ROOT
ATOM      1  C   UNL d   1      24.784 -17.198  -0.140  0.00  0.00     0.179 C 
ENDROOT
BRANCH   1   2
ATOM      2  N   UNL d   1      26.267 -17.357   0.241  0.00  0.00    -0.339 N 
ATOM      3  C   UNL d   1      26.652 -18.574   0.958  0.00  0.00     0.154 C 
ATOM      4  C   UNL d   1      27.384 -16.589  -0.240  0.00  0.00     0.254 C 
ATOM      5  O   UNL d   1      28.403 -17.175  -0.621  0.00  0.00    -0.267 OA
BRANCH   4   6
ATOM      6  C   UNL d   1      27.493 -15.047  -0.168  0.00  0.00     0.036 C 
ATOM      7  C   UNL d   1      27.163 -14.324   0.987  0.00  0.00     0.053 C 
ATOM      8  C   UNL d   1      27.222 -12.889   0.981  0.00  0.00     0.106 C 
ATOM      9  C   UNL d   1      27.634 -12.141  -0.124  0.00  0.00     0.072 C 
ATOM     10  C   UNL d   1      27.922 -12.827  -1.249  0.00  0.00     0.106 C 
ATOM     11  C   UNL d   1      27.748 -14.219  -1.258  0.00  0.00     0.053 C 
BRANCH   8  12
ATOM     12  N   UNL d   1      26.846 -12.111   2.154  0.00  0.00    -0.116 N 
ATOM     13  O   UNL d   1      27.027 -12.620   3.261  0.00  0.00    -0.532 OA
ATOM     14  O   UNL d   1      26.371 -10.983   1.954  0.00  0.00    -0.532 OA
ENDBRANCH   8  12
BRANCH  10  15
ATOM     15  N   UNL d   1      28.321 -12.124  -2.466  0.00  0.00    -0.116 N 
ATOM     16  O   UNL d   1      27.918 -10.956  -2.637  0.00  0.00    -0.532 OA
ATOM     17  O   UNL d   1      29.017 -12.717  -3.249  0.00  0.00    -0.532 OA
ENDBRANCH  10  15
ENDBRANCH   4   6
ENDBRANCH   1   2
BRANCH   1  18
ATOM     18  C   UNL d   1      24.348 -16.347  -1.422  0.00  0.00     0.241 C 
ATOM     19  O   UNL d   1      23.294 -15.731  -1.552  0.00  0.00    -0.271 OA
ATOM     20  N   UNL d   1      25.254 -16.237  -2.453  0.00  0.00    -0.346 N 
ATOM     21  H   UNL d   1      26.091 -16.803  -2.512  0.00  0.00     0.163 HD
BRANCH  20  22
ATOM     22  C   UNL d   1      25.235 -15.057  -3.327  0.00  0.00     0.268 C 
BRANCH  22  23
ATOM     23  S   UNL d   1      26.483 -15.075  -4.633  0.00  0.00     0.192 S 
ATOM     24  O   UNL d   1      27.750 -15.495  -4.076  0.00  0.00    -0.221 OA
ATOM     25  O   UNL d   1      25.910 -15.791  -5.760  0.00  0.00    -0.221 OA
BRANCH  23  26
ATOM     26  C   UNL d   1      26.708 -13.403  -5.122  0.00  0.00     0.060 A 
ATOM     27  C   UNL d   1      27.698 -13.070  -6.055  0.00  0.00     0.024 A 
ATOM     28  C   UNL d   1      27.776 -11.760  -6.522  0.00  0.00     0.008 A 
ATOM     29  C   UNL d   1      26.879 -10.793  -6.051  0.00  0.00    -0.062 A 
ATOM     30  C   UNL d   1      26.934  -9.385  -6.561  0.00  0.00     0.048 C 
ATOM     31  C   UNL d   1      25.913 -11.146  -5.098  0.00  0.00     0.008 A 
ATOM     32  C   UNL d   1      25.825 -12.451  -4.631  0.00  0.00     0.024 A 
ENDBRANCH  23  26
ENDBRANCH  22  23
ENDBRANCH  20  22
ENDBRANCH   1  18
BRANCH   1  33
ATOM     33  C   UNL d   1      24.281 -18.612  -0.366  0.00  0.00     0.035 C 
BRANCH  33  34
ATOM     34  C   UNL d   1      23.074 -18.935  -1.173  0.00  0.00     0.002 C 
BRANCH  34  35
ATOM     35  C   UNL d   1      21.762 -18.459  -0.659  0.00  0.00    -0.000 C 
BRANCH  35  36
ATOM     36  C   UNL d   1      20.698 -19.326  -1.264  0.00  0.00    -0.005 C 
ATOM     37  C   UNL d   1      19.440 -19.206  -0.460  0.00  0.00     0.005 C 
ENDBRANCH  35  36
ENDBRANCH  34  35
ENDBRANCH  33  34
ENDBRANCH   1  33
TORSDOF 12
ENDMDL
MODEL 7
REMARK VINA RESULT:    -7.570      2.618      4.893
REMARK INTER + INTRA:         -14.443
REMARK INTER:                 -11.149
REMARK INTRA:                  -3.293
REMARK CONF_INDEPENDENT:        3.580
REMARK UNBOUND:                -3.293
REMARK  12 active torsions:
REMARK  status: ('A' for Active; 'I' for Inactive)
REMARK    1  A    between atoms: C_2  and  C_3 
REMARK    2  A    between atoms: C_3  and  C_4 
REMARK    3  A    between atoms: C_4  and  C_5 
REMARK    4  A    between atoms: C_6  and  C_5 
REMARK    5  A    between atoms: C_6  and  N_21 
REMARK    6  A    between atoms: C_6  and  C_7 
REMARK       I    between atoms: C_7  and  N_9 
REMARK    7  A    between atoms: N_9  and  C_10 
REMARK    8  A    between atoms: C_10  and  S_11 
REMARK    9  A    between atoms: S_11  and  C_14 
REMARK       I    between atoms: N_21  and  C_23 
REMARK   10  A    between atoms: C_23  and  C_25 
REMARK   11  A    between atoms: C_27  and  N_28 
REMARK   12  A    between atoms: C_32  and  N_33 
ROOT
ATOM      1  C   UNL d   1      28.077 -12.308  -0.926  0.00  0.00     0.179 C 
ENDROOT
BRANCH   1   2
ATOM      2  N   UNL d   1      29.240 -12.382   0.079  0.00  0.00    -0.339 N 
ATOM      3  C   UNL d   1      30.211 -13.464  -0.093  0.00  0.00     0.154 C 
ATOM      4  C   UNL d   1      29.656 -11.374   1.018  0.00  0.00     0.254 C 
ATOM      5  O   UNL d   1      30.853 -11.083   1.105  0.00  0.00    -0.267 OA
BRANCH   4   6
ATOM      6  C   UNL d   1      28.735 -10.719   2.076  0.00  0.00     0.036 C 
ATOM      7  C   UNL d   1      27.831  -9.696   1.755  0.00  0.00     0.053 C 
ATOM      8  C   UNL d   1      27.044  -9.079   2.785  0.00  0.00     0.106 C 
ATOM      9  C   UNL d   1      27.094  -9.465   4.126  0.00  0.00     0.072 C 
ATOM     10  C   UNL d   1      27.985 -10.425   4.449  0.00  0.00     0.106 C 
ATOM     11  C   UNL d   1      28.825 -10.935   3.448  0.00  0.00     0.053 C 
BRANCH   8  12
ATOM     12  N   UNL d   1      26.126  -7.988   2.485  0.00  0.00    -0.116 N 
ATOM     13  O   UNL d   1      26.284  -6.925   3.087  0.00  0.00    -0.532 OA
ATOM     14  O   UNL d   1      25.248  -8.207   1.638  0.00  0.00    -0.532 OA
ENDBRANCH   8  12
BRANCH  10  15
ATOM     15  N   UNL d   1      28.135 -10.864   5.834  0.00  0.00    -0.116 N 
ATOM     16  O   UNL d   1      27.567 -11.916   6.190  0.00  0.00    -0.532 OA
ATOM     17  O   UNL d   1      28.799 -10.177   6.568  0.00  0.00    -0.532 OA
ENDBRANCH  10  15
ENDBRANCH   4   6
ENDBRANCH   1   2
BRANCH   1  18
ATOM     18  C   UNL d   1      28.289 -12.695  -2.463  0.00  0.00     0.241 C 
ATOM     19  O   UNL d   1      29.342 -13.067  -2.973  0.00  0.00    -0.271 OA
ATOM     20  N   UNL d   1      27.185 -12.671  -3.285  0.00  0.00    -0.346 N 
ATOM     21  H   UNL d   1      26.303 -12.259  -3.009  0.00  0.00     0.163 HD
BRANCH  20  22
ATOM     22  C   UNL d   1      27.122 -13.550  -4.461  0.00  0.00     0.268 C 
BRANCH  22  23
ATOM     23  S   UNL d   1      25.817 -14.797  -4.392  0.00  0.00     0.192 S 
ATOM     24  O   UNL d   1      24.530 -14.138  -4.350  0.00  0.00    -0.221 OA
ATOM     25  O   UNL d   1      26.103 -15.772  -5.430  0.00  0.00    -0.221 OA
BRANCH  23  26
ATOM     26  C   UNL d   1      25.989 -15.604  -2.841  0.00  0.00     0.060 A 
ATOM     27  C   UNL d   1      24.854 -15.969  -2.107  0.00  0.00     0.024 A 
ATOM     28  C   UNL d   1      25.011 -16.718  -0.943  0.00  0.00     0.008 A 
ATOM     29  C   UNL d   1      26.292 -17.088  -0.515  0.00  0.00    -0.062 A 
ATOM     30  C   UNL d   1      26.477 -17.914   0.722  0.00  0.00     0.048 C 
ATOM     31  C   UNL d   1      27.415 -16.689  -1.253  0.00  0.00     0.008 A 
ATOM     32  C   UNL d   1      27.267 -15.947  -2.418  0.00  0.00     0.024 A 
ENDBRANCH  23  26
ENDBRANCH  22  23
ENDBRANCH  20  22
ENDBRANCH   1  18
BRANCH   1  33
ATOM     33  C   UNL d   1      27.023 -13.254  -0.382  0.00  0.00     0.035 C 
BRANCH  33  34
ATOM     34  C   UNL d   1      26.643 -13.320   1.054  0.00  0.00     0.002 C 
BRANCH  34  35
ATOM     35  C   UNL d   1      27.413 -14.251   1.923  0.00  0.00    -0.000 C 
BRANCH  35  36
ATOM     36  C   UNL d   1      27.304 -13.749   3.332  0.00  0.00    -0.005 C 
ATOM     37  C   UNL d   1      28.440 -14.293   4.144  0.00  0.00     0.005 C 
ENDBRANCH  35  36
ENDBRANCH  34  35
ENDBRANCH  33  34
ENDBRANCH   1  33
TORSDOF 12
ENDMDL
MODEL 8
REMARK VINA RESULT:    -7.374      2.113      3.283
REMARK INTER + INTRA:         -14.291
REMARK INTER:                 -10.953
REMARK INTRA:                  -3.338
REMARK CONF_INDEPENDENT:        3.580
REMARK UNBOUND:                -3.338
REMARK  12 active torsions:
REMARK  status: ('A' for Active; 'I' for Inactive)
REMARK    1  A    between atoms: C_2  and  C_3 
REMARK    2  A    between atoms: C_3  and  C_4 
REMARK    3  A    between atoms: C_4  and  C_5 
REMARK    4  A    between atoms: C_6  and  C_5 
REMARK    5  A    between atoms: C_6  and  N_21 
REMARK    6  A    between atoms: C_6  and  C_7 
REMARK       I    between atoms: C_7  and  N_9 
REMARK    7  A    between atoms: N_9  and  C_10 
REMARK    8  A    between atoms: C_10  and  S_11 
REMARK    9  A    between atoms: S_11  and  C_14 
REMARK       I    between atoms: N_21  and  C_23 
REMARK   10  A    between atoms: C_23  and  C_25 
REMARK   11  A    between atoms: C_27  and  N_28 
REMARK   12  A    between atoms: C_32  and  N_33 
ROOT
ATOM      1  C   UNL d   1      24.658 -17.167  -0.148  0.00  0.00     0.179 C 
ENDROOT
BRANCH   1   2
ATOM      2  N   UNL d   1      26.136 -17.336   0.248  0.00  0.00    -0.339 N 
ATOM      3  C   UNL d   1      26.498 -18.540   0.999  0.00  0.00     0.154 C 
ATOM      4  C   UNL d   1      27.267 -16.599  -0.246  0.00  0.00     0.254 C 
ATOM      5  O   UNL d   1      28.280 -17.208  -0.604  0.00  0.00    -0.267 OA
BRANCH   4   6
ATOM      6  C   UNL d   1      27.398 -15.057  -0.216  0.00  0.00     0.036 C 
ATOM      7  C   UNL d   1      27.938 -14.328  -1.285  0.00  0.00     0.053 C 
ATOM      8  C   UNL d   1      28.094 -12.904  -1.181  0.00  0.00     0.106 C 
ATOM      9  C   UNL d   1      27.700 -12.166  -0.063  0.00  0.00     0.072 C 
ATOM     10  C   UNL d   1      27.210 -12.864   0.983  0.00  0.00     0.106 C 
ATOM     11  C   UNL d   1      27.172 -14.263   0.906  0.00  0.00     0.053 C 
BRANCH   8  12
ATOM     12  N   UNL d   1      28.688 -12.127  -2.261  0.00  0.00    -0.116 N 
ATOM     13  O   UNL d   1      29.428 -12.716  -3.050  0.00  0.00    -0.532 OA
ATOM     14  O   UNL d   1      28.402 -10.921  -2.311  0.00  0.00    -0.532 OA
ENDBRANCH   8  12
BRANCH  10  15
ATOM     15  N   UNL d   1      26.811 -12.180   2.211  0.00  0.00    -0.116 N 
ATOM     16  O   UNL d   1      26.274 -11.058   2.117  0.00  0.00    -0.532 OA
ATOM     17  O   UNL d   1      27.030 -12.735   3.256  0.00  0.00    -0.532 OA
ENDBRANCH  10  15
ENDBRANCH   4   6
ENDBRANCH   1   2
BRANCH   1  18
ATOM     18  C   UNL d   1      24.242 -16.335  -1.448  0.00  0.00     0.241 C 
ATOM     19  O   UNL d   1      23.169 -15.765  -1.625  0.00  0.00    -0.271 OA
ATOM     20  N   UNL d   1      25.186 -16.186  -2.440  0.00  0.00    -0.346 N 
ATOM     21  H   UNL d   1      26.048 -16.715  -2.462  0.00  0.00     0.163 HD
BRANCH  20  22
ATOM     22  C   UNL d   1      25.155 -15.007  -3.316  0.00  0.00     0.268 C 
BRANCH  22  23
ATOM     23  S   UNL d   1      26.458 -14.972  -4.566  0.00  0.00     0.192 S 
ATOM     24  O   UNL d   1      27.683 -15.482  -3.992  0.00  0.00    -0.221 OA
ATOM     25  O   UNL d   1      25.911 -15.574  -5.769  0.00  0.00    -0.221 OA
BRANCH  23  26
ATOM     26  C   UNL d   1      26.763 -13.276  -4.911  0.00  0.00     0.060 A 
ATOM     27  C   UNL d   1      27.749 -12.913  -5.836  0.00  0.00     0.024 A 
ATOM     28  C   UNL d   1      27.889 -11.572  -6.186  0.00  0.00     0.008 A 
ATOM     29  C   UNL d   1      27.055 -10.606  -5.609  0.00  0.00    -0.062 A 
ATOM     30  C   UNL d   1      27.176  -9.162  -5.994  0.00  0.00     0.048 C 
ATOM     31  C   UNL d   1      26.092 -10.992  -4.666  0.00  0.00     0.008 A 
ATOM     32  C   UNL d   1      25.943 -12.327  -4.315  0.00  0.00     0.024 A 
ENDBRANCH  23  26
ENDBRANCH  22  23
ENDBRANCH  20  22
ENDBRANCH   1  18
BRANCH   1  33
ATOM     33  C   UNL d   1      24.139 -18.579  -0.352  0.00  0.00     0.035 C 
BRANCH  33  34
ATOM     34  C   UNL d   1      23.026 -18.919  -1.277  0.00  0.00     0.002 C 
BRANCH  34  35
ATOM     35  C   UNL d   1      21.656 -18.491  -0.883  0.00  0.00    -0.000 C 
BRANCH  35  36
ATOM     36  C   UNL d   1      20.939 -19.699  -0.359  0.00  0.00    -0.005 C 
ATOM     37  C   UNL d   1      19.530 -19.329  -0.009  0.00  0.00     0.005 C 
ENDBRANCH  35  36
ENDBRANCH  34  35
ENDBRANCH  33  34
ENDBRANCH   1  33
TORSDOF 12
ENDMDL
MODEL 9
REMARK VINA RESULT:    -5.723      2.501      5.945
REMARK INTER + INTRA:         -14.238
REMARK INTER:                  -9.303
REMARK INTRA:                  -4.935
REMARK CONF_INDEPENDENT:        3.580
REMARK UNBOUND:                -4.935
REMARK  12 active torsions:
REMARK  status: ('A' for Active; 'I' for Inactive)
REMARK    1  A    between atoms: C_2  and  C_3 
REMARK    2  A    between atoms: C_3  and  C_4 
REMARK    3  A    between atoms: C_4  and  C_5 
REMARK    4  A    between atoms: C_6  and  C_5 
REMARK    5  A    between atoms: C_6  and  N_21 
REMARK    6  A    between atoms: C_6  and  C_7 
REMARK       I    between atoms: C_7  and  N_9 
REMARK    7  A    between atoms: N_9  and  C_10 
REMARK    8  A    between atoms: C_10  and  S_11 
REMARK    9  A    between atoms: S_11  and  C_14 
REMARK       I    between atoms: N_21  and  C_23 
REMARK   10  A    between atoms: C_23  and  C_25 
REMARK   11  A    between atoms: C_27  and  N_28 
REMARK   12  A    between atoms: C_32  and  N_33 
ROOT
ATOM      1  C   UNL d   1      28.127 -16.600   0.246  0.00  0.00     0.179 C 
ENDROOT
BRANCH   1   2
ATOM      2  N   UNL d   1      29.379 -16.645  -0.648  0.00  0.00    -0.339 N 
ATOM      3  C   UNL d   1      30.683 -16.630   0.017  0.00  0.00     0.154 C 
ATOM      4  C   UNL d   1      29.446 -16.964  -2.049  0.00  0.00     0.254 C 
ATOM      5  O   UNL d   1      30.297 -17.765  -2.449  0.00  0.00    -0.267 OA
BRANCH   4   6
ATOM      6  C   UNL d   1      28.635 -16.250  -3.158  0.00  0.00     0.036 C 
ATOM      7  C   UNL d   1      29.183 -15.946  -4.412  0.00  0.00     0.053 C 
ATOM      8  C   UNL d   1      28.407 -15.227  -5.383  0.00  0.00     0.106 C 
ATOM      9  C   UNL d   1      27.087 -14.827  -5.170  0.00  0.00     0.072 C 
ATOM     10  C   UNL d   1      26.563 -15.086  -3.954  0.00  0.00     0.106 C 
ATOM     11  C   UNL d   1      27.374 -15.686  -2.980  0.00  0.00     0.053 C 
BRANCH   8  12
ATOM     12  N   UNL d   1      28.966 -14.864  -6.679  0.00  0.00    -0.116 N 
ATOM     13  O   UNL d   1      29.880 -15.559  -7.124  0.00  0.00    -0.532 OA
ATOM     14  O   UNL d   1      28.476 -13.876  -7.247  0.00  0.00    -0.532 OA
ENDBRANCH   8  12
BRANCH  10  15
ATOM     15  N   UNL d   1      25.202 -14.667  -3.626  0.00  0.00    -0.116 N 
ATOM     16  O   UNL d   1      24.407 -14.449  -4.562  0.00  0.00    -0.532 OA
ATOM     17  O   UNL d   1      24.921 -14.545  -2.462  0.00  0.00    -0.532 OA
ENDBRANCH  10  15
ENDBRANCH   4   6
ENDBRANCH   1   2
BRANCH   1  18
ATOM     18  C   UNL d   1      27.471 -15.207   0.679  0.00  0.00     0.241 C 
ATOM     19  O   UNL d   1      27.593 -14.662   1.772  0.00  0.00    -0.271 OA
ATOM     20  N   UNL d   1      26.752 -14.518  -0.272  0.00  0.00    -0.346 N 
ATOM     21  H   UNL d   1      26.477 -14.927  -1.157  0.00  0.00     0.163 HD
BRANCH  20  22
ATOM     22  C   UNL d   1      26.653 -13.054  -0.205  0.00  0.00     0.268 C 
BRANCH  22  23
ATOM     23  S   UNL d   1      28.016 -12.176  -1.000  0.00  0.00     0.192 S 
ATOM     24  O   UNL d   1      28.110 -10.842  -0.450  0.00  0.00    -0.221 OA
ATOM     25  O   UNL d   1      29.169 -13.059  -0.969  0.00  0.00    -0.221 OA
BRANCH  23  26
ATOM     26  C   UNL d   1      27.552 -11.966  -2.682  0.00  0.00     0.060 A 
ATOM     27  C   UNL d   1      26.225 -11.667  -3.013  0.00  0.00     0.024 A 
ATOM     28  C   UNL d   1      25.905 -11.383  -4.339  0.00  0.00     0.008 A 
ATOM     29  C   UNL d   1      26.903 -11.406  -5.321  0.00  0.00    -0.062 A 
ATOM     30  C   UNL d   1      26.579 -11.078  -6.748  0.00  0.00     0.048 C 
ATOM     31  C   UNL d   1      28.219 -11.733  -4.968  0.00  0.00     0.008 A 
ATOM     32  C   UNL d   1      28.548 -12.013  -3.649  0.00  0.00     0.024 A 
ENDBRANCH  23  26
ENDBRANCH  22  23
ENDBRANCH  20  22
ENDBRANCH   1  18
BRANCH   1  33
ATOM     33  C   UNL d   1      27.063 -17.361  -0.524  0.00  0.00     0.035 C 
BRANCH  33  34
ATOM     34  C   UNL d   1      25.623 -17.357  -0.155  0.00  0.00     0.002 C 
BRANCH  34  35
ATOM     35  C   UNL d   1      24.634 -17.246  -1.261  0.00  0.00    -0.000 C 
BRANCH  35  36
ATOM     36  C   UNL d   1      23.265 -17.292  -0.651  0.00  0.00    -0.005 C 
ATOM     37  C   UNL d   1      22.989 -18.676  -0.151  0.00  0.00     0.005 C 
ENDBRANCH  35  36
ENDBRANCH  34  35
ENDBRANCH  33  34
ENDBRANCH   1  33
TORSDOF 12
ENDMDL
