MODEL 1
REMARK VINA RESULT:    -8.562      0.000      0.000
REMARK INTER + INTRA:         -11.103
REMARK INTER:                 -10.054
REMARK INTRA:                  -1.049
REMARK CONF_INDEPENDENT:        1.492
REMARK UNBOUND:                -1.049
REMARK  5 active torsions:
REMARK  status: ('A' for Active; 'I' for Inactive)
REMARK    1  A    between atoms: O_2  and  C_3 
REMARK    2  A    between atoms: C_5  and  O_6 
REMARK    3  A    between atoms: C_8  and  N_9 
REMARK    4  A    between atoms: N_9  and  S_10 
REMARK    5  A    between atoms: S_10  and  C_13 
ROOT
ATOM      1  S   UNL d   1      26.195 -15.511  -0.655  0.00  0.00     0.265 S 
ATOM      2  O   UNL d   1      26.861 -15.793   0.597  0.00  0.00    -0.200 OA
ATOM      3  O   UNL d   1      25.911 -14.155  -1.079  0.00  0.00    -0.200 OA
ENDROOT
BRANCH   1   4
ATOM      4  N   UNL d   1      27.206 -16.214  -1.873  0.00  0.00    -0.278 N 
ATOM      5  H   UNL d   1      27.322 -17.205  -1.732  0.00  0.00     0.179 HD
BRANCH   4   6
ATOM      6  C   UNL d   1      27.509 -15.687  -3.213  0.00  0.00     0.077 A 
ATOM      7  C   UNL d   1      26.548 -15.181  -4.150  0.00  0.00     0.098 A 
ATOM      8  C   UNL d   1      26.951 -14.809  -5.469  0.00  0.00     0.077 A 
ATOM      9  C   UNL d   1      28.274 -14.957  -5.911  0.00  0.00     0.092 A 
ATOM     10  C   UNL d   1      29.211 -15.410  -4.979  0.00  0.00     0.069 A 
ATOM     11  C   UNL d   1      28.819 -15.780  -3.679  0.00  0.00     0.059 A 
ATOM     12 CL   UNL d   1      30.917 -15.493  -5.248  0.00  0.00    -0.081 Cl
BRANCH   7  13
ATOM     13  O   UNL d   1      25.181 -15.001  -4.013  0.00  0.00    -0.354 OA
ATOM     14  C   UNL d   1      24.735 -13.684  -3.821  0.00  0.00     0.210 C 
ENDBRANCH   7  13
BRANCH   9  15
ATOM     15  O   UNL d   1      28.531 -14.557  -7.199  0.00  0.00    -0.354 OA
ATOM     16  C   UNL d   1      28.606 -13.145  -7.427  0.00  0.00     0.210 C 
ENDBRANCH   9  15
ENDBRANCH   4   6
ENDBRANCH   1   4
BRANCH   1  17
ATOM     17  C   UNL d   1      24.533 -16.462  -0.636  0.00  0.00     0.104 C 
ATOM     18  C   UNL d   1      23.157 -16.063  -1.205  0.00  0.00     0.065 C 
ATOM     19  C   UNL d   1      21.990 -16.991  -1.048  0.00  0.00     0.092 C 
ATOM     20  C   UNL d   1      22.433 -18.190  -0.652  0.00  0.00     0.050 C 
ATOM     21  O   UNL d   1      20.501 -17.251  -1.270  0.00  0.00    -0.341 OA
ATOM     22  C   UNL d   1      23.514 -18.482   0.090  0.00  0.00     0.052 C 
ATOM     23  N   UNL d   1      21.816 -19.252  -1.274  0.00  0.00    -0.225 NA
ATOM     24  C   UNL d   1      24.601 -17.676   0.031  0.00  0.00     0.059 C 
ATOM     25 CL   UNL d   1      25.893 -18.576   0.641  0.00  0.00    -0.083 Cl
ATOM     26  C   UNL d   1      20.902 -19.663  -0.366  0.00  0.00     0.226 C 
ATOM     27  H   UNL d   1      21.287 -18.788  -2.036  0.00  0.00     0.136 HD
ATOM     28  O   UNL d   1      21.084 -20.491   0.541  0.00  0.00    -0.277 OA
ATOM     29  C   UNL d   1      19.771 -18.771  -0.717  0.00  0.00     0.272 C 
ENDBRANCH   1  17
TORSDOF 5
ENDMDL
MODEL 2
REMARK VINA RESULT:    -7.672      3.394      7.592
REMARK INTER + INTRA:         -10.559
REMARK INTER:                  -9.163
REMARK INTRA:                  -1.396
REMARK CONF_INDEPENDENT:        1.492
REMARK UNBOUND:                -1.396
REMARK  5 active torsions:
REMARK  status: ('A' for Active; 'I' for Inactive)
REMARK    1  A    between atoms: O_2  and  C_3 
REMARK    2  A    between atoms: C_5  and  O_6 
REMARK    3  A    between atoms: C_8  and  N_9 
REMARK    4  A    between atoms: N_9  and  S_10 
REMARK    5  A    between atoms: S_10  and  C_13 
ROOT
ATOM      1  S   UNL d   1      28.272 -14.741  -4.859  0.00  0.00     0.265 S 
ATOM      2  O   UNL d   1      29.681 -14.520  -5.099  0.00  0.00    -0.200 OA
ATOM      3  O   UNL d   1      27.466 -15.554  -5.746  0.00  0.00    -0.200 OA
ENDROOT
BRANCH   1   4
ATOM      4  N   UNL d   1      28.192 -15.479  -3.294  0.00  0.00    -0.278 N 
ATOM      5  H   UNL d   1      29.005 -15.265  -2.740  0.00  0.00     0.179 HD
BRANCH   4   6
ATOM      6  C   UNL d   1      26.996 -15.950  -2.575  0.00  0.00     0.077 A 
ATOM      7  C   UNL d   1      25.640 -15.605  -2.892  0.00  0.00     0.098 A 
ATOM      8  C   UNL d   1      24.571 -16.028  -2.045  0.00  0.00     0.077 A 
ATOM      9  C   UNL d   1      24.799 -16.754  -0.866  0.00  0.00     0.092 A 
ATOM     10  C   UNL d   1      26.117 -17.122  -0.589  0.00  0.00     0.069 A 
ATOM     11  C   UNL d   1      27.176 -16.706  -1.418  0.00  0.00     0.059 A 
ATOM     12 CL   UNL d   1      26.605 -18.166   0.700  0.00  0.00    -0.081 Cl
BRANCH   7  13
ATOM     13  O   UNL d   1      25.136 -14.846  -3.935  0.00  0.00    -0.354 OA
ATOM     14  C   UNL d   1      24.405 -13.700  -3.585  0.00  0.00     0.210 C 
ENDBRANCH   7  13
BRANCH   9  15
ATOM     15  O   UNL d   1      23.684 -17.105  -0.145  0.00  0.00    -0.354 OA
ATOM     16  C   UNL d   1      23.031 -18.320  -0.528  0.00  0.00     0.210 C 
ENDBRANCH   9  15
ENDBRANCH   4   6
ENDBRANCH   1   4
BRANCH   1  17
ATOM     17  C   UNL d   1      27.443 -13.019  -4.749  0.00  0.00     0.104 C 
ATOM     18  C   UNL d   1      26.551 -12.283  -5.770  0.00  0.00     0.065 C 
ATOM     19  C   UNL d   1      26.026 -10.916  -5.449  0.00  0.00     0.092 C 
ATOM     20  C   UNL d   1      26.216 -10.667  -4.148  0.00  0.00     0.050 C 
ATOM     21  O   UNL d   1      25.228  -9.694  -5.900  0.00  0.00    -0.341 OA
ATOM     22  C   UNL d   1      27.187 -11.124  -3.339  0.00  0.00     0.052 C 
ATOM     23  N   UNL d   1      25.155 -10.042  -3.533  0.00  0.00    -0.225 NA
ATOM     24  C   UNL d   1      27.738 -12.339  -3.578  0.00  0.00     0.059 C 
ATOM     25 CL   UNL d   1      28.501 -12.804  -2.146  0.00  0.00    -0.083 Cl
ATOM     26  C   UNL d   1      25.532  -8.745  -3.492  0.00  0.00     0.226 C 
ATOM     27  H   UNL d   1      24.409 -10.111  -4.251  0.00  0.00     0.136 HD
ATOM     28  O   UNL d   1      26.186  -8.194  -2.592  0.00  0.00    -0.277 OA
ATOM     29  C   UNL d   1      25.055  -8.296  -4.823  0.00  0.00     0.272 C 
ENDBRANCH   1  17
TORSDOF 5
ENDMDL
MODEL 3
REMARK VINA RESULT:    -7.543      3.427      8.958
REMARK INTER + INTRA:          -9.827
REMARK INTER:                  -9.035
REMARK INTRA:                  -0.793
REMARK CONF_INDEPENDENT:        1.492
REMARK UNBOUND:                -0.793
REMARK  5 active torsions:
REMARK  status: ('A' for Active; 'I' for Inactive)
REMARK    1  A    between atoms: O_2  and  C_3 
REMARK    2  A    between atoms: C_5  and  O_6 
REMARK    3  A    between atoms: C_8  and  N_9 
REMARK    4  A    between atoms: N_9  and  S_10 
REMARK    5  A    between atoms: S_10  and  C_13 
ROOT
ATOM      1  S   UNL d   1      27.980 -14.990  -5.007  0.00  0.00     0.265 S 
ATOM      2  O   UNL d   1      26.791 -15.533  -5.628  0.00  0.00    -0.200 OA
ATOM      3  O   UNL d   1      28.279 -13.573  -5.043  0.00  0.00    -0.200 OA
ENDROOT
BRANCH   1   4
ATOM      4  N   UNL d   1      27.860 -15.433  -3.337  0.00  0.00    -0.278 N 
ATOM      5  H   UNL d   1      28.608 -15.035  -2.793  0.00  0.00     0.179 HD
BRANCH   4   6
ATOM      6  C   UNL d   1      26.667 -15.889  -2.606  0.00  0.00     0.077 A 
ATOM      7  C   UNL d   1      25.316 -15.491  -2.877  0.00  0.00     0.098 A 
ATOM      8  C   UNL d   1      24.253 -15.908  -2.018  0.00  0.00     0.077 A 
ATOM      9  C   UNL d   1      24.485 -16.680  -0.870  0.00  0.00     0.092 A 
ATOM     10  C   UNL d   1      25.797 -17.099  -0.638  0.00  0.00     0.069 A 
ATOM     11  C   UNL d   1      26.848 -16.689  -1.478  0.00  0.00     0.059 A 
ATOM     12 CL   UNL d   1      26.281 -18.200   0.605  0.00  0.00    -0.081 Cl
BRANCH   7  13
ATOM     13  O   UNL d   1      24.811 -14.682  -3.882  0.00  0.00    -0.354 OA
ATOM     14  C   UNL d   1      25.160 -13.324  -3.833  0.00  0.00     0.210 C 
ENDBRANCH   7  13
BRANCH   9  15
ATOM     15  O   UNL d   1      23.377 -17.019  -0.133  0.00  0.00    -0.354 OA
ATOM     16  C   UNL d   1      22.762 -18.273  -0.445  0.00  0.00     0.210 C 
ENDBRANCH   9  15
ENDBRANCH   4   6
ENDBRANCH   1   4
BRANCH   1  17
ATOM     17  C   UNL d   1      29.479 -15.910  -5.763  0.00  0.00     0.104 C 
ATOM     18  C   UNL d   1      30.030 -17.319  -5.463  0.00  0.00     0.065 C 
ATOM     19  C   UNL d   1      31.244 -17.813  -6.190  0.00  0.00     0.092 C 
ATOM     20  C   UNL d   1      31.496 -17.002  -7.225  0.00  0.00     0.050 C 
ATOM     21  O   UNL d   1      32.276 -18.922  -6.388  0.00  0.00    -0.341 OA
ATOM     22  C   UNL d   1      31.239 -15.688  -7.344  0.00  0.00     0.052 C 
ATOM     23  N   UNL d   1      31.862 -17.657  -8.379  0.00  0.00    -0.225 NA
ATOM     24  C   UNL d   1      30.178 -15.155  -6.691  0.00  0.00     0.059 C 
ATOM     25 CL   UNL d   1      29.854 -13.678  -7.443  0.00  0.00    -0.083 Cl
ATOM     26  C   UNL d   1      33.209 -17.544  -8.394  0.00  0.00     0.226 C 
ATOM     27  H   UNL d   1      31.652 -18.647  -8.149  0.00  0.00     0.136 HD
ATOM     28  O   UNL d   1      33.865 -16.614  -8.890  0.00  0.00    -0.277 OA
ATOM     29  C   UNL d   1      33.577 -18.726  -7.578  0.00  0.00     0.272 C 
ENDBRANCH   1  17
TORSDOF 5
ENDMDL
MODEL 4
REMARK VINA RESULT:    -7.515      3.093      9.021
REMARK INTER + INTRA:          -9.662
REMARK INTER:                  -9.006
REMARK INTRA:                  -0.656
REMARK CONF_INDEPENDENT:        1.492
REMARK UNBOUND:                -0.656
REMARK  5 active torsions:
REMARK  status: ('A' for Active; 'I' for Inactive)
REMARK    1  A    between atoms: O_2  and  C_3 
REMARK    2  A    between atoms: C_5  and  O_6 
REMARK    3  A    between atoms: C_8  and  N_9 
REMARK    4  A    between atoms: N_9  and  S_10 
REMARK    5  A    between atoms: S_10  and  C_13 
ROOT
ATOM      1  S   UNL d   1      25.763 -13.591  -4.000  0.00  0.00     0.265 S 
ATOM      2  O   UNL d   1      24.815 -14.535  -4.549  0.00  0.00    -0.200 OA
ATOM      3  O   UNL d   1      25.352 -12.285  -3.527  0.00  0.00    -0.200 OA
ENDROOT
BRANCH   1   4
ATOM      4  N   UNL d   1      26.483 -14.407  -2.652  0.00  0.00    -0.278 N 
ATOM      5  H   UNL d   1      27.204 -13.850  -2.223  0.00  0.00     0.179 HD
BRANCH   4   6
ATOM      6  C   UNL d   1      25.918 -15.504  -1.851  0.00  0.00     0.077 A 
ATOM      7  C   UNL d   1      26.654 -16.609  -1.308  0.00  0.00     0.098 A 
ATOM      8  C   UNL d   1      25.972 -17.678  -0.649  0.00  0.00     0.077 A 
ATOM      9  C   UNL d   1      24.574 -17.712  -0.541  0.00  0.00     0.092 A 
ATOM     10  C   UNL d   1      23.869 -16.612  -1.034  0.00  0.00     0.069 A 
ATOM     11  C   UNL d   1      24.535 -15.558  -1.687  0.00  0.00     0.059 A 
ATOM     12 CL   UNL d   1      22.169 -16.358  -0.846  0.00  0.00    -0.081 Cl
BRANCH   7  13
ATOM     13  O   UNL d   1      28.014 -16.871  -1.334  0.00  0.00    -0.354 OA
ATOM     14  C   UNL d   1      28.586 -17.350  -0.145  0.00  0.00     0.210 C 
ENDBRANCH   7  13
BRANCH   9  15
ATOM     15  O   UNL d   1      24.044 -18.792   0.121  0.00  0.00    -0.354 OA
ATOM     16  C   UNL d   1      22.958 -19.467  -0.524  0.00  0.00     0.210 C 
ENDBRANCH   9  15
ENDBRANCH   4   6
ENDBRANCH   1   4
BRANCH   1  17
ATOM     17  C   UNL d   1      27.118 -13.318  -5.325  0.00  0.00     0.104 C 
ATOM     18  C   UNL d   1      28.289 -14.229  -5.746  0.00  0.00     0.065 C 
ATOM     19  C   UNL d   1      29.235 -13.776  -6.817  0.00  0.00     0.092 C 
ATOM     20  C   UNL d   1      28.712 -12.716  -7.444  0.00  0.00     0.050 C 
ATOM     21  O   UNL d   1      30.490 -14.055  -7.642  0.00  0.00    -0.341 OA
ATOM     22  C   UNL d   1      27.891 -11.772  -6.955  0.00  0.00     0.052 C 
ATOM     23  N   UNL d   1      28.872 -12.734  -8.812  0.00  0.00    -0.225 NA
ATOM     24  C   UNL d   1      27.027 -12.090  -5.961  0.00  0.00     0.059 C 
ATOM     25 CL   UNL d   1      25.847 -10.882  -5.955  0.00  0.00    -0.083 Cl
ATOM     26  C   UNL d   1      29.927 -11.915  -9.018  0.00  0.00     0.226 C 
ATOM     27  H   UNL d   1      29.210 -13.700  -8.984  0.00  0.00     0.136 HD
ATOM     28  O   UNL d   1      29.885 -10.686  -9.189  0.00  0.00    -0.277 OA
ATOM     29  C   UNL d   1      31.040 -12.880  -8.852  0.00  0.00     0.272 C 
ENDBRANCH   1  17
TORSDOF 5
ENDMDL
MODEL 5
REMARK VINA RESULT:    -7.255      3.412      4.916
REMARK INTER + INTRA:          -9.720
REMARK INTER:                  -8.747
REMARK INTRA:                  -0.973
REMARK CONF_INDEPENDENT:        1.492
REMARK UNBOUND:                -0.973
REMARK  5 active torsions:
REMARK  status: ('A' for Active; 'I' for Inactive)
REMARK    1  A    between atoms: O_2  and  C_3 
REMARK    2  A    between atoms: C_5  and  O_6 
REMARK    3  A    between atoms: C_8  and  N_9 
REMARK    4  A    between atoms: N_9  and  S_10 
REMARK    5  A    between atoms: S_10  and  C_13 
ROOT
ATOM      1  S   UNL d   1      28.466 -14.933  -4.163  0.00  0.00     0.265 S 
ATOM      2  O   UNL d   1      28.840 -13.652  -3.606  0.00  0.00    -0.200 OA
ATOM      3  O   UNL d   1      27.907 -15.051  -5.494  0.00  0.00    -0.200 OA
ENDROOT
BRANCH   1   4
ATOM      4  N   UNL d   1      29.920 -15.874  -4.147  0.00  0.00    -0.278 N 
ATOM      5  H   UNL d   1      30.360 -15.862  -3.240  0.00  0.00     0.179 HD
BRANCH   4   6
ATOM      6  C   UNL d   1      30.310 -16.955  -5.066  0.00  0.00     0.077 A 
ATOM      7  C   UNL d   1      30.528 -16.815  -6.477  0.00  0.00     0.098 A 
ATOM      8  C   UNL d   1      30.784 -17.963  -7.287  0.00  0.00     0.077 A 
ATOM      9  C   UNL d   1      30.794 -19.261  -6.753  0.00  0.00     0.092 A 
ATOM     10  C   UNL d   1      30.624 -19.384  -5.373  0.00  0.00     0.069 A 
ATOM     11  C   UNL d   1      30.369 -18.256  -4.570  0.00  0.00     0.059 A 
ATOM     12 CL   UNL d   1      30.782 -20.858  -4.481  0.00  0.00    -0.081 Cl
BRANCH   7  13
ATOM     13  O   UNL d   1      30.502 -15.681  -7.273  0.00  0.00    -0.354 OA
ATOM     14  C   UNL d   1      31.377 -14.643  -6.920  0.00  0.00     0.210 C 
ENDBRANCH   7  13
BRANCH   9  15
ATOM     15  O   UNL d   1      31.059 -20.278  -7.637  0.00  0.00    -0.354 OA
ATOM     16  C   UNL d   1      31.205 -19.907  -9.013  0.00  0.00     0.210 C 
ENDBRANCH   9  15
ENDBRANCH   4   6
ENDBRANCH   1   4
BRANCH   1  17
ATOM     17  C   UNL d   1      27.223 -15.735  -2.948  0.00  0.00     0.104 C 
ATOM     18  C   UNL d   1      27.471 -16.701  -1.772  0.00  0.00     0.065 C 
ATOM     19  C   UNL d   1      26.311 -17.205  -0.967  0.00  0.00     0.092 C 
ATOM     20  C   UNL d   1      25.225 -16.479  -1.259  0.00  0.00     0.050 C 
ATOM     21  O   UNL d   1      25.809 -18.099   0.166  0.00  0.00    -0.341 OA
ATOM     22  C   UNL d   1      24.912 -15.865  -2.412  0.00  0.00     0.052 C 
ATOM     23  N   UNL d   1      24.455 -16.152  -0.166  0.00  0.00    -0.225 NA
ATOM     24  C   UNL d   1      25.902 -15.407  -3.215  0.00  0.00     0.059 C 
ATOM     25 CL   UNL d   1      25.190 -14.283  -4.254  0.00  0.00    -0.083 Cl
ATOM     26  C   UNL d   1      23.450 -17.055  -0.205  0.00  0.00     0.226 C 
ATOM     27  H   UNL d   1      25.066 -16.425   0.627  0.00  0.00     0.136 HD
ATOM     28  O   UNL d   1      22.373 -16.935  -0.813  0.00  0.00    -0.277 OA
ATOM     29  C   UNL d   1      24.076 -18.172   0.542  0.00  0.00     0.272 C 
ENDBRANCH   1  17
TORSDOF 5
ENDMDL
MODEL 6
REMARK VINA RESULT:    -7.251      3.599      8.069
REMARK INTER + INTRA:          -9.738
REMARK INTER:                  -8.742
REMARK INTRA:                  -0.996
REMARK CONF_INDEPENDENT:        1.492
REMARK UNBOUND:                -0.996
REMARK  5 active torsions:
REMARK  status: ('A' for Active; 'I' for Inactive)
REMARK    1  A    between atoms: O_2  and  C_3 
REMARK    2  A    between atoms: C_5  and  O_6 
REMARK    3  A    between atoms: C_8  and  N_9 
REMARK    4  A    between atoms: N_9  and  S_10 
REMARK    5  A    between atoms: S_10  and  C_13 
ROOT
ATOM      1  S   UNL d   1      29.731 -15.634  -2.894  0.00  0.00     0.265 S 
ATOM      2  O   UNL d   1      30.452 -14.447  -3.297  0.00  0.00    -0.200 OA
ATOM      3  O   UNL d   1      29.826 -16.164  -1.549  0.00  0.00    -0.200 OA
ENDROOT
BRANCH   1   4
ATOM      4  N   UNL d   1      28.062 -15.262  -3.168  0.00  0.00    -0.278 N 
ATOM      5  H   UNL d   1      27.917 -14.854  -4.077  0.00  0.00     0.179 HD
BRANCH   4   6
ATOM      6  C   UNL d   1      26.885 -15.834  -2.495  0.00  0.00     0.077 A 
ATOM      7  C   UNL d   1      25.516 -15.560  -2.826  0.00  0.00     0.098 A 
ATOM      8  C   UNL d   1      24.459 -16.083  -2.020  0.00  0.00     0.077 A 
ATOM      9  C   UNL d   1      24.709 -16.840  -0.866  0.00  0.00     0.092 A 
ATOM     10  C   UNL d   1      26.042 -17.138  -0.575  0.00  0.00     0.069 A 
ATOM     11  C   UNL d   1      27.088 -16.624  -1.364  0.00  0.00     0.059 A 
ATOM     12 CL   UNL d   1      26.570 -18.201   0.683  0.00  0.00    -0.081 Cl
BRANCH   7  13
ATOM     13  O   UNL d   1      24.985 -14.793  -3.850  0.00  0.00    -0.354 OA
ATOM     14  C   UNL d   1      25.478 -13.486  -3.979  0.00  0.00     0.210 C 
ENDBRANCH   7  13
BRANCH   9  15
ATOM     15  O   UNL d   1      23.605 -17.288  -0.183  0.00  0.00    -0.354 OA
ATOM     16  C   UNL d   1      23.129 -18.594  -0.523  0.00  0.00     0.210 C 
ENDBRANCH   9  15
ENDBRANCH   4   6
ENDBRANCH   1   4
BRANCH   1  17
ATOM     17  C   UNL d   1      30.236 -17.035  -4.097  0.00  0.00     0.104 C 
ATOM     18  C   UNL d   1      30.773 -18.450  -3.800  0.00  0.00     0.065 C 
ATOM     19  C   UNL d   1      31.112 -19.370  -4.934  0.00  0.00     0.092 C 
ATOM     20  C   UNL d   1      30.610 -18.870  -6.069  0.00  0.00     0.050 C 
ATOM     21  O   UNL d   1      31.662 -20.721  -5.389  0.00  0.00    -0.341 OA
ATOM     22  C   UNL d   1      30.405 -17.585  -6.403  0.00  0.00     0.052 C 
ATOM     23  N   UNL d   1      30.038 -19.812  -6.895  0.00  0.00    -0.225 NA
ATOM     24  C   UNL d   1      30.125 -16.681  -5.433  0.00  0.00     0.059 C 
ATOM     25 CL   UNL d   1      29.438 -15.349  -6.210  0.00  0.00    -0.083 Cl
ATOM     26  C   UNL d   1      30.997 -20.049  -7.817  0.00  0.00     0.226 C 
ATOM     27  H   UNL d   1      30.001 -20.650  -6.285  0.00  0.00     0.136 HD
ATOM     28  O   UNL d   1      31.165 -19.434  -8.883  0.00  0.00    -0.277 OA
ATOM     29  C   UNL d   1      31.774 -21.101  -7.118  0.00  0.00     0.272 C 
ENDBRANCH   1  17
TORSDOF 5
ENDMDL
MODEL 7
REMARK VINA RESULT:    -7.191      3.997      5.548
REMARK INTER + INTRA:          -9.501
REMARK INTER:                  -8.683
REMARK INTRA:                  -0.819
REMARK CONF_INDEPENDENT:        1.492
REMARK UNBOUND:                -0.819
REMARK  5 active torsions:
REMARK  status: ('A' for Active; 'I' for Inactive)
REMARK    1  A    between atoms: O_2  and  C_3 
REMARK    2  A    between atoms: C_5  and  O_6 
REMARK    3  A    between atoms: C_8  and  N_9 
REMARK    4  A    between atoms: N_9  and  S_10 
REMARK    5  A    between atoms: S_10  and  C_13 
ROOT
ATOM      1  S   UNL d   1      26.351 -15.537  -0.879  0.00  0.00     0.265 S 
ATOM      2  O   UNL d   1      26.078 -14.248  -1.475  0.00  0.00    -0.200 OA
ATOM      3  O   UNL d   1      27.326 -16.447  -1.444  0.00  0.00    -0.200 OA
ENDROOT
BRANCH   1   4
ATOM      4  N   UNL d   1      26.870 -15.187   0.736  0.00  0.00    -0.278 N 
ATOM      5  H   UNL d   1      27.299 -15.988   1.169  0.00  0.00     0.179 HD
BRANCH   4   6
ATOM      6  C   UNL d   1      27.152 -13.870   1.330  0.00  0.00     0.077 A 
ATOM      7  C   UNL d   1      27.262 -13.592   2.733  0.00  0.00     0.098 A 
ATOM      8  C   UNL d   1      27.419 -12.249   3.194  0.00  0.00     0.077 A 
ATOM      9  C   UNL d   1      27.432 -11.158   2.311  0.00  0.00     0.092 A 
ATOM     10  C   UNL d   1      27.368 -11.442   0.946  0.00  0.00     0.069 A 
ATOM     11  C   UNL d   1      27.211 -12.763   0.486  0.00  0.00     0.059 A 
ATOM     12 CL   UNL d   1      27.552 -10.276  -0.319  0.00  0.00    -0.081 Cl
BRANCH   7  13
ATOM     13  O   UNL d   1      27.208 -14.452   3.817  0.00  0.00    -0.354 OA
ATOM     14  C   UNL d   1      28.425 -14.741   4.455  0.00  0.00     0.210 C 
ENDBRANCH   7  13
BRANCH   9  15
ATOM     15  O   UNL d   1      27.596  -9.920   2.882  0.00  0.00    -0.354 OA
ATOM     16  C   UNL d   1      27.381  -9.833   4.295  0.00  0.00     0.210 C 
ENDBRANCH   9  15
ENDBRANCH   4   6
ENDBRANCH   1   4
BRANCH   1  17
ATOM     17  C   UNL d   1      24.685 -16.475  -0.780  0.00  0.00     0.104 C 
ATOM     18  C   UNL d   1      23.291 -16.077  -1.309  0.00  0.00     0.065 C 
ATOM     19  C   UNL d   1      22.125 -16.992  -1.091  0.00  0.00     0.092 C 
ATOM     20  C   UNL d   1      22.573 -18.186  -0.685  0.00  0.00     0.050 C 
ATOM     21  O   UNL d   1      20.627 -17.247  -1.254  0.00  0.00    -0.341 OA
ATOM     22  C   UNL d   1      23.678 -18.471   0.024  0.00  0.00     0.052 C 
ATOM     23  N   UNL d   1      21.927 -19.257  -1.261  0.00  0.00    -0.225 NA
ATOM     24  C   UNL d   1      24.768 -17.674  -0.090  0.00  0.00     0.059 C 
ATOM     25 CL   UNL d   1      26.074 -18.571   0.492  0.00  0.00    -0.083 Cl
ATOM     26  C   UNL d   1      21.043 -19.641  -0.313  0.00  0.00     0.226 C 
ATOM     27  H   UNL d   1      21.374 -18.805  -2.014  0.00  0.00     0.136 HD
ATOM     28  O   UNL d   1      21.251 -20.451   0.605  0.00  0.00    -0.277 OA
ATOM     29  C   UNL d   1      19.906 -18.748  -0.643  0.00  0.00     0.272 C 
ENDBRANCH   1  17
TORSDOF 5
ENDMDL
MODEL 8
REMARK VINA RESULT:    -6.681      4.236      6.994
REMARK INTER + INTRA:          -9.545
REMARK INTER:                  -8.173
REMARK INTRA:                  -1.372
REMARK CONF_INDEPENDENT:        1.492
REMARK UNBOUND:                -1.372
REMARK  5 active torsions:
REMARK  status: ('A' for Active; 'I' for Inactive)
REMARK    1  A    between atoms: O_2  and  C_3 
REMARK    2  A    between atoms: C_5  and  O_6 
REMARK    3  A    between atoms: C_8  and  N_9 
REMARK    4  A    between atoms: N_9  and  S_10 
REMARK    5  A    between atoms: S_10  and  C_13 
ROOT
ATOM      1  S   UNL d   1      27.882 -12.919  -1.272  0.00  0.00     0.265 S 
ATOM      2  O   UNL d   1      29.161 -12.448  -1.756  0.00  0.00    -0.200 OA
ATOM      3  O   UNL d   1      26.664 -12.162  -1.475  0.00  0.00    -0.200 OA
ENDROOT
BRANCH   1   4
ATOM      4  N   UNL d   1      27.649 -14.455  -2.038  0.00  0.00    -0.278 N 
ATOM      5  H   UNL d   1      28.478 -14.758  -2.523  0.00  0.00     0.179 HD
BRANCH   4   6
ATOM      6  C   UNL d   1      26.646 -15.484  -1.716  0.00  0.00     0.077 A 
ATOM      7  C   UNL d   1      25.338 -15.587  -2.296  0.00  0.00     0.098 A 
ATOM      8  C   UNL d   1      24.409 -16.559  -1.813  0.00  0.00     0.077 A 
ATOM      9  C   UNL d   1      24.715 -17.413  -0.743  0.00  0.00     0.092 A 
ATOM     10  C   UNL d   1      26.005 -17.335  -0.214  0.00  0.00     0.069 A 
ATOM     11  C   UNL d   1      26.924 -16.378  -0.684  0.00  0.00     0.059 A 
ATOM     12 CL   UNL d   1      26.656 -18.408   0.976  0.00  0.00    -0.081 Cl
BRANCH   7  13
ATOM     13  O   UNL d   1      24.748 -14.836  -3.299  0.00  0.00    -0.354 OA
ATOM     14  C   UNL d   1      25.609 -14.262  -4.247  0.00  0.00     0.210 C 
ENDBRANCH   7  13
BRANCH   9  15
ATOM     15  O   UNL d   1      23.736 -18.305  -0.380  0.00  0.00    -0.354 OA
ATOM     16  C   UNL d   1      22.383 -17.894  -0.603  0.00  0.00     0.210 C 
ENDBRANCH   9  15
ENDBRANCH   4   6
ENDBRANCH   1   4
BRANCH   1  17
ATOM     17  C   UNL d   1      28.066 -13.213   0.611  0.00  0.00     0.104 C 
ATOM     18  C   UNL d   1      27.300 -12.581   1.791  0.00  0.00     0.065 C 
ATOM     19  C   UNL d   1      27.644 -12.973   3.196  0.00  0.00     0.092 C 
ATOM     20  C   UNL d   1      28.419 -14.064   3.170  0.00  0.00     0.050 C 
ATOM     21  O   UNL d   1      27.401 -12.783   4.692  0.00  0.00    -0.341 OA
ATOM     22  C   UNL d   1      29.294 -14.449   2.226  0.00  0.00     0.052 C 
ATOM     23  N   UNL d   1      28.107 -15.001   4.129  0.00  0.00    -0.225 NA
ATOM     24  C   UNL d   1      29.074 -14.108   0.933  0.00  0.00     0.059 C 
ATOM     25 CL   UNL d   1      30.025 -15.146   0.000  0.00  0.00    -0.083 Cl
ATOM     26  C   UNL d   1      29.024 -14.782   5.097  0.00  0.00     0.226 C 
ATOM     27  H   UNL d   1      27.201 -14.651   4.496  0.00  0.00     0.136 HD
ATOM     28  O   UNL d   1      30.152 -15.296   5.174  0.00  0.00    -0.277 OA
ATOM     29  C   UNL d   1      28.334 -13.723   5.872  0.00  0.00     0.272 C 
ENDBRANCH   1  17
TORSDOF 5
ENDMDL
MODEL 9
REMARK VINA RESULT:    -6.660      3.734      5.795
REMARK INTER + INTRA:          -9.503
REMARK INTER:                  -8.151
REMARK INTRA:                  -1.352
REMARK CONF_INDEPENDENT:        1.492
REMARK UNBOUND:                -1.352
REMARK  5 active torsions:
REMARK  status: ('A' for Active; 'I' for Inactive)
REMARK    1  A    between atoms: O_2  and  C_3 
REMARK    2  A    between atoms: C_5  and  O_6 
REMARK    3  A    between atoms: C_8  and  N_9 
REMARK    4  A    between atoms: N_9  and  S_10 
REMARK    5  A    between atoms: S_10  and  C_13 
ROOT
ATOM      1  S   UNL d   1      27.942 -15.219  -2.728  0.00  0.00     0.265 S 
ATOM      2  O   UNL d   1      27.532 -14.540  -3.938  0.00  0.00    -0.200 OA
ATOM      3  O   UNL d   1      29.043 -16.160  -2.718  0.00  0.00    -0.200 OA
ENDROOT
BRANCH   1   4
ATOM      4  N   UNL d   1      28.354 -13.954  -1.619  0.00  0.00    -0.278 N 
ATOM      5  H   UNL d   1      28.513 -13.081  -2.094  0.00  0.00     0.179 HD
BRANCH   4   6
ATOM      6  C   UNL d   1      28.078 -13.892  -0.175  0.00  0.00     0.077 A 
ATOM      7  C   UNL d   1      28.195 -14.985   0.748  0.00  0.00     0.098 A 
ATOM      8  C   UNL d   1      27.781 -14.831   2.106  0.00  0.00     0.077 A 
ATOM      9  C   UNL d   1      27.215 -13.637   2.580  0.00  0.00     0.092 A 
ATOM     10  C   UNL d   1      27.145 -12.566   1.687  0.00  0.00     0.069 A 
ATOM     11  C   UNL d   1      27.549 -12.712   0.346  0.00  0.00     0.059 A 
ATOM     12 CL   UNL d   1      26.658 -10.959   2.102  0.00  0.00    -0.081 Cl
BRANCH   7  13
ATOM     13  O   UNL d   1      28.642 -16.279   0.541  0.00  0.00    -0.354 OA
ATOM     14  C   UNL d   1      29.922 -16.423  -0.015  0.00  0.00     0.210 C 
ENDBRANCH   7  13
BRANCH   9  15
ATOM     15  O   UNL d   1      26.864 -13.618   3.908  0.00  0.00    -0.354 OA
ATOM     16  C   UNL d   1      27.919 -13.842   4.850  0.00  0.00     0.210 C 
ENDBRANCH   9  15
ENDBRANCH   4   6
ENDBRANCH   1   4
BRANCH   1  17
ATOM     17  C   UNL d   1      26.403 -16.133  -2.047  0.00  0.00     0.104 C 
ATOM     18  C   UNL d   1      26.310 -17.419  -1.201  0.00  0.00     0.065 C 
ATOM     19  C   UNL d   1      24.966 -17.947  -0.798  0.00  0.00     0.092 C 
ATOM     20  C   UNL d   1      24.038 -17.011  -1.031  0.00  0.00     0.050 C 
ATOM     21  O   UNL d   1      24.158 -19.037  -0.096  0.00  0.00    -0.341 OA
ATOM     22  C   UNL d   1      24.030 -16.055  -1.975  0.00  0.00     0.052 C 
ATOM     23  N   UNL d   1      23.093 -16.893  -0.037  0.00  0.00    -0.225 NA
ATOM     24  C   UNL d   1      25.204 -15.545  -2.419  0.00  0.00     0.059 C 
ATOM     25 CL   UNL d   1      24.832 -14.078  -3.167  0.00  0.00    -0.083 Cl
ATOM     26  C   UNL d   1      22.037 -17.584  -0.521  0.00  0.00     0.226 C 
ATOM     27  H   UNL d   1      23.499 -17.470   0.725  0.00  0.00     0.136 HD
ATOM     28  O   UNL d   1      21.126 -17.134  -1.235  0.00  0.00    -0.277 OA
ATOM     29  C   UNL d   1      22.387 -18.949  -0.059  0.00  0.00     0.272 C 
ENDBRANCH   1  17
TORSDOF 5
ENDMDL
