MODEL 1
REMARK VINA RESULT:    -9.763      0.000      0.000
REMARK INTER + INTRA:         -13.138
REMARK INTER:                 -12.150
REMARK INTRA:                  -0.988
REMARK CONF_INDEPENDENT:        2.386
REMARK UNBOUND:                -0.988
REMARK  8 active torsions:
REMARK  status: ('A' for Active; 'I' for Inactive)
REMARK    1  A    between atoms: O_2  and  C_3 
REMARK    2  A    between atoms: C_6  and  S_7 
REMARK    3  A    between atoms: S_7  and  N_10 
REMARK    4  A    between atoms: C_13  and  N_14 
REMARK    5  A    between atoms: N_14  and  N_15 
REMARK       I    between atoms: N_15  and  C_16 
REMARK    6  A    between atoms: C_16  and  C_18 
REMARK    7  A    between atoms: C_20  and  O_21 
REMARK    8  A    between atoms: C_23  and  O_24 
ROOT
ATOM      1  N   UNL d   1      26.879 -16.098   0.697  0.00  0.00    -0.160 NA
ATOM      2  C   UNL d   1      28.142 -15.772   0.854  0.00  0.00     0.079 A 
ATOM      3  C   UNL d   1      28.492 -14.683   1.835  0.00  0.00     0.068 A 
ATOM      4  C   UNL d   1      29.740 -14.235   2.100  0.00  0.00     0.101 A 
ATOM      5  C   UNL d   1      30.915 -14.852   1.382  0.00  0.00     0.207 A 
ATOM      6  O   UNL d   1      32.069 -14.464   1.594  0.00  0.00    -0.285 OA
ATOM      7  C   UNL d   1      30.646 -15.934   0.422  0.00  0.00     0.007 A 
ATOM      8  C   UNL d   1      29.384 -16.327   0.197  0.00  0.00    -0.015 A 
ATOM      9  C   UNL d   1      29.175 -17.434  -0.747  0.00  0.00     0.068 C 
ATOM     10  C   UNL d   1      30.269 -18.320  -1.120  0.00  0.00    -0.026 C 
ATOM     11  C   UNL d   1      31.521 -17.942  -0.897  0.00  0.00    -0.026 C 
ATOM     12  C   UNL d   1      31.823 -16.596  -0.276  0.00  0.00     0.070 C 
ENDROOT
BRANCH   4  13
ATOM     13  N   UNL d   1      30.071 -13.226   2.994  0.00  0.00    -0.294 N 
ATOM     14  H   UNL d   1      30.351 -12.318   2.587  0.00  0.00     0.187 HD
BRANCH  13  15
ATOM     15  N   UNL d   1      30.083 -13.340   4.377  0.00  0.00    -0.265 N 
ATOM     16  C   UNL d   1      28.915 -13.222   5.100  0.00  0.00     0.270 C 
ATOM     17  O   UNL d   1      27.804 -13.003   4.614  0.00  0.00    -0.266 OA
ATOM     18  H   UNL d   1      30.949 -13.620   4.817  0.00  0.00     0.190 HD
BRANCH  16  19
ATOM     19  C   UNL d   1      29.072 -13.374   6.574  0.00  0.00     0.038 A 
ATOM     20  C   UNL d   1      28.268 -12.618   7.436  0.00  0.00     0.053 A 
ATOM     21  C   UNL d   1      28.532 -12.641   8.805  0.00  0.00     0.069 A 
ATOM     22  C   UNL d   1      29.519 -13.466   9.337  0.00  0.00     0.073 A 
ATOM     23  C   UNL d   1      30.294 -14.231   8.472  0.00  0.00     0.069 A 
ATOM     24  C   UNL d   1      30.083 -14.191   7.097  0.00  0.00     0.053 A 
BRANCH  21  25
ATOM     25  O   UNL d   1      27.866 -11.825   9.674  0.00  0.00    -0.361 OA
ATOM     26  H   UNL d   1      28.237 -10.928   9.613  0.00  0.00     0.217 HD
ENDBRANCH  21  25
BRANCH  23  27
ATOM     27  O   UNL d   1      31.313 -15.015   8.929  0.00  0.00    -0.361 OA
ATOM     28  H   UNL d   1      31.050 -15.948   8.857  0.00  0.00     0.217 HD
ENDBRANCH  23  27
ENDBRANCH  16  19
ENDBRANCH  13  15
ENDBRANCH   4  13
BRANCH   1  29
ATOM     29  S   UNL d   1      26.365 -17.285  -0.327  0.00  0.00     0.283 S 
ATOM     30  O   UNL d   1      26.711 -18.581   0.229  0.00  0.00    -0.198 OA
ATOM     31  O   UNL d   1      26.698 -16.899  -1.687  0.00  0.00    -0.198 OA
BRANCH  29  32
ATOM     32  C   UNL d   1      24.649 -17.436  -0.462  0.00  0.00     0.081 A 
ATOM     33  C   UNL d   1      24.127 -18.744  -0.390  0.00  0.00     0.028 A 
ATOM     34  C   UNL d   1      22.780 -18.936  -0.620  0.00  0.00     0.038 A 
ATOM     35  C   UNL d   1      21.976 -17.818  -0.835  0.00  0.00     0.068 A 
ATOM     36  C   UNL d   1      22.529 -16.526  -0.876  0.00  0.00     0.038 A 
ATOM     37  C   UNL d   1      23.883 -16.325  -0.696  0.00  0.00     0.028 A 
BRANCH  35  38
ATOM     38  O   UNL d   1      20.636 -18.073  -0.896  0.00  0.00    -0.356 OA
ATOM     39  C   UNL d   1      20.245 -19.355  -0.428  0.00  0.00     0.210 C 
ENDBRANCH  35  38
ENDBRANCH  29  32
ENDBRANCH   1  29
TORSDOF 8
ENDMDL
MODEL 2
REMARK VINA RESULT:    -9.257      3.166      9.476
REMARK INTER + INTRA:         -12.644
REMARK INTER:                 -11.643
REMARK INTRA:                  -1.001
REMARK CONF_INDEPENDENT:        2.386
REMARK UNBOUND:                -1.001
REMARK  8 active torsions:
REMARK  status: ('A' for Active; 'I' for Inactive)
REMARK    1  A    between atoms: O_2  and  C_3 
REMARK    2  A    between atoms: C_6  and  S_7 
REMARK    3  A    between atoms: S_7  and  N_10 
REMARK    4  A    between atoms: C_13  and  N_14 
REMARK    5  A    between atoms: N_14  and  N_15 
REMARK       I    between atoms: N_15  and  C_16 
REMARK    6  A    between atoms: C_16  and  C_18 
REMARK    7  A    between atoms: C_20  and  O_21 
REMARK    8  A    between atoms: C_23  and  O_24 
ROOT
ATOM      1  N   UNL d   1      26.736 -14.022   1.016  0.00  0.00    -0.160 NA
ATOM      2  C   UNL d   1      26.451 -14.223  -0.251  0.00  0.00     0.079 A 
ATOM      3  C   UNL d   1      25.853 -15.546  -0.656  0.00  0.00     0.068 A 
ATOM      4  C   UNL d   1      25.514 -15.901  -1.917  0.00  0.00     0.101 A 
ATOM      5  C   UNL d   1      25.728 -14.923  -3.044  0.00  0.00     0.207 A 
ATOM      6  O   UNL d   1      25.435 -15.216  -4.208  0.00  0.00    -0.285 OA
ATOM      7  C   UNL d   1      26.292 -13.604  -2.715  0.00  0.00     0.007 A 
ATOM      8  C   UNL d   1      26.616 -13.315  -1.446  0.00  0.00    -0.015 A 
ATOM      9  C   UNL d   1      27.146 -11.973  -1.170  0.00  0.00     0.068 C 
ATOM     10  C   UNL d   1      26.967 -10.884  -2.120  0.00  0.00    -0.026 C 
ATOM     11  C   UNL d   1      26.641 -11.159  -3.376  0.00  0.00    -0.026 C 
ATOM     12  C   UNL d   1      26.472 -12.591  -3.835  0.00  0.00     0.070 C 
ENDROOT
BRANCH   4  13
ATOM     13  N   UNL d   1      24.973 -17.120  -2.301  0.00  0.00    -0.294 N 
ATOM     14  H   UNL d   1      25.521 -17.682  -2.973  0.00  0.00     0.187 HD
BRANCH  13  15
ATOM     15  N   UNL d   1      23.753 -17.634  -1.882  0.00  0.00    -0.265 N 
ATOM     16  C   UNL d   1      23.503 -17.843  -0.543  0.00  0.00     0.270 C 
ATOM     17  O   UNL d   1      24.302 -17.615   0.367  0.00  0.00    -0.266 OA
ATOM     18  H   UNL d   1      23.026 -17.743  -2.577  0.00  0.00     0.190 HD
BRANCH  16  19
ATOM     19  C   UNL d   1      22.152 -18.389  -0.235  0.00  0.00     0.038 A 
ATOM     20  C   UNL d   1      21.800 -18.652   1.095  0.00  0.00     0.053 A 
ATOM     21  C   UNL d   1      20.602 -19.316   1.361  0.00  0.00     0.069 A 
ATOM     22  C   UNL d   1      19.714 -19.643   0.341  0.00  0.00     0.073 A 
ATOM     23  C   UNL d   1      20.064 -19.353  -0.973  0.00  0.00     0.069 A 
ATOM     24  C   UNL d   1      21.275 -18.734  -1.272  0.00  0.00     0.053 A 
BRANCH  21  25
ATOM     25  O   UNL d   1      20.272 -19.714   2.626  0.00  0.00    -0.361 OA
ATOM     26  H   UNL d   1      20.826 -20.474   2.873  0.00  0.00     0.217 HD
ENDBRANCH  21  25
BRANCH  23  27
ATOM     27  O   UNL d   1      19.261 -19.700  -2.020  0.00  0.00    -0.361 OA
ATOM     28  H   UNL d   1      18.469 -19.135  -2.011  0.00  0.00     0.217 HD
ENDBRANCH  23  27
ENDBRANCH  16  19
ENDBRANCH  13  15
ENDBRANCH   4  13
BRANCH   1  29
ATOM     29  S   UNL d   1      27.371 -12.613   1.593  0.00  0.00     0.283 S 
ATOM     30  O   UNL d   1      26.364 -11.570   1.530  0.00  0.00    -0.198 OA
ATOM     31  O   UNL d   1      28.706 -12.450   1.046  0.00  0.00    -0.198 OA
BRANCH  29  32
ATOM     32  C   UNL d   1      27.731 -12.616   3.283  0.00  0.00     0.081 A 
ATOM     33  C   UNL d   1      27.586 -13.848   3.953  0.00  0.00     0.028 A 
ATOM     34  C   UNL d   1      27.735 -13.881   5.324  0.00  0.00     0.038 A 
ATOM     35  C   UNL d   1      28.102 -12.709   5.983  0.00  0.00     0.068 A 
ATOM     36  C   UNL d   1      28.262 -11.503   5.277  0.00  0.00     0.038 A 
ATOM     37  C   UNL d   1      28.067 -11.447   3.912  0.00  0.00     0.028 A 
BRANCH  35  38
ATOM     38  O   UNL d   1      28.385 -12.856   7.310  0.00  0.00    -0.356 OA
ATOM     39  C   UNL d   1      29.629 -13.476   7.596  0.00  0.00     0.210 C 
ENDBRANCH  35  38
ENDBRANCH  29  32
ENDBRANCH   1  29
TORSDOF 8
ENDMDL
MODEL 3
REMARK VINA RESULT:    -9.011      2.526      3.872
REMARK INTER + INTRA:         -12.397
REMARK INTER:                 -11.398
REMARK INTRA:                  -1.000
REMARK CONF_INDEPENDENT:        2.386
REMARK UNBOUND:                -1.000
REMARK  8 active torsions:
REMARK  status: ('A' for Active; 'I' for Inactive)
REMARK    1  A    between atoms: O_2  and  C_3 
REMARK    2  A    between atoms: C_6  and  S_7 
REMARK    3  A    between atoms: S_7  and  N_10 
REMARK    4  A    between atoms: C_13  and  N_14 
REMARK    5  A    between atoms: N_14  and  N_15 
REMARK       I    between atoms: N_15  and  C_16 
REMARK    6  A    between atoms: C_16  and  C_18 
REMARK    7  A    between atoms: C_20  and  O_21 
REMARK    8  A    between atoms: C_23  and  O_24 
ROOT
ATOM      1  N   UNL d   1      24.756 -17.136  -0.117  0.00  0.00    -0.160 NA
ATOM      2  C   UNL d   1      25.764 -16.337  -0.389  0.00  0.00     0.079 A 
ATOM      3  C   UNL d   1      26.944 -16.315   0.548  0.00  0.00     0.068 A 
ATOM      4  C   UNL d   1      28.046 -15.545   0.405  0.00  0.00     0.101 A 
ATOM      5  C   UNL d   1      28.153 -14.619  -0.781  0.00  0.00     0.207 A 
ATOM      6  O   UNL d   1      29.143 -13.897  -0.941  0.00  0.00    -0.285 OA
ATOM      7  C   UNL d   1      27.043 -14.604  -1.747  0.00  0.00     0.007 A 
ATOM      8  C   UNL d   1      25.972 -15.385  -1.544  0.00  0.00    -0.015 A 
ATOM      9  C   UNL d   1      24.907 -15.355  -2.556  0.00  0.00     0.068 C 
ATOM     10  C   UNL d   1      25.153 -14.825  -3.890  0.00  0.00    -0.026 C 
ATOM     11  C   UNL d   1      26.213 -14.056  -4.102  0.00  0.00    -0.026 C 
ATOM     12  C   UNL d   1      27.155 -13.709  -2.971  0.00  0.00     0.070 C 
ENDROOT
BRANCH   4  13
ATOM     13  N   UNL d   1      29.133 -15.510   1.268  0.00  0.00    -0.294 N 
ATOM     14  H   UNL d   1      29.964 -16.059   0.992  0.00  0.00     0.187 HD
BRANCH  13  15
ATOM     15  N   UNL d   1      29.188 -14.825   2.474  0.00  0.00    -0.265 N 
ATOM     16  C   UNL d   1      28.216 -13.906   2.804  0.00  0.00     0.270 C 
ATOM     17  O   UNL d   1      27.256 -13.609   2.091  0.00  0.00    -0.266 OA
ATOM     18  H   UNL d   1      29.898 -15.103   3.139  0.00  0.00     0.190 HD
BRANCH  16  19
ATOM     19  C   UNL d   1      28.395 -13.252   4.131  0.00  0.00     0.038 A 
ATOM     20  C   UNL d   1      28.547 -14.044   5.276  0.00  0.00     0.053 A 
ATOM     21  C   UNL d   1      28.547 -13.431   6.529  0.00  0.00     0.069 A 
ATOM     22  C   UNL d   1      28.485 -12.047   6.657  0.00  0.00     0.073 A 
ATOM     23  C   UNL d   1      28.360 -11.271   5.511  0.00  0.00     0.069 A 
ATOM     24  C   UNL d   1      28.310 -11.859   4.250  0.00  0.00     0.053 A 
BRANCH  21  25
ATOM     25  O   UNL d   1      28.561 -14.164   7.681  0.00  0.00    -0.361 OA
ATOM     26  H   UNL d   1      29.233 -14.863   7.605  0.00  0.00     0.217 HD
ENDBRANCH  21  25
BRANCH  23  27
ATOM     27  O   UNL d   1      28.238  -9.913   5.576  0.00  0.00    -0.361 OA
ATOM     28  H   UNL d   1      27.407  -9.692   6.031  0.00  0.00     0.217 HD
ENDBRANCH  23  27
ENDBRANCH  16  19
ENDBRANCH  13  15
ENDBRANCH   4  13
BRANCH   1  29
ATOM     29  S   UNL d   1      23.418 -17.272  -1.071  0.00  0.00     0.283 S 
ATOM     30  O   UNL d   1      23.778 -17.931  -2.313  0.00  0.00    -0.198 OA
ATOM     31  O   UNL d   1      22.692 -16.014  -1.030  0.00  0.00    -0.198 OA
BRANCH  29  32
ATOM     32  C   UNL d   1      22.204 -18.346  -0.473  0.00  0.00     0.081 A 
ATOM     33  C   UNL d   1      21.373 -18.952  -1.436  0.00  0.00     0.028 A 
ATOM     34  C   UNL d   1      20.307 -19.717  -1.008  0.00  0.00     0.038 A 
ATOM     35  C   UNL d   1      20.143 -19.925   0.360  0.00  0.00     0.068 A 
ATOM     36  C   UNL d   1      21.008 -19.323   1.291  0.00  0.00     0.038 A 
ATOM     37  C   UNL d   1      22.049 -18.516   0.878  0.00  0.00     0.028 A 
BRANCH  35  38
ATOM     38  O   UNL d   1      19.167 -20.818   0.696  0.00  0.00    -0.356 OA
ATOM     39  C   UNL d   1      18.023 -20.803  -0.143  0.00  0.00     0.210 C 
ENDBRANCH  35  38
ENDBRANCH  29  32
ENDBRANCH   1  29
TORSDOF 8
ENDMDL
MODEL 4
REMARK VINA RESULT:    -8.875      6.043      9.405
REMARK INTER + INTRA:         -12.903
REMARK INTER:                 -11.262
REMARK INTRA:                  -1.642
REMARK CONF_INDEPENDENT:        2.386
REMARK UNBOUND:                -1.642
REMARK  8 active torsions:
REMARK  status: ('A' for Active; 'I' for Inactive)
REMARK    1  A    between atoms: O_2  and  C_3 
REMARK    2  A    between atoms: C_6  and  S_7 
REMARK    3  A    between atoms: S_7  and  N_10 
REMARK    4  A    between atoms: C_13  and  N_14 
REMARK    5  A    between atoms: N_14  and  N_15 
REMARK       I    between atoms: N_15  and  C_16 
REMARK    6  A    between atoms: C_16  and  C_18 
REMARK    7  A    between atoms: C_20  and  O_21 
REMARK    8  A    between atoms: C_23  and  O_24 
ROOT
ATOM      1  N   UNL d   1      23.262 -16.708  -1.543  0.00  0.00    -0.160 NA
ATOM      2  C   UNL d   1      24.371 -16.101  -1.903  0.00  0.00     0.079 A 
ATOM      3  C   UNL d   1      24.272 -14.828  -2.703  0.00  0.00     0.068 A 
ATOM      4  C   UNL d   1      25.320 -14.097  -3.148  0.00  0.00     0.101 A 
ATOM      5  C   UNL d   1      26.724 -14.551  -2.837  0.00  0.00     0.207 A 
ATOM      6  O   UNL d   1      27.704 -13.911  -3.232  0.00  0.00    -0.285 OA
ATOM      7  C   UNL d   1      26.893 -15.777  -2.042  0.00  0.00     0.007 A 
ATOM      8  C   UNL d   1      25.813 -16.463  -1.637  0.00  0.00    -0.015 A 
ATOM      9  C   UNL d   1      26.039 -17.663  -0.819  0.00  0.00     0.068 C 
ATOM     10  C   UNL d   1      27.312 -17.887  -0.149  0.00  0.00    -0.026 C 
ATOM     11  C   UNL d   1      28.384 -17.210  -0.539  0.00  0.00    -0.026 C 
ATOM     12  C   UNL d   1      28.301 -16.223  -1.681  0.00  0.00     0.070 C 
ENDROOT
BRANCH   4  13
ATOM     13  N   UNL d   1      25.239 -12.930  -3.895  0.00  0.00    -0.294 N 
ATOM     14  H   UNL d   1      24.496 -12.260  -3.632  0.00  0.00     0.187 HD
BRANCH  13  15
ATOM     15  N   UNL d   1      26.048 -12.599  -4.973  0.00  0.00    -0.265 N 
ATOM     16  C   UNL d   1      25.949 -11.361  -5.570  0.00  0.00     0.270 C 
ATOM     17  O   UNL d   1      25.164 -10.475  -5.229  0.00  0.00    -0.266 OA
ATOM     18  H   UNL d   1      26.778 -13.250  -5.229  0.00  0.00     0.190 HD
BRANCH  16  19
ATOM     19  C   UNL d   1      26.882 -11.137  -6.709  0.00  0.00     0.038 A 
ATOM     20  C   UNL d   1      26.648 -10.079  -7.596  0.00  0.00     0.053 A 
ATOM     21  C   UNL d   1      27.426  -9.976  -8.750  0.00  0.00     0.069 A 
ATOM     22  C   UNL d   1      28.481 -10.851  -8.991  0.00  0.00     0.073 A 
ATOM     23  C   UNL d   1      28.719 -11.882  -8.090  0.00  0.00     0.069 A 
ATOM     24  C   UNL d   1      27.928 -12.037  -6.954  0.00  0.00     0.053 A 
BRANCH  21  25
ATOM     25  O   UNL d   1      27.156  -9.044  -9.711  0.00  0.00    -0.361 OA
ATOM     26  H   UNL d   1      27.091  -8.168  -9.294  0.00  0.00     0.217 HD
ENDBRANCH  21  25
BRANCH  23  27
ATOM     27  O   UNL d   1      29.702 -12.804  -8.301  0.00  0.00    -0.361 OA
ATOM     28  H   UNL d   1      29.375 -13.479  -8.920  0.00  0.00     0.217 HD
ENDBRANCH  23  27
ENDBRANCH  16  19
ENDBRANCH  13  15
ENDBRANCH   4  13
BRANCH   1  29
ATOM     29  S   UNL d   1      23.231 -18.093  -0.648  0.00  0.00     0.283 S 
ATOM     30  O   UNL d   1      23.753 -17.820   0.679  0.00  0.00    -0.198 OA
ATOM     31  O   UNL d   1      23.715 -19.187  -1.473  0.00  0.00    -0.198 OA
BRANCH  29  32
ATOM     32  C   UNL d   1      21.651 -18.675  -0.263  0.00  0.00     0.081 A 
ATOM     33  C   UNL d   1      21.397 -18.950   1.096  0.00  0.00     0.028 A 
ATOM     34  C   UNL d   1      20.198 -19.536   1.444  0.00  0.00     0.038 A 
ATOM     35  C   UNL d   1      19.252 -19.760   0.445  0.00  0.00     0.068 A 
ATOM     36  C   UNL d   1      19.531 -19.451  -0.897  0.00  0.00     0.038 A 
ATOM     37  C   UNL d   1      20.746 -18.909  -1.265  0.00  0.00     0.028 A 
BRANCH  35  38
ATOM     38  O   UNL d   1      18.035 -20.194   0.888  0.00  0.00    -0.356 OA
ATOM     39  C   UNL d   1      17.909 -21.602   1.018  0.00  0.00     0.210 C 
ENDBRANCH  35  38
ENDBRANCH  29  32
ENDBRANCH   1  29
TORSDOF 8
ENDMDL
MODEL 5
REMARK VINA RESULT:    -8.770      5.912      9.101
REMARK INTER + INTRA:         -12.073
REMARK INTER:                 -11.157
REMARK INTRA:                  -0.916
REMARK CONF_INDEPENDENT:        2.386
REMARK UNBOUND:                -0.916
REMARK  8 active torsions:
REMARK  status: ('A' for Active; 'I' for Inactive)
REMARK    1  A    between atoms: O_2  and  C_3 
REMARK    2  A    between atoms: C_6  and  S_7 
REMARK    3  A    between atoms: S_7  and  N_10 
REMARK    4  A    between atoms: C_13  and  N_14 
REMARK    5  A    between atoms: N_14  and  N_15 
REMARK       I    between atoms: N_15  and  C_16 
REMARK    6  A    between atoms: C_16  and  C_18 
REMARK    7  A    between atoms: C_20  and  O_21 
REMARK    8  A    between atoms: C_23  and  O_24 
ROOT
ATOM      1  N   UNL d   1      23.375 -16.886  -1.415  0.00  0.00    -0.160 NA
ATOM      2  C   UNL d   1      24.508 -16.320  -1.764  0.00  0.00     0.079 A 
ATOM      3  C   UNL d   1      24.465 -15.105  -2.654  0.00  0.00     0.068 A 
ATOM      4  C   UNL d   1      25.543 -14.420  -3.100  0.00  0.00     0.101 A 
ATOM      5  C   UNL d   1      26.924 -14.868  -2.694  0.00  0.00     0.207 A 
ATOM      6  O   UNL d   1      27.931 -14.270  -3.088  0.00  0.00    -0.285 OA
ATOM      7  C   UNL d   1      27.038 -16.039  -1.810  0.00  0.00     0.007 A 
ATOM      8  C   UNL d   1      25.931 -16.681  -1.408  0.00  0.00    -0.015 A 
ATOM      9  C   UNL d   1      26.101 -17.824  -0.501  0.00  0.00     0.068 C 
ATOM     10  C   UNL d   1      27.339 -18.017   0.241  0.00  0.00    -0.026 C 
ATOM     11  C   UNL d   1      28.438 -17.382  -0.145  0.00  0.00    -0.026 C 
ATOM     12  C   UNL d   1      28.422 -16.476  -1.356  0.00  0.00     0.070 C 
ENDROOT
BRANCH   4  13
ATOM     13  N   UNL d   1      25.514 -13.306  -3.928  0.00  0.00    -0.294 N 
ATOM     14  H   UNL d   1      24.662 -12.722  -3.893  0.00  0.00     0.187 HD
BRANCH  13  15
ATOM     15  N   UNL d   1      26.514 -12.927  -4.812  0.00  0.00    -0.265 N 
ATOM     16  C   UNL d   1      27.058 -13.841  -5.690  0.00  0.00     0.270 C 
ATOM     17  O   UNL d   1      26.731 -15.027  -5.765  0.00  0.00    -0.266 OA
ATOM     18  H   UNL d   1      26.748 -11.945  -4.863  0.00  0.00     0.190 HD
BRANCH  16  19
ATOM     19  C   UNL d   1      28.115 -13.297  -6.587  0.00  0.00     0.038 A 
ATOM     20  C   UNL d   1      29.202 -14.104  -6.944  0.00  0.00     0.053 A 
ATOM     21  C   UNL d   1      30.267 -13.539  -7.644  0.00  0.00     0.069 A 
ATOM     22  C   UNL d   1      30.231 -12.214  -8.069  0.00  0.00     0.073 A 
ATOM     23  C   UNL d   1      29.135 -11.429  -7.731  0.00  0.00     0.069 A 
ATOM     24  C   UNL d   1      28.079 -11.955  -6.991  0.00  0.00     0.053 A 
BRANCH  21  25
ATOM     25  O   UNL d   1      31.407 -14.246  -7.902  0.00  0.00    -0.361 OA
ATOM     26  H   UNL d   1      31.857 -14.438  -7.062  0.00  0.00     0.217 HD
ENDBRANCH  21  25
BRANCH  23  27
ATOM     27  O   UNL d   1      29.068 -10.110  -8.070  0.00  0.00    -0.361 OA
ATOM     28  H   UNL d   1      28.190  -9.766  -7.831  0.00  0.00     0.217 HD
ENDBRANCH  23  27
ENDBRANCH  16  19
ENDBRANCH  13  15
ENDBRANCH   4  13
BRANCH   1  29
ATOM     29  S   UNL d   1      23.282 -18.205  -0.428  0.00  0.00     0.283 S 
ATOM     30  O   UNL d   1      23.666 -17.826   0.919  0.00  0.00    -0.198 OA
ATOM     31  O   UNL d   1      23.864 -19.342  -1.121  0.00  0.00    -0.198 OA
BRANCH  29  32
ATOM     32  C   UNL d   1      21.682 -18.798  -0.156  0.00  0.00     0.081 A 
ATOM     33  C   UNL d   1      21.290 -18.950   1.189  0.00  0.00     0.028 A 
ATOM     34  C   UNL d   1      20.073 -19.540   1.465  0.00  0.00     0.038 A 
ATOM     35  C   UNL d   1      19.245 -19.889   0.399  0.00  0.00     0.068 A 
ATOM     36  C   UNL d   1      19.661 -19.699  -0.931  0.00  0.00     0.038 A 
ATOM     37  C   UNL d   1      20.896 -19.156  -1.220  0.00  0.00     0.028 A 
BRANCH  35  38
ATOM     38  O   UNL d   1      17.998 -20.317   0.752  0.00  0.00    -0.356 OA
ATOM     39  C   UNL d   1      17.894 -21.706   1.027  0.00  0.00     0.210 C 
ENDBRANCH  35  38
ENDBRANCH  29  32
ENDBRANCH   1  29
TORSDOF 8
ENDMDL
MODEL 6
REMARK VINA RESULT:    -8.735      6.860     10.046
REMARK INTER + INTRA:         -12.464
REMARK INTER:                 -11.121
REMARK INTRA:                  -1.342
REMARK CONF_INDEPENDENT:        2.386
REMARK UNBOUND:                -1.342
REMARK  8 active torsions:
REMARK  status: ('A' for Active; 'I' for Inactive)
REMARK    1  A    between atoms: O_2  and  C_3 
REMARK    2  A    between atoms: C_6  and  S_7 
REMARK    3  A    between atoms: S_7  and  N_10 
REMARK    4  A    between atoms: C_13  and  N_14 
REMARK    5  A    between atoms: N_14  and  N_15 
REMARK       I    between atoms: N_15  and  C_16 
REMARK    6  A    between atoms: C_16  and  C_18 
REMARK    7  A    between atoms: C_20  and  O_21 
REMARK    8  A    between atoms: C_23  and  O_24 
ROOT
ATOM      1  N   UNL d   1      26.338 -15.457  -3.620  0.00  0.00    -0.160 NA
ATOM      2  C   UNL d   1      27.001 -14.651  -4.418  0.00  0.00     0.079 A 
ATOM      3  C   UNL d   1      27.987 -15.245  -5.391  0.00  0.00     0.068 A 
ATOM      4  C   UNL d   1      28.744 -14.547  -6.267  0.00  0.00     0.101 A 
ATOM      5  C   UNL d   1      28.622 -13.045  -6.317  0.00  0.00     0.207 A 
ATOM      6  O   UNL d   1      29.303 -12.374  -7.101  0.00  0.00    -0.285 OA
ATOM      7  C   UNL d   1      27.663 -12.399  -5.406  0.00  0.00     0.007 A 
ATOM      8  C   UNL d   1      26.947 -13.147  -4.553  0.00  0.00    -0.015 A 
ATOM      9  C   UNL d   1      25.981 -12.455  -3.689  0.00  0.00     0.068 C 
ATOM     10  C   UNL d   1      25.530 -11.105  -3.997  0.00  0.00    -0.026 C 
ATOM     11  C   UNL d   1      26.229 -10.359  -4.843  0.00  0.00    -0.026 C 
ATOM     12  C   UNL d   1      27.496 -10.890  -5.476  0.00  0.00     0.070 C 
ENDROOT
BRANCH   4  13
ATOM     13  N   UNL d   1      29.662 -15.084  -7.159  0.00  0.00    -0.294 N 
ATOM     14  H   UNL d   1      30.057 -14.441  -7.865  0.00  0.00     0.187 HD
BRANCH  13  15
ATOM     15  N   UNL d   1      30.073 -16.409  -7.199  0.00  0.00    -0.265 N 
ATOM     16  C   UNL d   1      30.431 -17.068  -6.042  0.00  0.00     0.270 C 
ATOM     17  O   UNL d   1      30.431 -16.566  -4.917  0.00  0.00    -0.266 OA
ATOM     18  H   UNL d   1      29.995 -16.898  -8.080  0.00  0.00     0.190 HD
BRANCH  16  19
ATOM     19  C   UNL d   1      30.843 -18.487  -6.230  0.00  0.00     0.038 A 
ATOM     20  C   UNL d   1      31.473 -18.872  -7.419  0.00  0.00     0.053 A 
ATOM     21  C   UNL d   1      31.704 -20.227  -7.657  0.00  0.00     0.069 A 
ATOM     22  C   UNL d   1      31.401 -21.192  -6.701  0.00  0.00     0.073 A 
ATOM     23  C   UNL d   1      30.798 -20.793  -5.513  0.00  0.00     0.069 A 
ATOM     24  C   UNL d   1      30.512 -19.453  -5.269  0.00  0.00     0.053 A 
BRANCH  21  25
ATOM     25  O   UNL d   1      32.195 -20.668  -8.853  0.00  0.00    -0.361 OA
ATOM     26  H   UNL d   1      32.571 -21.557  -8.733  0.00  0.00     0.217 HD
ENDBRANCH  21  25
BRANCH  23  27
ATOM     27  O   UNL d   1      30.426 -21.698  -4.562  0.00  0.00    -0.361 OA
ATOM     28  H   UNL d   1      30.363 -22.578  -4.970  0.00  0.00     0.217 HD
ENDBRANCH  23  27
ENDBRANCH  16  19
ENDBRANCH  13  15
ENDBRANCH   4  13
BRANCH   1  29
ATOM     29  S   UNL d   1      25.215 -14.937  -2.528  0.00  0.00     0.283 S 
ATOM     30  O   UNL d   1      24.092 -14.351  -3.236  0.00  0.00    -0.198 OA
ATOM     31  O   UNL d   1      25.905 -14.256  -1.446  0.00  0.00    -0.198 OA
BRANCH  29  32
ATOM     32  C   UNL d   1      24.424 -16.193  -1.645  0.00  0.00     0.081 A 
ATOM     33  C   UNL d   1      23.087 -15.950  -1.270  0.00  0.00     0.028 A 
ATOM     34  C   UNL d   1      22.448 -16.862  -0.455  0.00  0.00     0.038 A 
ATOM     35  C   UNL d   1      23.126 -18.028  -0.101  0.00  0.00     0.068 A 
ATOM     36  C   UNL d   1      24.451 -18.247  -0.515  0.00  0.00     0.038 A 
ATOM     37  C   UNL d   1      25.118 -17.320  -1.290  0.00  0.00     0.028 A 
BRANCH  35  38
ATOM     38  O   UNL d   1      22.377 -18.950   0.571  0.00  0.00    -0.356 OA
ATOM     39  C   UNL d   1      21.166 -19.325  -0.069  0.00  0.00     0.210 C 
ENDBRANCH  35  38
ENDBRANCH  29  32
ENDBRANCH   1  29
TORSDOF 8
ENDMDL
MODEL 7
REMARK VINA RESULT:    -8.729      5.915      7.835
REMARK INTER + INTRA:         -12.267
REMARK INTER:                 -11.115
REMARK INTRA:                  -1.152
REMARK CONF_INDEPENDENT:        2.386
REMARK UNBOUND:                -1.152
REMARK  8 active torsions:
REMARK  status: ('A' for Active; 'I' for Inactive)
REMARK    1  A    between atoms: O_2  and  C_3 
REMARK    2  A    between atoms: C_6  and  S_7 
REMARK    3  A    between atoms: S_7  and  N_10 
REMARK    4  A    between atoms: C_13  and  N_14 
REMARK    5  A    between atoms: N_14  and  N_15 
REMARK       I    between atoms: N_15  and  C_16 
REMARK    6  A    between atoms: C_16  and  C_18 
REMARK    7  A    between atoms: C_20  and  O_21 
REMARK    8  A    between atoms: C_23  and  O_24 
ROOT
ATOM      1  N   UNL d   1      23.220 -16.730  -1.379  0.00  0.00    -0.160 NA
ATOM      2  C   UNL d   1      24.321 -16.102  -1.725  0.00  0.00     0.079 A 
ATOM      3  C   UNL d   1      24.207 -14.825  -2.517  0.00  0.00     0.068 A 
ATOM      4  C   UNL d   1      25.245 -14.073  -2.949  0.00  0.00     0.101 A 
ATOM      5  C   UNL d   1      26.654 -14.505  -2.631  0.00  0.00     0.207 A 
ATOM      6  O   UNL d   1      27.626 -13.846  -3.014  0.00  0.00    -0.285 OA
ATOM      7  C   UNL d   1      26.838 -15.734  -1.844  0.00  0.00     0.007 A 
ATOM      8  C   UNL d   1      25.767 -16.441  -1.452  0.00  0.00    -0.015 A 
ATOM      9  C   UNL d   1      26.007 -17.643  -0.642  0.00  0.00     0.068 C 
ATOM     10  C   UNL d   1      27.279 -17.851   0.036  0.00  0.00    -0.026 C 
ATOM     11  C   UNL d   1      28.342 -17.153  -0.340  0.00  0.00    -0.026 C 
ATOM     12  C   UNL d   1      28.251 -16.159  -1.476  0.00  0.00     0.070 C 
ENDROOT
BRANCH   4  13
ATOM     13  N   UNL d   1      25.150 -12.901  -3.688  0.00  0.00    -0.294 N 
ATOM     14  H   UNL d   1      24.686 -12.969  -4.609  0.00  0.00     0.187 HD
BRANCH  13  15
ATOM     15  N   UNL d   1      25.644 -11.661  -3.308  0.00  0.00    -0.265 N 
ATOM     16  C   UNL d   1      25.887 -10.685  -4.250  0.00  0.00     0.270 C 
ATOM     17  O   UNL d   1      25.709 -10.815  -5.462  0.00  0.00    -0.266 OA
ATOM     18  H   UNL d   1      25.712 -11.466  -2.318  0.00  0.00     0.190 HD
BRANCH  16  19
ATOM     19  C   UNL d   1      26.407  -9.400  -3.703  0.00  0.00     0.038 A 
ATOM     20  C   UNL d   1      27.787  -9.164  -3.687  0.00  0.00     0.053 A 
ATOM     21  C   UNL d   1      28.275  -8.038  -3.025  0.00  0.00     0.069 A 
ATOM     22  C   UNL d   1      27.415  -7.103  -2.457  0.00  0.00     0.073 A 
ATOM     23  C   UNL d   1      26.045  -7.337  -2.501  0.00  0.00     0.069 A 
ATOM     24  C   UNL d   1      25.533  -8.477  -3.114  0.00  0.00     0.053 A 
BRANCH  21  25
ATOM     25  O   UNL d   1      29.616  -7.828  -2.866  0.00  0.00    -0.361 OA
ATOM     26  H   UNL d   1      29.953  -8.435  -2.185  0.00  0.00     0.217 HD
ENDBRANCH  21  25
BRANCH  23  27
ATOM     27  O   UNL d   1      25.155  -6.486  -1.913  0.00  0.00    -0.361 OA
ATOM     28  H   UNL d   1      24.253  -6.819  -2.063  0.00  0.00     0.217 HD
ENDBRANCH  23  27
ENDBRANCH  16  19
ENDBRANCH  13  15
ENDBRANCH   4  13
BRANCH   1  29
ATOM     29  S   UNL d   1      23.206 -18.122  -0.494  0.00  0.00     0.283 S 
ATOM     30  O   UNL d   1      23.669 -17.840   0.852  0.00  0.00    -0.198 OA
ATOM     31  O   UNL d   1      23.758 -19.192  -1.307  0.00  0.00    -0.198 OA
BRANCH  29  32
ATOM     32  C   UNL d   1      21.634 -18.762  -0.170  0.00  0.00     0.081 A 
ATOM     33  C   UNL d   1      21.301 -18.950   1.186  0.00  0.00     0.028 A 
ATOM     34  C   UNL d   1      20.111 -19.576   1.498  0.00  0.00     0.038 A 
ATOM     35  C   UNL d   1      19.250 -19.925   0.459  0.00  0.00     0.068 A 
ATOM     36  C   UNL d   1      19.607 -19.699  -0.882  0.00  0.00     0.038 A 
ATOM     37  C   UNL d   1      20.815 -19.118  -1.209  0.00  0.00     0.028 A 
BRANCH  35  38
ATOM     38  O   UNL d   1      18.029 -20.393   0.853  0.00  0.00    -0.356 OA
ATOM     39  C   UNL d   1      17.986 -21.778   1.160  0.00  0.00     0.210 C 
ENDBRANCH  35  38
ENDBRANCH  29  32
ENDBRANCH   1  29
TORSDOF 8
ENDMDL
MODEL 8
REMARK VINA RESULT:    -8.320      3.709     10.475
REMARK INTER + INTRA:         -12.389
REMARK INTER:                 -10.706
REMARK INTRA:                  -1.683
REMARK CONF_INDEPENDENT:        2.386
REMARK UNBOUND:                -1.683
REMARK  8 active torsions:
REMARK  status: ('A' for Active; 'I' for Inactive)
REMARK    1  A    between atoms: O_2  and  C_3 
REMARK    2  A    between atoms: C_6  and  S_7 
REMARK    3  A    between atoms: S_7  and  N_10 
REMARK    4  A    between atoms: C_13  and  N_14 
REMARK    5  A    between atoms: N_14  and  N_15 
REMARK       I    between atoms: N_15  and  C_16 
REMARK    6  A    between atoms: C_16  and  C_18 
REMARK    7  A    between atoms: C_20  and  O_21 
REMARK    8  A    between atoms: C_23  and  O_24 
ROOT
ATOM      1  N   UNL d   1      28.763 -14.036   5.830  0.00  0.00    -0.160 NA
ATOM      2  C   UNL d   1      28.409 -13.579   4.650  0.00  0.00     0.079 A 
ATOM      3  C   UNL d   1      28.157 -14.564   3.538  0.00  0.00     0.068 A 
ATOM      4  C   UNL d   1      27.794 -14.246   2.274  0.00  0.00     0.101 A 
ATOM      5  C   UNL d   1      27.607 -12.797   1.901  0.00  0.00     0.207 A 
ATOM      6  O   UNL d   1      27.281 -12.469   0.755  0.00  0.00    -0.285 OA
ATOM      7  C   UNL d   1      27.818 -11.782   2.946  0.00  0.00     0.007 A 
ATOM      8  C   UNL d   1      28.187 -12.161   4.178  0.00  0.00    -0.015 A 
ATOM      9  C   UNL d   1      28.354 -11.109   5.191  0.00  0.00     0.068 C 
ATOM     10  C   UNL d   1      27.779  -9.785   5.000  0.00  0.00    -0.026 C 
ATOM     11  C   UNL d   1      27.407  -9.402   3.785  0.00  0.00    -0.026 C 
ATOM     12  C   UNL d   1      27.590 -10.320   2.597  0.00  0.00     0.070 C 
ENDROOT
BRANCH   4  13
ATOM     13  N   UNL d   1      27.570 -15.145   1.241  0.00  0.00    -0.294 N 
ATOM     14  H   UNL d   1      27.680 -16.148   1.465  0.00  0.00     0.187 HD
BRANCH  13  15
ATOM     15  N   UNL d   1      27.238 -14.813  -0.065  0.00  0.00    -0.265 N 
ATOM     16  C   UNL d   1      27.127 -15.790  -1.031  0.00  0.00     0.270 C 
ATOM     17  O   UNL d   1      27.312 -16.993  -0.840  0.00  0.00    -0.266 OA
ATOM     18  H   UNL d   1      26.977 -13.854  -0.254  0.00  0.00     0.190 HD
BRANCH  16  19
ATOM     19  C   UNL d   1      26.756 -15.294  -2.386  0.00  0.00     0.038 A 
ATOM     20  C   UNL d   1      25.536 -14.634  -2.570  0.00  0.00     0.053 A 
ATOM     21  C   UNL d   1      25.121 -14.321  -3.864  0.00  0.00     0.069 A 
ATOM     22  C   UNL d   1      25.935 -14.575  -4.965  0.00  0.00     0.073 A 
ATOM     23  C   UNL d   1      27.156 -15.209  -4.766  0.00  0.00     0.069 A 
ATOM     24  C   UNL d   1      27.573 -15.574  -3.489  0.00  0.00     0.053 A 
BRANCH  21  25
ATOM     25  O   UNL d   1      23.885 -13.797  -4.111  0.00  0.00    -0.361 OA
ATOM     26  H   UNL d   1      23.862 -13.453  -5.021  0.00  0.00     0.217 HD
ENDBRANCH  21  25
BRANCH  23  27
ATOM     27  O   UNL d   1      27.971 -15.534  -5.811  0.00  0.00    -0.361 OA
ATOM     28  H   UNL d   1      28.889 -15.586  -5.491  0.00  0.00     0.217 HD
ENDBRANCH  23  27
ENDBRANCH  16  19
ENDBRANCH  13  15
ENDBRANCH   4  13
BRANCH   1  29
ATOM     29  S   UNL d   1      29.046 -13.068   7.135  0.00  0.00     0.283 S 
ATOM     30  O   UNL d   1      27.801 -12.449   7.552  0.00  0.00    -0.198 OA
ATOM     31  O   UNL d   1      30.259 -12.308   6.892  0.00  0.00    -0.198 OA
BRANCH  29  32
ATOM     32  C   UNL d   1      29.492 -13.905   8.579  0.00  0.00     0.081 A 
ATOM     33  C   UNL d   1      30.795 -14.443   8.615  0.00  0.00     0.028 A 
ATOM     34  C   UNL d   1      31.160 -15.230   9.687  0.00  0.00     0.038 A 
ATOM     35  C   UNL d   1      30.252 -15.396  10.732  0.00  0.00     0.068 A 
ATOM     36  C   UNL d   1      28.970 -14.823  10.672  0.00  0.00     0.038 A 
ATOM     37  C   UNL d   1      28.575 -14.074   9.582  0.00  0.00     0.028 A 
BRANCH  35  38
ATOM     38  O   UNL d   1      30.742 -16.052  11.824  0.00  0.00    -0.356 OA
ATOM     39  C   UNL d   1      32.154 -16.025  11.960  0.00  0.00     0.210 C 
ENDBRANCH  35  38
ENDBRANCH  29  32
ENDBRANCH   1  29
TORSDOF 8
ENDMDL
MODEL 9
REMARK VINA RESULT:    -7.966      6.879     10.871
REMARK INTER + INTRA:         -11.913
REMARK INTER:                 -10.352
REMARK INTRA:                  -1.561
REMARK CONF_INDEPENDENT:        2.386
REMARK UNBOUND:                -1.561
REMARK  8 active torsions:
REMARK  status: ('A' for Active; 'I' for Inactive)
REMARK    1  A    between atoms: O_2  and  C_3 
REMARK    2  A    between atoms: C_6  and  S_7 
REMARK    3  A    between atoms: S_7  and  N_10 
REMARK    4  A    between atoms: C_13  and  N_14 
REMARK    5  A    between atoms: N_14  and  N_15 
REMARK       I    between atoms: N_15  and  C_16 
REMARK    6  A    between atoms: C_16  and  C_18 
REMARK    7  A    between atoms: C_20  and  O_21 
REMARK    8  A    between atoms: C_23  and  O_24 
ROOT
ATOM      1  N   UNL d   1      26.792 -15.446  -3.894  0.00  0.00    -0.160 NA
ATOM      2  C   UNL d   1      27.479 -14.814  -4.819  0.00  0.00     0.079 A 
ATOM      3  C   UNL d   1      28.530 -15.575  -5.586  0.00  0.00     0.068 A 
ATOM      4  C   UNL d   1      29.317 -15.062  -6.559  0.00  0.00     0.101 A 
ATOM      5  C   UNL d   1      29.163 -13.613  -6.948  0.00  0.00     0.207 A 
ATOM      6  O   UNL d   1      29.869 -13.110  -7.828  0.00  0.00    -0.285 OA
ATOM      7  C   UNL d   1      28.141 -12.816  -6.251  0.00  0.00     0.007 A 
ATOM      8  C   UNL d   1      27.397 -13.381  -5.288  0.00  0.00    -0.015 A 
ATOM      9  C   UNL d   1      26.370 -12.548  -4.648  0.00  0.00     0.068 C 
ATOM     10  C   UNL d   1      25.905 -11.317  -5.270  0.00  0.00    -0.026 C 
ATOM     11  C   UNL d   1      26.631 -10.753  -6.227  0.00  0.00    -0.026 C 
ATOM     12  C   UNL d   1      27.943 -11.366  -6.664  0.00  0.00     0.070 C 
ENDROOT
BRANCH   4  13
ATOM     13  N   UNL d   1      30.295 -15.751  -7.263  0.00  0.00    -0.294 N 
ATOM     14  H   UNL d   1      30.934 -15.186  -7.846  0.00  0.00     0.187 HD
BRANCH  13  15
ATOM     15  N   UNL d   1      30.469 -17.128  -7.270  0.00  0.00    -0.265 N 
ATOM     16  C   UNL d   1      31.481 -17.703  -8.010  0.00  0.00     0.270 C 
ATOM     17  O   UNL d   1      32.282 -17.081  -8.710  0.00  0.00    -0.266 OA
ATOM     18  H   UNL d   1      29.905 -17.676  -6.635  0.00  0.00     0.190 HD
BRANCH  16  19
ATOM     19  C   UNL d   1      31.559 -19.188  -7.920  0.00  0.00     0.038 A 
ATOM     20  C   UNL d   1      31.177 -19.829  -6.735  0.00  0.00     0.053 A 
ATOM     21  C   UNL d   1      31.408 -21.197  -6.599  0.00  0.00     0.069 A 
ATOM     22  C   UNL d   1      31.929 -21.951  -7.647  0.00  0.00     0.073 A 
ATOM     23  C   UNL d   1      32.281 -21.306  -8.827  0.00  0.00     0.069 A 
ATOM     24  C   UNL d   1      32.105 -19.933  -8.973  0.00  0.00     0.053 A 
BRANCH  21  25
ATOM     25  O   UNL d   1      31.177 -21.847  -5.419  0.00  0.00    -0.361 OA
ATOM     26  H   UNL d   1      31.154 -22.805  -5.585  0.00  0.00     0.217 HD
ENDBRANCH  21  25
BRANCH  23  27
ATOM     27  O   UNL d   1      32.848 -21.981  -9.869  0.00  0.00    -0.361 OA
ATOM     28  H   UNL d   1      33.622 -21.483 -10.184  0.00  0.00     0.217 HD
ENDBRANCH  23  27
ENDBRANCH  16  19
ENDBRANCH  13  15
ENDBRANCH   4  13
BRANCH   1  29
ATOM     29  S   UNL d   1      25.600 -14.737  -3.000  0.00  0.00     0.283 S 
ATOM     30  O   UNL d   1      24.519 -14.330  -3.878  0.00  0.00    -0.198 OA
ATOM     31  O   UNL d   1      26.217 -13.836  -2.042  0.00  0.00    -0.198 OA
BRANCH  29  32
ATOM     32  C   UNL d   1      24.765 -15.802  -1.927  0.00  0.00     0.081 A 
ATOM     33  C   UNL d   1      25.496 -16.905  -1.442  0.00  0.00     0.028 A 
ATOM     34  C   UNL d   1      24.843 -17.856  -0.686  0.00  0.00     0.038 A 
ATOM     35  C   UNL d   1      23.502 -17.646  -0.365  0.00  0.00     0.068 A 
ATOM     36  C   UNL d   1      22.812 -16.521  -0.847  0.00  0.00     0.038 A 
ATOM     37  C   UNL d   1      23.441 -15.587  -1.645  0.00  0.00     0.028 A 
BRANCH  35  38
ATOM     38  O   UNL d   1      22.971 -18.545   0.514  0.00  0.00    -0.356 OA
ATOM     39  C   UNL d   1      21.641 -18.951   0.231  0.00  0.00     0.210 C 
ENDBRANCH  35  38
ENDBRANCH  29  32
ENDBRANCH   1  29
TORSDOF 8
ENDMDL
