MODEL 1
REMARK VINA RESULT:    -8.441      0.000      0.000
REMARK INTER + INTRA:         -11.014
REMARK INTER:                  -9.933
REMARK INTRA:                  -1.081
REMARK CONF_INDEPENDENT:        1.492
REMARK UNBOUND:                -1.081
REMARK  5 active torsions:
REMARK  status: ('A' for Active; 'I' for Inactive)
REMARK    1  A    between atoms: C_2  and  C_3 
REMARK       I    between atoms: C_2  and  N_15 
REMARK    2  A    between atoms: C_4  and  C_5 
REMARK    3  A    between atoms: N_15  and  N_16 
REMARK       I    between atoms: N_16  and  C_17 
REMARK    4  A    between atoms: C_17  and  C_19 
REMARK    5  A    between atoms: C_19  and  C_20 
ROOT
ATOM      1  O   UNL d   1      24.780 -13.505  -4.743  0.00  0.00    -0.267 OA
ATOM      2  C   UNL d   1      25.821 -14.076  -4.415  0.00  0.00     0.259 C 
ATOM      3  N   UNL d   1      27.032 -13.695  -4.929  0.00  0.00    -0.264 N 
ATOM      4  H   UNL d   1      27.034 -12.927  -5.606  0.00  0.00     0.190 HD
ENDROOT
BRANCH   2   5
ATOM      5  C   UNL d   1      25.821 -15.203  -3.456  0.00  0.00     0.076 C 
ATOM      6  C   UNL d   1      26.128 -15.034  -2.159  0.00  0.00     0.018 C 
BRANCH   6   7
ATOM      7  C   UNL d   1      26.106 -16.169  -1.212  0.00  0.00    -0.025 A 
ATOM      8  C   UNL d   1      27.327 -16.612  -0.673  0.00  0.00     0.012 A 
ATOM      9  C   UNL d   1      27.381 -17.710   0.178  0.00  0.00     0.002 A 
ATOM     10  C   UNL d   1      26.208 -18.371   0.528  0.00  0.00     0.012 A 
ATOM     11  C   UNL d   1      24.965 -17.923   0.058  0.00  0.00    -0.025 A 
ATOM     12  C   UNL d   1      23.789 -18.575   0.466  0.00  0.00     0.012 A 
ATOM     13  C   UNL d   1      24.897 -16.812  -0.823  0.00  0.00    -0.016 A 
ATOM     14  C   UNL d   1      22.541 -18.147   0.018  0.00  0.00     0.001 A 
ATOM     15  C   UNL d   1      22.455 -17.066  -0.850  0.00  0.00     0.001 A 
ATOM     16  C   UNL d   1      23.616 -16.413  -1.270  0.00  0.00     0.013 A 
ENDBRANCH   6   7
ENDBRANCH   2   5
BRANCH   3  17
ATOM     17  N   UNL d   1      28.305 -14.225  -4.618  0.00  0.00    -0.267 N 
ATOM     18  C   UNL d   1      28.814 -15.133  -5.526  0.00  0.00     0.240 C 
ATOM     19  O   UNL d   1      28.141 -15.413  -6.520  0.00  0.00    -0.272 OA
ATOM     20  H   UNL d   1      28.716 -14.093  -3.706  0.00  0.00     0.190 HD
BRANCH  18  21
ATOM     21  C   UNL d   1      30.211 -15.703  -5.196  0.00  0.00     0.143 C 
BRANCH  21  22
ATOM     22  C   UNL d   1      30.432 -17.159  -5.589  0.00  0.00    -0.049 A 
ATOM     23  C   UNL d   1      30.390 -18.205  -4.651  0.00  0.00     0.007 A 
ATOM     24  C   UNL d   1      30.686 -19.521  -5.044  0.00  0.00     0.001 A 
ATOM     25  C   UNL d   1      30.935 -19.824  -6.383  0.00  0.00     0.000 A 
ATOM     26  C   UNL d   1      30.973 -18.804  -7.317  0.00  0.00     0.001 A 
ATOM     27  C   UNL d   1      30.779 -17.491  -6.907  0.00  0.00     0.007 A 
ENDBRANCH  21  22
ENDBRANCH  18  21
ENDBRANCH   3  17
TORSDOF 5
ENDMDL
MODEL 2
REMARK VINA RESULT:    -7.594      1.872      6.429
REMARK INTER + INTRA:         -10.605
REMARK INTER:                  -9.086
REMARK INTRA:                  -1.519
REMARK CONF_INDEPENDENT:        1.492
REMARK UNBOUND:                -1.519
REMARK  5 active torsions:
REMARK  status: ('A' for Active; 'I' for Inactive)
REMARK    1  A    between atoms: C_2  and  C_3 
REMARK       I    between atoms: C_2  and  N_15 
REMARK    2  A    between atoms: C_4  and  C_5 
REMARK    3  A    between atoms: N_15  and  N_16 
REMARK       I    between atoms: N_16  and  C_17 
REMARK    4  A    between atoms: C_17  and  C_19 
REMARK    5  A    between atoms: C_19  and  C_20 
ROOT
ATOM      1  O   UNL d   1      25.606 -11.523  -6.168  0.00  0.00    -0.267 OA
ATOM      2  C   UNL d   1      26.075 -12.126  -5.200  0.00  0.00     0.259 C 
ATOM      3  N   UNL d   1      25.487 -12.052  -3.966  0.00  0.00    -0.264 N 
ATOM      4  H   UNL d   1      24.652 -11.465  -3.878  0.00  0.00     0.190 HD
ENDROOT
BRANCH   2   5
ATOM      5  C   UNL d   1      27.295 -12.955  -5.317  0.00  0.00     0.076 C 
ATOM      6  C   UNL d   1      27.244 -14.296  -5.339  0.00  0.00     0.018 C 
BRANCH   6   7
ATOM      7  C   UNL d   1      28.473 -15.108  -5.474  0.00  0.00    -0.025 A 
ATOM      8  C   UNL d   1      29.150 -15.091  -6.706  0.00  0.00     0.012 A 
ATOM      9  C   UNL d   1      30.279 -15.876  -6.916  0.00  0.00     0.002 A 
ATOM     10  C   UNL d   1      30.768 -16.672  -5.886  0.00  0.00     0.012 A 
ATOM     11  C   UNL d   1      30.155 -16.670  -4.625  0.00  0.00    -0.025 A 
ATOM     12  C   UNL d   1      30.697 -17.444  -3.585  0.00  0.00     0.012 A 
ATOM     13  C   UNL d   1      28.993 -15.885  -4.401  0.00  0.00    -0.016 A 
ATOM     14  C   UNL d   1      30.109 -17.455  -2.321  0.00  0.00     0.001 A 
ATOM     15  C   UNL d   1      28.969 -16.699  -2.085  0.00  0.00     0.001 A 
ATOM     16  C   UNL d   1      28.414 -15.931  -3.111  0.00  0.00     0.013 A 
ENDBRANCH   6   7
ENDBRANCH   2   5
BRANCH   3  17
ATOM     17  N   UNL d   1      25.883 -12.715  -2.783  0.00  0.00    -0.267 N 
ATOM     18  C   UNL d   1      25.461 -14.024  -2.659  0.00  0.00     0.240 C 
ATOM     19  O   UNL d   1      24.783 -14.513  -3.565  0.00  0.00    -0.272 OA
ATOM     20  H   UNL d   1      26.279 -12.205  -2.006  0.00  0.00     0.190 HD
BRANCH  18  21
ATOM     21  C   UNL d   1      25.905 -14.756  -1.373  0.00  0.00     0.143 C 
BRANCH  21  22
ATOM     22  C   UNL d   1      25.138 -16.033  -1.051  0.00  0.00    -0.049 A 
ATOM     23  C   UNL d   1      23.754 -16.153  -1.267  0.00  0.00     0.007 A 
ATOM     24  C   UNL d   1      23.074 -17.318  -0.873  0.00  0.00     0.001 A 
ATOM     25  C   UNL d   1      23.772 -18.405  -0.348  0.00  0.00     0.000 A 
ATOM     26  C   UNL d   1      25.136 -18.302  -0.137  0.00  0.00     0.001 A 
ATOM     27  C   UNL d   1      25.788 -17.112  -0.434  0.00  0.00     0.007 A 
ENDBRANCH  21  22
ENDBRANCH  18  21
ENDBRANCH   3  17
TORSDOF 5
ENDMDL
MODEL 3
REMARK VINA RESULT:    -7.397      0.916      1.513
REMARK INTER + INTRA:         -10.782
REMARK INTER:                  -8.888
REMARK INTRA:                  -1.893
REMARK CONF_INDEPENDENT:        1.492
REMARK UNBOUND:                -1.893
REMARK  5 active torsions:
REMARK  status: ('A' for Active; 'I' for Inactive)
REMARK    1  A    between atoms: C_2  and  C_3 
REMARK       I    between atoms: C_2  and  N_15 
REMARK    2  A    between atoms: C_4  and  C_5 
REMARK    3  A    between atoms: N_15  and  N_16 
REMARK       I    between atoms: N_16  and  C_17 
REMARK    4  A    between atoms: C_17  and  C_19 
REMARK    5  A    between atoms: C_19  and  C_20 
ROOT
ATOM      1  O   UNL d   1      24.951 -13.421  -4.644  0.00  0.00    -0.267 OA
ATOM      2  C   UNL d   1      25.840 -14.275  -4.661  0.00  0.00     0.259 C 
ATOM      3  N   UNL d   1      26.836 -14.243  -5.600  0.00  0.00    -0.264 N 
ATOM      4  H   UNL d   1      26.803 -13.490  -6.294  0.00  0.00     0.190 HD
ENDROOT
BRANCH   2   5
ATOM      5  C   UNL d   1      25.878 -15.378  -3.676  0.00  0.00     0.076 C 
ATOM      6  C   UNL d   1      26.131 -15.163  -2.375  0.00  0.00     0.018 C 
BRANCH   6   7
ATOM      7  C   UNL d   1      26.147 -16.276  -1.403  0.00  0.00    -0.025 A 
ATOM      8  C   UNL d   1      27.392 -16.744  -0.946  0.00  0.00     0.012 A 
ATOM      9  C   UNL d   1      27.478 -17.826  -0.075  0.00  0.00     0.002 A 
ATOM     10  C   UNL d   1      26.317 -18.443   0.376  0.00  0.00     0.012 A 
ATOM     11  C   UNL d   1      25.055 -17.968  -0.010  0.00  0.00    -0.025 A 
ATOM     12  C   UNL d   1      23.895 -18.575   0.499  0.00  0.00     0.012 A 
ATOM     13  C   UNL d   1      24.953 -16.874  -0.910  0.00  0.00    -0.016 A 
ATOM     14  C   UNL d   1      22.630 -18.119   0.135  0.00  0.00     0.001 A 
ATOM     15  C   UNL d   1      22.509 -17.055  -0.748  0.00  0.00     0.001 A 
ATOM     16  C   UNL d   1      23.654 -16.446  -1.269  0.00  0.00     0.013 A 
ENDBRANCH   6   7
ENDBRANCH   2   5
BRANCH   3  17
ATOM     17  N   UNL d   1      27.936 -15.123  -5.719  0.00  0.00    -0.267 N 
ATOM     18  C   UNL d   1      28.908 -14.749  -6.627  0.00  0.00     0.240 C 
ATOM     19  O   UNL d   1      28.753 -13.700  -7.256  0.00  0.00    -0.272 OA
ATOM     20  H   UNL d   1      27.912 -16.046  -5.312  0.00  0.00     0.190 HD
BRANCH  18  21
ATOM     21  C   UNL d   1      30.118 -15.701  -6.747  0.00  0.00     0.143 C 
BRANCH  21  22
ATOM     22  C   UNL d   1      30.370 -16.591  -5.537  0.00  0.00    -0.049 A 
ATOM     23  C   UNL d   1      30.537 -17.982  -5.649  0.00  0.00     0.007 A 
ATOM     24  C   UNL d   1      30.680 -18.774  -4.497  0.00  0.00     0.001 A 
ATOM     25  C   UNL d   1      30.751 -18.185  -3.235  0.00  0.00     0.000 A 
ATOM     26  C   UNL d   1      30.595 -16.816  -3.111  0.00  0.00     0.001 A 
ATOM     27  C   UNL d   1      30.353 -16.049  -4.243  0.00  0.00     0.007 A 
ENDBRANCH  21  22
ENDBRANCH  18  21
ENDBRANCH   3  17
TORSDOF 5
ENDMDL
MODEL 4
REMARK VINA RESULT:    -7.392      0.820      2.375
REMARK INTER + INTRA:         -10.028
REMARK INTER:                  -8.883
REMARK INTRA:                  -1.145
REMARK CONF_INDEPENDENT:        1.492
REMARK UNBOUND:                -1.145
REMARK  5 active torsions:
REMARK  status: ('A' for Active; 'I' for Inactive)
REMARK    1  A    between atoms: C_2  and  C_3 
REMARK       I    between atoms: C_2  and  N_15 
REMARK    2  A    between atoms: C_4  and  C_5 
REMARK    3  A    between atoms: N_15  and  N_16 
REMARK       I    between atoms: N_16  and  C_17 
REMARK    4  A    between atoms: C_17  and  C_19 
REMARK    5  A    between atoms: C_19  and  C_20 
ROOT
ATOM      1  O   UNL d   1      25.136 -13.476  -4.861  0.00  0.00    -0.267 OA
ATOM      2  C   UNL d   1      25.975 -14.300  -4.494  0.00  0.00     0.259 C 
ATOM      3  N   UNL d   1      27.241 -14.304  -5.016  0.00  0.00    -0.264 N 
ATOM      4  H   UNL d   1      27.455 -13.605  -5.733  0.00  0.00     0.190 HD
ENDROOT
BRANCH   2   5
ATOM      5  C   UNL d   1      25.663 -15.328  -3.477  0.00  0.00     0.076 C 
ATOM      6  C   UNL d   1      24.749 -15.122  -2.514  0.00  0.00     0.018 C 
BRANCH   6   7
ATOM      7  C   UNL d   1      24.438 -16.168  -1.517  0.00  0.00    -0.025 A 
ATOM      8  C   UNL d   1      23.087 -16.466  -1.262  0.00  0.00     0.012 A 
ATOM      9  C   UNL d   1      22.726 -17.399  -0.295  0.00  0.00     0.002 A 
ATOM     10  C   UNL d   1      23.713 -18.072   0.417  0.00  0.00     0.012 A 
ATOM     11  C   UNL d   1      25.071 -17.846   0.150  0.00  0.00    -0.025 A 
ATOM     12  C   UNL d   1      26.049 -18.575   0.846  0.00  0.00     0.012 A 
ATOM     13  C   UNL d   1      25.453 -16.886  -0.824  0.00  0.00    -0.016 A 
ATOM     14  C   UNL d   1      27.405 -18.373   0.596  0.00  0.00     0.001 A 
ATOM     15  C   UNL d   1      27.799 -17.434  -0.348  0.00  0.00     0.001 A 
ATOM     16  C   UNL d   1      26.838 -16.696  -1.043  0.00  0.00     0.013 A 
ENDBRANCH   6   7
ENDBRANCH   2   5
BRANCH   3  17
ATOM     17  N   UNL d   1      28.314 -15.155  -4.666  0.00  0.00    -0.267 N 
ATOM     18  C   UNL d   1      29.125 -15.558  -5.710  0.00  0.00     0.240 C 
ATOM     19  O   UNL d   1      28.864 -15.158  -6.846  0.00  0.00    -0.272 OA
ATOM     20  H   UNL d   1      28.362 -15.586  -3.755  0.00  0.00     0.190 HD
BRANCH  18  21
ATOM     21  C   UNL d   1      30.307 -16.475  -5.328  0.00  0.00     0.143 C 
BRANCH  21  22
ATOM     22  C   UNL d   1      30.713 -17.492  -6.389  0.00  0.00    -0.049 A 
ATOM     23  C   UNL d   1      30.406 -18.858  -6.276  0.00  0.00     0.007 A 
ATOM     24  C   UNL d   1      30.877 -19.771  -7.235  0.00  0.00     0.001 A 
ATOM     25  C   UNL d   1      31.576 -19.326  -8.357  0.00  0.00     0.000 A 
ATOM     26  C   UNL d   1      31.879 -17.982  -8.483  0.00  0.00     0.001 A 
ATOM     27  C   UNL d   1      31.498 -17.097  -7.482  0.00  0.00     0.007 A 
ENDBRANCH  21  22
ENDBRANCH  18  21
ENDBRANCH   3  17
TORSDOF 5
ENDMDL
MODEL 5
REMARK VINA RESULT:    -7.041      5.587      8.041
REMARK INTER + INTRA:          -9.968
REMARK INTER:                  -8.533
REMARK INTRA:                  -1.435
REMARK CONF_INDEPENDENT:        1.492
REMARK UNBOUND:                -1.435
REMARK  5 active torsions:
REMARK  status: ('A' for Active; 'I' for Inactive)
REMARK    1  A    between atoms: C_2  and  C_3 
REMARK       I    between atoms: C_2  and  N_15 
REMARK    2  A    between atoms: C_4  and  C_5 
REMARK    3  A    between atoms: N_15  and  N_16 
REMARK       I    between atoms: N_16  and  C_17 
REMARK    4  A    between atoms: C_17  and  C_19 
REMARK    5  A    between atoms: C_19  and  C_20 
ROOT
ATOM      1  O   UNL d   1      27.363 -10.830   0.210  0.00  0.00    -0.267 OA
ATOM      2  C   UNL d   1      27.302 -11.999   0.598  0.00  0.00     0.259 C 
ATOM      3  N   UNL d   1      26.661 -12.958  -0.140  0.00  0.00    -0.264 N 
ATOM      4  H   UNL d   1      26.224 -12.662  -1.018  0.00  0.00     0.190 HD
ENDROOT
BRANCH   2   5
ATOM      5  C   UNL d   1      27.910 -12.427   1.877  0.00  0.00     0.076 C 
ATOM      6  C   UNL d   1      27.170 -12.901   2.893  0.00  0.00     0.018 C 
BRANCH   6   7
ATOM      7  C   UNL d   1      27.798 -13.340   4.158  0.00  0.00    -0.025 A 
ATOM      8  C   UNL d   1      27.999 -14.718   4.358  0.00  0.00     0.012 A 
ATOM      9  C   UNL d   1      28.532 -15.200   5.549  0.00  0.00     0.002 A 
ATOM     10  C   UNL d   1      28.898 -14.310   6.552  0.00  0.00     0.012 A 
ATOM     11  C   UNL d   1      28.768 -12.926   6.366  0.00  0.00    -0.025 A 
ATOM     12  C   UNL d   1      29.193 -12.043   7.374  0.00  0.00     0.012 A 
ATOM     13  C   UNL d   1      28.212 -12.420   5.161  0.00  0.00    -0.016 A 
ATOM     14  C   UNL d   1      29.079 -10.664   7.212  0.00  0.00     0.001 A 
ATOM     15  C   UNL d   1      28.532 -10.151   6.043  0.00  0.00     0.001 A 
ATOM     16  C   UNL d   1      28.098 -11.016   5.035  0.00  0.00     0.013 A 
ENDBRANCH   6   7
ENDBRANCH   2   5
BRANCH   3  17
ATOM     17  N   UNL d   1      26.546 -14.336   0.154  0.00  0.00    -0.267 N 
ATOM     18  C   UNL d   1      26.230 -15.153  -0.915  0.00  0.00     0.240 C 
ATOM     19  O   UNL d   1      26.073 -14.637  -2.024  0.00  0.00    -0.272 OA
ATOM     20  H   UNL d   1      26.507 -14.665   1.108  0.00  0.00     0.190 HD
BRANCH  18  21
ATOM     21  C   UNL d   1      26.118 -16.660  -0.599  0.00  0.00     0.143 C 
BRANCH  21  22
ATOM     22  C   UNL d   1      24.699 -17.216  -0.564  0.00  0.00    -0.049 A 
ATOM     23  C   UNL d   1      23.566 -16.390  -0.667  0.00  0.00     0.007 A 
ATOM     24  C   UNL d   1      22.278 -16.936  -0.541  0.00  0.00     0.001 A 
ATOM     25  C   UNL d   1      22.100 -18.313  -0.404  0.00  0.00     0.000 A 
ATOM     26  C   UNL d   1      23.207 -19.137  -0.308  0.00  0.00     0.001 A 
ATOM     27  C   UNL d   1      24.479 -18.581  -0.332  0.00  0.00     0.007 A 
ENDBRANCH  21  22
ENDBRANCH  18  21
ENDBRANCH   3  17
TORSDOF 5
ENDMDL
MODEL 6
REMARK VINA RESULT:    -6.895      4.723      7.684
REMARK INTER + INTRA:          -9.981
REMARK INTER:                  -8.387
REMARK INTRA:                  -1.595
REMARK CONF_INDEPENDENT:        1.492
REMARK UNBOUND:                -1.595
REMARK  5 active torsions:
REMARK  status: ('A' for Active; 'I' for Inactive)
REMARK    1  A    between atoms: C_2  and  C_3 
REMARK       I    between atoms: C_2  and  N_15 
REMARK    2  A    between atoms: C_4  and  C_5 
REMARK    3  A    between atoms: N_15  and  N_16 
REMARK       I    between atoms: N_16  and  C_17 
REMARK    4  A    between atoms: C_17  and  C_19 
REMARK    5  A    between atoms: C_19  and  C_20 
ROOT
ATOM      1  O   UNL d   1      31.459 -17.320  -0.989  0.00  0.00    -0.267 OA
ATOM      2  C   UNL d   1      30.874 -16.666  -0.123  0.00  0.00     0.259 C 
ATOM      3  N   UNL d   1      31.566 -16.016   0.864  0.00  0.00    -0.264 N 
ATOM      4  H   UNL d   1      32.586 -16.107   0.860  0.00  0.00     0.190 HD
ENDROOT
BRANCH   2   5
ATOM      5  C   UNL d   1      29.399 -16.552  -0.099  0.00  0.00     0.076 C 
ATOM      6  C   UNL d   1      28.601 -17.538  -0.539  0.00  0.00     0.018 C 
BRANCH   6   7
ATOM      7  C   UNL d   1      27.129 -17.413  -0.491  0.00  0.00    -0.025 A 
ATOM      8  C   UNL d   1      26.420 -18.229   0.410  0.00  0.00     0.012 A 
ATOM      9  C   UNL d   1      25.030 -18.200   0.464  0.00  0.00     0.002 A 
ATOM     10  C   UNL d   1      24.325 -17.333  -0.364  0.00  0.00     0.012 A 
ATOM     11  C   UNL d   1      24.998 -16.462  -1.232  0.00  0.00    -0.025 A 
ATOM     12  C   UNL d   1      24.267 -15.560  -2.022  0.00  0.00     0.012 A 
ATOM     13  C   UNL d   1      26.416 -16.491  -1.308  0.00  0.00    -0.016 A 
ATOM     14  C   UNL d   1      24.912 -14.680  -2.889  0.00  0.00     0.001 A 
ATOM     15  C   UNL d   1      26.298 -14.698  -2.982  0.00  0.00     0.001 A 
ATOM     16  C   UNL d   1      27.039 -15.595  -2.208  0.00  0.00     0.013 A 
ENDBRANCH   6   7
ENDBRANCH   2   5
BRANCH   3  17
ATOM     17  N   UNL d   1      31.039 -15.201   1.891  0.00  0.00    -0.267 N 
ATOM     18  C   UNL d   1      31.908 -14.268   2.422  0.00  0.00     0.240 C 
ATOM     19  O   UNL d   1      33.056 -14.211   1.975  0.00  0.00    -0.272 OA
ATOM     20  H   UNL d   1      30.157 -15.420   2.331  0.00  0.00     0.190 HD
BRANCH  18  21
ATOM     21  C   UNL d   1      31.330 -13.366   3.535  0.00  0.00     0.143 C 
BRANCH  21  22
ATOM     22  C   UNL d   1      29.943 -13.753   4.034  0.00  0.00    -0.049 A 
ATOM     23  C   UNL d   1      28.769 -13.354   3.372  0.00  0.00     0.007 A 
ATOM     24  C   UNL d   1      27.510 -13.661   3.918  0.00  0.00     0.001 A 
ATOM     25  C   UNL d   1      27.405 -14.441   5.069  0.00  0.00     0.000 A 
ATOM     26  C   UNL d   1      28.554 -14.845   5.726  0.00  0.00     0.001 A 
ATOM     27  C   UNL d   1      29.795 -14.455   5.239  0.00  0.00     0.007 A 
ENDBRANCH  21  22
ENDBRANCH  18  21
ENDBRANCH   3  17
TORSDOF 5
ENDMDL
MODEL 7
REMARK VINA RESULT:    -6.887      3.102      6.955
REMARK INTER + INTRA:          -9.895
REMARK INTER:                  -8.378
REMARK INTRA:                  -1.517
REMARK CONF_INDEPENDENT:        1.492
REMARK UNBOUND:                -1.517
REMARK  5 active torsions:
REMARK  status: ('A' for Active; 'I' for Inactive)
REMARK    1  A    between atoms: C_2  and  C_3 
REMARK       I    between atoms: C_2  and  N_15 
REMARK    2  A    between atoms: C_4  and  C_5 
REMARK    3  A    between atoms: N_15  and  N_16 
REMARK       I    between atoms: N_16  and  C_17 
REMARK    4  A    between atoms: C_17  and  C_19 
REMARK    5  A    between atoms: C_19  and  C_20 
ROOT
ATOM      1  O   UNL d   1      30.382 -13.436   0.859  0.00  0.00    -0.267 OA
ATOM      2  C   UNL d   1      29.818 -14.386   0.313  0.00  0.00     0.259 C 
ATOM      3  N   UNL d   1      29.450 -15.497   1.024  0.00  0.00    -0.264 N 
ATOM      4  H   UNL d   1      29.675 -15.511   2.023  0.00  0.00     0.190 HD
ENDROOT
BRANCH   2   5
ATOM      5  C   UNL d   1      29.513 -14.381  -1.135  0.00  0.00     0.076 C 
ATOM      6  C   UNL d   1      29.894 -15.382  -1.946  0.00  0.00     0.018 C 
BRANCH   6   7
ATOM      7  C   UNL d   1      29.564 -15.368  -3.387  0.00  0.00    -0.025 A 
ATOM      8  C   UNL d   1      30.615 -15.503  -4.312  0.00  0.00     0.012 A 
ATOM      9  C   UNL d   1      30.379 -15.441  -5.682  0.00  0.00     0.002 A 
ATOM     10  C   UNL d   1      29.082 -15.269  -6.151  0.00  0.00     0.012 A 
ATOM     11  C   UNL d   1      28.001 -15.189  -5.262  0.00  0.00    -0.025 A 
ATOM     12  C   UNL d   1      26.693 -15.067  -5.762  0.00  0.00     0.012 A 
ATOM     13  C   UNL d   1      28.229 -15.237  -3.861  0.00  0.00    -0.016 A 
ATOM     14  C   UNL d   1      25.602 -14.991  -4.899  0.00  0.00     0.001 A 
ATOM     15  C   UNL d   1      25.805 -15.029  -3.526  0.00  0.00     0.001 A 
ATOM     16  C   UNL d   1      27.100 -15.143  -3.014  0.00  0.00     0.013 A 
ENDBRANCH   6   7
ENDBRANCH   2   5
BRANCH   3  17
ATOM     17  N   UNL d   1      28.765 -16.637   0.546  0.00  0.00    -0.267 N 
ATOM     18  C   UNL d   1      27.408 -16.480   0.344  0.00  0.00     0.240 C 
ATOM     19  O   UNL d   1      26.898 -15.384   0.588  0.00  0.00    -0.272 OA
ATOM     20  H   UNL d   1      29.205 -17.546   0.541  0.00  0.00     0.190 HD
BRANCH  18  21
ATOM     21  C   UNL d   1      26.659 -17.721  -0.193  0.00  0.00     0.143 C 
BRANCH  21  22
ATOM     22  C   UNL d   1      25.144 -17.581  -0.280  0.00  0.00    -0.049 A 
ATOM     23  C   UNL d   1      24.270 -18.578   0.185  0.00  0.00     0.007 A 
ATOM     24  C   UNL d   1      22.883 -18.445   0.004  0.00  0.00     0.001 A 
ATOM     25  C   UNL d   1      22.348 -17.285  -0.555  0.00  0.00     0.000 A 
ATOM     26  C   UNL d   1      23.197 -16.293  -1.011  0.00  0.00     0.001 A 
ATOM     27  C   UNL d   1      24.572 -16.473  -0.922  0.00  0.00     0.007 A 
ENDBRANCH  21  22
ENDBRANCH  18  21
ENDBRANCH   3  17
TORSDOF 5
ENDMDL
MODEL 8
REMARK VINA RESULT:    -6.617      1.140      2.741
REMARK INTER + INTRA:         -10.004
REMARK INTER:                  -8.108
REMARK INTRA:                  -1.896
REMARK CONF_INDEPENDENT:        1.492
REMARK UNBOUND:                -1.896
REMARK  5 active torsions:
REMARK  status: ('A' for Active; 'I' for Inactive)
REMARK    1  A    between atoms: C_2  and  C_3 
REMARK       I    between atoms: C_2  and  N_15 
REMARK    2  A    between atoms: C_4  and  C_5 
REMARK    3  A    between atoms: N_15  and  N_16 
REMARK       I    between atoms: N_16  and  C_17 
REMARK    4  A    between atoms: C_17  and  C_19 
REMARK    5  A    between atoms: C_19  and  C_20 
ROOT
ATOM      1  O   UNL d   1      25.194 -12.911  -4.613  0.00  0.00    -0.267 OA
ATOM      2  C   UNL d   1      25.864 -13.944  -4.551  0.00  0.00     0.259 C 
ATOM      3  N   UNL d   1      26.953 -14.133  -5.360  0.00  0.00    -0.264 N 
ATOM      4  H   UNL d   1      27.178 -13.388  -6.027  0.00  0.00     0.190 HD
ENDROOT
BRANCH   2   5
ATOM      5  C   UNL d   1      25.529 -15.033  -3.608  0.00  0.00     0.076 C 
ATOM      6  C   UNL d   1      24.856 -14.805  -2.468  0.00  0.00     0.018 C 
BRANCH   6   7
ATOM      7  C   UNL d   1      24.515 -15.910  -1.546  0.00  0.00    -0.025 A 
ATOM      8  C   UNL d   1      23.157 -16.155  -1.274  0.00  0.00     0.012 A 
ATOM      9  C   UNL d   1      22.772 -17.142  -0.372  0.00  0.00     0.002 A 
ATOM     10  C   UNL d   1      23.739 -17.920   0.255  0.00  0.00     0.012 A 
ATOM     11  C   UNL d   1      25.100 -17.745  -0.035  0.00  0.00    -0.025 A 
ATOM     12  C   UNL d   1      26.055 -18.577   0.572  0.00  0.00     0.012 A 
ATOM     13  C   UNL d   1      25.508 -16.732  -0.943  0.00  0.00    -0.016 A 
ATOM     14  C   UNL d   1      27.413 -18.427   0.297  0.00  0.00     0.001 A 
ATOM     15  C   UNL d   1      27.832 -17.438  -0.583  0.00  0.00     0.001 A 
ATOM     16  C   UNL d   1      26.895 -16.598  -1.189  0.00  0.00     0.013 A 
ENDBRANCH   6   7
ENDBRANCH   2   5
BRANCH   3  17
ATOM     17  N   UNL d   1      27.834 -15.238  -5.374  0.00  0.00    -0.267 N 
ATOM     18  C   UNL d   1      28.934 -15.118  -6.200  0.00  0.00     0.240 C 
ATOM     19  O   UNL d   1      29.069 -14.081  -6.854  0.00  0.00    -0.272 OA
ATOM     20  H   UNL d   1      27.572 -16.120  -4.958  0.00  0.00     0.190 HD
BRANCH  18  21
ATOM     21  C   UNL d   1      29.906 -16.318  -6.206  0.00  0.00     0.143 C 
BRANCH  21  22
ATOM     22  C   UNL d   1      30.231 -16.900  -4.835  0.00  0.00    -0.049 A 
ATOM     23  C   UNL d   1      30.021 -16.183  -3.645  0.00  0.00     0.007 A 
ATOM     24  C   UNL d   1      30.418 -16.727  -2.412  0.00  0.00     0.001 A 
ATOM     25  C   UNL d   1      30.939 -18.018  -2.339  0.00  0.00     0.000 A 
ATOM     26  C   UNL d   1      31.145 -18.737  -3.503  0.00  0.00     0.001 A 
ATOM     27  C   UNL d   1      30.846 -18.157  -4.729  0.00  0.00     0.007 A 
ENDBRANCH  21  22
ENDBRANCH  18  21
ENDBRANCH   3  17
TORSDOF 5
ENDMDL
MODEL 9
REMARK VINA RESULT:    -6.557      3.714      5.291
REMARK INTER + INTRA:         -10.315
REMARK INTER:                  -8.049
REMARK INTRA:                  -2.266
REMARK CONF_INDEPENDENT:        1.492
REMARK UNBOUND:                -2.266
REMARK  5 active torsions:
REMARK  status: ('A' for Active; 'I' for Inactive)
REMARK    1  A    between atoms: C_2  and  C_3 
REMARK       I    between atoms: C_2  and  N_15 
REMARK    2  A    between atoms: C_4  and  C_5 
REMARK    3  A    between atoms: N_15  and  N_16 
REMARK       I    between atoms: N_16  and  C_17 
REMARK    4  A    between atoms: C_17  and  C_19 
REMARK    5  A    between atoms: C_19  and  C_20 
ROOT
ATOM      1  O   UNL d   1      24.976 -13.400  -5.018  0.00  0.00    -0.267 OA
ATOM      2  C   UNL d   1      25.604 -13.445  -3.959  0.00  0.00     0.259 C 
ATOM      3  N   UNL d   1      26.196 -12.326  -3.437  0.00  0.00    -0.264 N 
ATOM      4  H   UNL d   1      26.107 -11.456  -3.970  0.00  0.00     0.190 HD
ENDROOT
BRANCH   2   5
ATOM      5  C   UNL d   1      25.757 -14.705  -3.198  0.00  0.00     0.076 C 
ATOM      6  C   UNL d   1      25.533 -14.770  -1.876  0.00  0.00     0.018 C 
BRANCH   6   7
ATOM      7  C   UNL d   1      25.674 -16.042  -1.136  0.00  0.00    -0.025 A 
ATOM      8  C   UNL d   1      26.959 -16.431  -0.717  0.00  0.00     0.012 A 
ATOM      9  C   UNL d   1      27.167 -17.643  -0.068  0.00  0.00     0.002 A 
ATOM     10  C   UNL d   1      26.087 -18.477   0.199  0.00  0.00     0.012 A 
ATOM     11  C   UNL d   1      24.784 -18.098  -0.149  0.00  0.00    -0.025 A 
ATOM     12  C   UNL d   1      23.702 -18.934   0.177  0.00  0.00     0.012 A 
ATOM     13  C   UNL d   1      24.558 -16.870  -0.826  0.00  0.00    -0.016 A 
ATOM     14  C   UNL d   1      22.397 -18.577  -0.154  0.00  0.00     0.001 A 
ATOM     15  C   UNL d   1      22.157 -17.383  -0.821  0.00  0.00     0.001 A 
ATOM     16  C   UNL d   1      23.222 -16.545  -1.159  0.00  0.00     0.013 A 
ENDBRANCH   6   7
ENDBRANCH   2   5
BRANCH   3  17
ATOM     17  N   UNL d   1      26.908 -12.216  -2.221  0.00  0.00    -0.267 N 
ATOM     18  C   UNL d   1      27.210 -10.930  -1.817  0.00  0.00     0.240 C 
ATOM     19  O   UNL d   1      26.849  -9.990  -2.526  0.00  0.00    -0.272 OA
ATOM     20  H   UNL d   1      27.328 -13.026  -1.787  0.00  0.00     0.190 HD
BRANCH  18  21
ATOM     21  C   UNL d   1      27.975 -10.807  -0.481  0.00  0.00     0.143 C 
BRANCH  21  22
ATOM     22  C   UNL d   1      27.947 -12.048   0.405  0.00  0.00    -0.049 A 
ATOM     23  C   UNL d   1      28.871 -13.096   0.258  0.00  0.00     0.007 A 
ATOM     24  C   UNL d   1      28.752 -14.259   1.038  0.00  0.00     0.001 A 
ATOM     25  C   UNL d   1      27.775 -14.353   2.029  0.00  0.00     0.000 A 
ATOM     26  C   UNL d   1      26.863 -13.325   2.187  0.00  0.00     0.001 A 
ATOM     27  C   UNL d   1      26.922 -12.221   1.346  0.00  0.00     0.007 A 
ENDBRANCH  21  22
ENDBRANCH  18  21
ENDBRANCH   3  17
TORSDOF 5
ENDMDL
