MODEL 1
REMARK VINA RESULT:    -9.274      0.000      0.000
REMARK INTER + INTRA:         -13.858
REMARK INTER:                 -11.959
REMARK INTRA:                  -1.899
REMARK CONF_INDEPENDENT:        2.685
REMARK UNBOUND:                -1.899
REMARK  9 active torsions:
REMARK  status: ('A' for Active; 'I' for Inactive)
REMARK    1  A    between atoms: O_2  and  C_3 
REMARK    2  A    between atoms: C_3  and  C_4 
REMARK    3  A    between atoms: C_4  and  N_5 
REMARK       I    between atoms: N_5  and  C_6 
REMARK    4  A    between atoms: C_6  and  C_8 
REMARK    5  A    between atoms: C_10  and  S_11 
REMARK    6  A    between atoms: S_11  and  C_12 
REMARK    7  A    between atoms: N_22  and  C_23 
REMARK    8  A    between atoms: C_23  and  C_24 
REMARK    9  A    between atoms: C_27  and  C_28 
ROOT
ATOM      1  C   UNL d   1      25.978 -15.889  -2.514  0.00  0.00     0.315 C 
ATOM      2  C   UNL d   1      24.532 -16.011  -2.370  0.00  0.00     0.062 C 
ATOM      3  C   UNL d   1      24.300 -16.629  -1.013  0.00  0.00     0.082 C 
ATOM      4  C   UNL d   1      25.444 -16.194  -0.153  0.00  0.00     0.289 C 
ATOM      5  N   UNL d   1      26.416 -15.644  -1.124  0.00  0.00     0.107 N 
ENDROOT
BRANCH   3   6
ATOM      6  S   UNL d   1      22.529 -16.399  -0.743  0.00  0.00    -0.116 SA
BRANCH   6   7
ATOM      7  C   UNL d   1      22.246 -18.205  -0.696  0.00  0.00     0.247 C 
ATOM      8  N   UNL d   1      22.089 -18.698   0.720  0.00  0.00    -0.359 N 
ATOM      9  C   UNL d   1      20.961 -19.145   0.884  0.00  0.00     0.057 C 
ATOM     10  H   UNL d   1      22.701 -18.568   1.545  0.00  0.00     0.162 HD
ATOM     11  C   UNL d   1      20.335 -19.482   2.147  0.00  0.00     0.031 C 
ATOM     12  C   UNL d   1      20.325 -19.303  -0.446  0.00  0.00     0.057 C 
ATOM     13  C   UNL d   1      19.185 -20.131   1.982  0.00  0.00     0.002 C 
ATOM     14  C   UNL d   1      18.616 -20.450   0.675  0.00  0.00     0.002 C 
ATOM     15  C   UNL d   1      19.118 -20.080  -0.519  0.00  0.00     0.031 C 
ATOM     16  N   UNL d   1      21.066 -18.767  -1.341  0.00  0.00    -0.359 N 
ATOM     17  H   UNL d   1      20.954 -18.833  -2.356  0.00  0.00     0.162 HD
ENDBRANCH   6   7
ENDBRANCH   3   6
BRANCH   1  18
ATOM     18  C   UNL d   1      25.914 -14.853  -3.717  0.00  0.00     0.251 C 
ATOM     19  N   UNL d   1      27.121 -14.336  -4.288  0.00  0.00    -0.357 N 
ATOM     20  H   UNL d   1      27.969 -14.643  -3.865  0.00  0.00     0.162 HD
ATOM     21  O   UNL d   1      24.779 -14.603  -4.142  0.00  0.00    -0.271 OA
BRANCH  19  22
ATOM     22  C   UNL d   1      27.454 -14.123  -5.766  0.00  0.00     0.148 C 
BRANCH  22  23
ATOM     23  C   UNL d   1      28.675 -14.923  -6.298  0.00  0.00     0.186 C 
BRANCH  23  24
ATOM     24  O   UNL d   1      28.946 -15.979  -5.372  0.00  0.00    -0.394 OA
ATOM     25  C   UNL d   1      30.060 -16.763  -5.780  0.00  0.00     0.201 C 
ENDBRANCH  23  24
ENDBRANCH  22  23
ENDBRANCH  19  22
ENDBRANCH   1  18
BRANCH   5  26
ATOM     26  C   UNL d   1      26.684 -14.258  -0.851  0.00  0.00     0.312 C 
BRANCH  26  27
ATOM     27  C   UNL d   1      27.177 -14.066   0.583  0.00  0.00    -0.030 A 
ATOM     28  C   UNL d   1      26.595 -13.290   1.620  0.00  0.00     0.010 A 
ATOM     29  C   UNL d   1      26.892 -13.186   2.944  0.00  0.00     0.017 A 
ATOM     30  C   UNL d   1      27.882 -13.996   3.354  0.00  0.00     0.047 A 
ATOM     31  C   UNL d   1      28.533 -14.823   2.409  0.00  0.00     0.017 A 
ATOM     32  C   UNL d   1      28.221 -14.827   1.032  0.00  0.00     0.010 A 
BRANCH  30  33
ATOM     33  C   UNL d   1      28.115 -13.884   4.811  0.00  0.00     0.417 C 
ATOM     34  F   UNL d   1      28.215 -15.130   5.363  0.00  0.00    -0.166 F 
ATOM     35  F   UNL d   1      29.286 -13.261   5.115  0.00  0.00    -0.166 F 
ATOM     36  F   UNL d   1      27.116 -13.243   5.439  0.00  0.00    -0.166 F 
ENDBRANCH  30  33
ENDBRANCH  26  27
ENDBRANCH   5  26
TORSDOF 9
ENDMDL
MODEL 2
REMARK VINA RESULT:    -9.133      4.228      5.661
REMARK INTER + INTRA:         -13.764
REMARK INTER:                 -11.818
REMARK INTRA:                  -1.946
REMARK CONF_INDEPENDENT:        2.685
REMARK UNBOUND:                -1.946
REMARK  9 active torsions:
REMARK  status: ('A' for Active; 'I' for Inactive)
REMARK    1  A    between atoms: O_2  and  C_3 
REMARK    2  A    between atoms: C_3  and  C_4 
REMARK    3  A    between atoms: C_4  and  N_5 
REMARK       I    between atoms: N_5  and  C_6 
REMARK    4  A    between atoms: C_6  and  C_8 
REMARK    5  A    between atoms: C_10  and  S_11 
REMARK    6  A    between atoms: S_11  and  C_12 
REMARK    7  A    between atoms: N_22  and  C_23 
REMARK    8  A    between atoms: C_23  and  C_24 
REMARK    9  A    between atoms: C_27  and  C_28 
ROOT
ATOM      1  C   UNL d   1      26.044 -16.854  -0.193  0.00  0.00     0.315 C 
ATOM      2  C   UNL d   1      25.155 -18.007  -0.265  0.00  0.00     0.062 C 
ATOM      3  C   UNL d   1      23.830 -17.480  -0.760  0.00  0.00     0.082 C 
ATOM      4  C   UNL d   1      24.143 -16.296  -1.618  0.00  0.00     0.289 C 
ATOM      5  N   UNL d   1      25.563 -16.012  -1.309  0.00  0.00     0.107 N 
ENDROOT
BRANCH   3   6
ATOM      6  S   UNL d   1      22.915 -18.978  -1.185  0.00  0.00    -0.116 SA
BRANCH   6   7
ATOM      7  C   UNL d   1      21.479 -18.451  -0.183  0.00  0.00     0.247 C 
ATOM      8  N   UNL d   1      20.180 -18.843  -0.840  0.00  0.00    -0.359 N 
ATOM      9  C   UNL d   1      19.583 -19.650  -0.138  0.00  0.00     0.057 C 
ATOM     10  H   UNL d   1      19.833 -18.660  -1.799  0.00  0.00     0.162 HD
ATOM     11  C   UNL d   1      18.435 -20.450  -0.518  0.00  0.00     0.031 C 
ATOM     12  C   UNL d   1      20.227 -19.672   1.197  0.00  0.00     0.057 C 
ATOM     13  C   UNL d   1      17.895 -21.079   0.522  0.00  0.00     0.002 C 
ATOM     14  C   UNL d   1      18.411 -20.983   1.885  0.00  0.00     0.002 C 
ATOM     15  C   UNL d   1      19.522 -20.324   2.266  0.00  0.00     0.031 C 
ATOM     16  N   UNL d   1      21.306 -18.984   1.164  0.00  0.00    -0.359 N 
ATOM     17  H   UNL d   1      21.889 -18.711   1.958  0.00  0.00     0.162 HD
ENDBRANCH   6   7
ENDBRANCH   3   6
BRANCH   1  18
ATOM     18  C   UNL d   1      27.381 -17.709  -0.120  0.00  0.00     0.251 C 
ATOM     19  N   UNL d   1      28.518 -17.340  -0.908  0.00  0.00    -0.357 N 
ATOM     20  H   UNL d   1      28.395 -16.554  -1.507  0.00  0.00     0.162 HD
ATOM     21  O   UNL d   1      27.372 -18.637   0.700  0.00  0.00    -0.271 OA
BRANCH  19  22
ATOM     22  C   UNL d   1      29.990 -17.315  -0.494  0.00  0.00     0.148 C 
BRANCH  22  23
ATOM     23  C   UNL d   1      30.988 -16.870  -1.599  0.00  0.00     0.186 C 
BRANCH  23  24
ATOM     24  O   UNL d   1      30.243 -16.198  -2.619  0.00  0.00    -0.394 OA
ATOM     25  C   UNL d   1      30.423 -16.809  -3.890  0.00  0.00     0.201 C 
ENDBRANCH  23  24
ENDBRANCH  22  23
ENDBRANCH  19  22
ENDBRANCH   1  18
BRANCH   5  26
ATOM     26  C   UNL d   1      26.376 -16.118  -2.490  0.00  0.00     0.312 C 
BRANCH  26  27
ATOM     27  C   UNL d   1      26.217 -14.884  -3.378  0.00  0.00    -0.030 A 
ATOM     28  C   UNL d   1      25.580 -13.652  -3.070  0.00  0.00     0.010 A 
ATOM     29  C   UNL d   1      25.524 -12.472  -3.747  0.00  0.00     0.017 A 
ATOM     30  C   UNL d   1      26.236 -12.454  -4.886  0.00  0.00     0.047 A 
ATOM     31  C   UNL d   1      26.920 -13.623  -5.291  0.00  0.00     0.017 A 
ATOM     32  C   UNL d   1      26.876 -14.839  -4.575  0.00  0.00     0.010 A 
BRANCH  30  33
ATOM     33  C   UNL d   1      26.188 -11.128  -5.542  0.00  0.00     0.417 C 
ATOM     34  F   UNL d   1      27.357 -10.897  -6.211  0.00  0.00    -0.166 F 
ATOM     35  F   UNL d   1      25.210 -11.037  -6.484  0.00  0.00    -0.166 F 
ATOM     36  F   UNL d   1      26.023 -10.129  -4.659  0.00  0.00    -0.166 F 
ENDBRANCH  30  33
ENDBRANCH  26  27
ENDBRANCH   5  26
TORSDOF 9
ENDMDL
MODEL 3
REMARK VINA RESULT:    -9.040      4.283      8.705
REMARK INTER + INTRA:         -13.378
REMARK INTER:                 -11.724
REMARK INTRA:                  -1.654
REMARK CONF_INDEPENDENT:        2.685
REMARK UNBOUND:                -1.654
REMARK  9 active torsions:
REMARK  status: ('A' for Active; 'I' for Inactive)
REMARK    1  A    between atoms: O_2  and  C_3 
REMARK    2  A    between atoms: C_3  and  C_4 
REMARK    3  A    between atoms: C_4  and  N_5 
REMARK       I    between atoms: N_5  and  C_6 
REMARK    4  A    between atoms: C_6  and  C_8 
REMARK    5  A    between atoms: C_10  and  S_11 
REMARK    6  A    between atoms: S_11  and  C_12 
REMARK    7  A    between atoms: N_22  and  C_23 
REMARK    8  A    between atoms: C_23  and  C_24 
REMARK    9  A    between atoms: C_27  and  C_28 
ROOT
ATOM      1  C   UNL d   1      27.266 -15.280  -0.384  0.00  0.00     0.315 C 
ATOM      2  C   UNL d   1      26.277 -14.478  -1.094  0.00  0.00     0.062 C 
ATOM      3  C   UNL d   1      25.916 -15.263  -2.331  0.00  0.00     0.082 C 
ATOM      4  C   UNL d   1      26.092 -16.706  -1.978  0.00  0.00     0.289 C 
ATOM      5  N   UNL d   1      26.845 -16.660  -0.704  0.00  0.00     0.107 N 
ENDROOT
BRANCH   3   6
ATOM      6  S   UNL d   1      24.443 -14.420  -2.949  0.00  0.00    -0.116 SA
BRANCH   6   7
ATOM      7  C   UNL d   1      25.146 -14.311  -4.634  0.00  0.00     0.247 C 
ATOM      8  N   UNL d   1      25.569 -12.902  -4.960  0.00  0.00    -0.359 N 
ATOM      9  C   UNL d   1      26.782 -12.858  -5.125  0.00  0.00     0.057 C 
ATOM     10  H   UNL d   1      25.038 -12.014  -4.906  0.00  0.00     0.162 HD
ATOM     11  C   UNL d   1      27.605 -11.667  -5.207  0.00  0.00     0.031 C 
ATOM     12  C   UNL d   1      27.287 -14.246  -5.243  0.00  0.00     0.057 C 
ATOM     13  C   UNL d   1      28.849 -11.941  -5.589  0.00  0.00     0.002 C 
ATOM     14  C   UNL d   1      29.330 -13.290  -5.877  0.00  0.00     0.002 C 
ATOM     15  C   UNL d   1      28.626 -14.429  -5.729  0.00  0.00     0.031 C 
ATOM     16  N   UNL d   1      26.347 -15.069  -4.964  0.00  0.00    -0.359 N 
ATOM     17  H   UNL d   1      26.358 -16.085  -5.086  0.00  0.00     0.162 HD
ENDBRANCH   6   7
ENDBRANCH   3   6
BRANCH   1  18
ATOM     18  C   UNL d   1      27.112 -14.506   0.996  0.00  0.00     0.251 C 
ATOM     19  N   UNL d   1      27.962 -14.828   2.102  0.00  0.00    -0.357 N 
ATOM     20  H   UNL d   1      28.610 -15.570   1.952  0.00  0.00     0.162 HD
ATOM     21  O   UNL d   1      26.278 -13.592   1.000  0.00  0.00    -0.271 OA
BRANCH  19  22
ATOM     22  C   UNL d   1      28.652 -13.871   3.076  0.00  0.00     0.148 C 
BRANCH  22  23
ATOM     23  C   UNL d   1      27.760 -13.337   4.232  0.00  0.00     0.186 C 
BRANCH  23  24
ATOM     24  O   UNL d   1      27.398 -14.448   5.057  0.00  0.00    -0.394 OA
ATOM     25  C   UNL d   1      28.526 -14.993   5.729  0.00  0.00     0.201 C 
ENDBRANCH  23  24
ENDBRANCH  22  23
ENDBRANCH  19  22
ENDBRANCH   1  18
BRANCH   5  26
ATOM     26  C   UNL d   1      26.099 -17.285   0.354  0.00  0.00     0.312 C 
BRANCH  26  27
ATOM     27  C   UNL d   1      24.689 -17.650  -0.110  0.00  0.00    -0.030 A 
ATOM     28  C   UNL d   1      24.155 -18.939  -0.379  0.00  0.00     0.010 A 
ATOM     29  C   UNL d   1      22.886 -19.349  -0.653  0.00  0.00     0.017 A 
ATOM     30  C   UNL d   1      21.968 -18.369  -0.618  0.00  0.00     0.047 A 
ATOM     31  C   UNL d   1      22.383 -17.045  -0.352  0.00  0.00     0.017 A 
ATOM     32  C   UNL d   1      23.730 -16.676  -0.147  0.00  0.00     0.010 A 
BRANCH  30  33
ATOM     33  C   UNL d   1      20.603 -18.888  -0.861  0.00  0.00     0.417 C 
ATOM     34  F   UNL d   1      20.229 -19.711   0.164  0.00  0.00    -0.166 F 
ATOM     35  F   UNL d   1      19.662 -17.906  -0.896  0.00  0.00    -0.166 F 
ATOM     36  F   UNL d   1      20.522 -19.597  -1.999  0.00  0.00    -0.166 F 
ENDBRANCH  30  33
ENDBRANCH  26  27
ENDBRANCH   5  26
TORSDOF 9
ENDMDL
MODEL 4
REMARK VINA RESULT:    -8.976      2.458      3.030
REMARK INTER + INTRA:         -13.716
REMARK INTER:                 -11.661
REMARK INTRA:                  -2.055
REMARK CONF_INDEPENDENT:        2.685
REMARK UNBOUND:                -2.055
REMARK  9 active torsions:
REMARK  status: ('A' for Active; 'I' for Inactive)
REMARK    1  A    between atoms: O_2  and  C_3 
REMARK    2  A    between atoms: C_3  and  C_4 
REMARK    3  A    between atoms: C_4  and  N_5 
REMARK       I    between atoms: N_5  and  C_6 
REMARK    4  A    between atoms: C_6  and  C_8 
REMARK    5  A    between atoms: C_10  and  S_11 
REMARK    6  A    between atoms: S_11  and  C_12 
REMARK    7  A    between atoms: N_22  and  C_23 
REMARK    8  A    between atoms: C_23  and  C_24 
REMARK    9  A    between atoms: C_27  and  C_28 
ROOT
ATOM      1  C   UNL d   1      25.858 -16.435  -2.060  0.00  0.00     0.315 C 
ATOM      2  C   UNL d   1      24.405 -16.314  -2.022  0.00  0.00     0.062 C 
ATOM      3  C   UNL d   1      23.911 -17.498  -1.227  0.00  0.00     0.082 C 
ATOM      4  C   UNL d   1      24.998 -17.835  -0.257  0.00  0.00     0.289 C 
ATOM      5  N   UNL d   1      26.159 -17.065  -0.758  0.00  0.00     0.107 N 
ENDROOT
BRANCH   3   6
ATOM      6  S   UNL d   1      22.183 -17.089  -0.895  0.00  0.00    -0.116 SA
BRANCH   6   7
ATOM      7  C   UNL d   1      21.717 -18.856  -0.847  0.00  0.00     0.247 C 
ATOM      8  N   UNL d   1      21.655 -19.368   0.570  0.00  0.00    -0.359 N 
ATOM      9  C   UNL d   1      20.509 -19.700   0.845  0.00  0.00     0.057 C 
ATOM     10  H   UNL d   1      22.360 -19.325   1.328  0.00  0.00     0.162 HD
ATOM     11  C   UNL d   1      19.985 -20.004   2.162  0.00  0.00     0.031 C 
ATOM     12  C   UNL d   1      19.726 -19.755  -0.412  0.00  0.00     0.057 C 
ATOM     13  C   UNL d   1      18.762 -20.525   2.108  0.00  0.00     0.002 C 
ATOM     14  C   UNL d   1      18.031 -20.748   0.864  0.00  0.00     0.002 C 
ATOM     15  C   UNL d   1      18.443 -20.400  -0.370  0.00  0.00     0.031 C 
ATOM     16  N   UNL d   1      20.423 -19.275  -1.373  0.00  0.00    -0.359 N 
ATOM     17  H   UNL d   1      20.201 -19.302  -2.371  0.00  0.00     0.162 HD
ENDBRANCH   6   7
ENDBRANCH   3   6
BRANCH   1  18
ATOM     18  C   UNL d   1      26.114 -14.930  -2.501  0.00  0.00     0.251 C 
ATOM     19  N   UNL d   1      26.983 -14.638  -3.601  0.00  0.00    -0.357 N 
ATOM     20  H   UNL d   1      27.420 -15.423  -4.030  0.00  0.00     0.162 HD
ATOM     21  O   UNL d   1      25.466 -14.078  -1.879  0.00  0.00    -0.271 OA
BRANCH  19  22
ATOM     22  C   UNL d   1      26.780 -13.617  -4.722  0.00  0.00     0.148 C 
BRANCH  22  23
ATOM     23  C   UNL d   1      27.695 -13.800  -5.965  0.00  0.00     0.186 C 
BRANCH  23  24
ATOM     24  O   UNL d   1      27.934 -15.200  -6.133  0.00  0.00    -0.394 OA
ATOM     25  C   UNL d   1      29.268 -15.550  -5.790  0.00  0.00     0.201 C 
ENDBRANCH  23  24
ENDBRANCH  22  23
ENDBRANCH  19  22
ENDBRANCH   1  18
BRANCH   5  26
ATOM     26  C   UNL d   1      26.618 -16.129   0.232  0.00  0.00     0.312 C 
BRANCH  26  27
ATOM     27  C   UNL d   1      28.125 -15.898   0.112  0.00  0.00    -0.030 A 
ATOM     28  C   UNL d   1      28.876 -14.757   0.499  0.00  0.00     0.010 A 
ATOM     29  C   UNL d   1      30.219 -14.537   0.555  0.00  0.00     0.017 A 
ATOM     30  C   UNL d   1      30.967 -15.604   0.230  0.00  0.00     0.047 A 
ATOM     31  C   UNL d   1      30.327 -16.801  -0.166  0.00  0.00     0.017 A 
ATOM     32  C   UNL d   1      28.926 -16.938  -0.271  0.00  0.00     0.010 A 
BRANCH  30  33
ATOM     33  C   UNL d   1      32.413 -15.323   0.371  0.00  0.00     0.417 C 
ATOM     34  F   UNL d   1      32.603 -14.283   1.236  0.00  0.00    -0.166 F 
ATOM     35  F   UNL d   1      33.106 -16.366   0.905  0.00  0.00    -0.166 F 
ATOM     36  F   UNL d   1      32.984 -14.987  -0.798  0.00  0.00    -0.166 F 
ENDBRANCH  30  33
ENDBRANCH  26  27
ENDBRANCH   5  26
TORSDOF 9
ENDMDL
MODEL 5
REMARK VINA RESULT:    -8.483      1.423      2.058
REMARK INTER + INTRA:         -13.237
REMARK INTER:                 -11.168
REMARK INTRA:                  -2.069
REMARK CONF_INDEPENDENT:        2.685
REMARK UNBOUND:                -2.069
REMARK  9 active torsions:
REMARK  status: ('A' for Active; 'I' for Inactive)
REMARK    1  A    between atoms: O_2  and  C_3 
REMARK    2  A    between atoms: C_3  and  C_4 
REMARK    3  A    between atoms: C_4  and  N_5 
REMARK       I    between atoms: N_5  and  C_6 
REMARK    4  A    between atoms: C_6  and  C_8 
REMARK    5  A    between atoms: C_10  and  S_11 
REMARK    6  A    between atoms: S_11  and  C_12 
REMARK    7  A    between atoms: N_22  and  C_23 
REMARK    8  A    between atoms: C_23  and  C_24 
REMARK    9  A    between atoms: C_27  and  C_28 
ROOT
ATOM      1  C   UNL d   1      25.853 -15.942  -2.586  0.00  0.00     0.315 C 
ATOM      2  C   UNL d   1      24.423 -16.063  -2.329  0.00  0.00     0.062 C 
ATOM      3  C   UNL d   1      24.298 -16.654  -0.945  0.00  0.00     0.082 C 
ATOM      4  C   UNL d   1      25.503 -16.200  -0.185  0.00  0.00     0.289 C 
ATOM      5  N   UNL d   1      26.396 -15.668  -1.239  0.00  0.00     0.107 N 
ENDROOT
BRANCH   3   6
ATOM      6  S   UNL d   1      22.552 -16.422  -0.545  0.00  0.00    -0.116 SA
BRANCH   6   7
ATOM      7  C   UNL d   1      22.249 -18.225  -0.579  0.00  0.00     0.247 C 
ATOM      8  N   UNL d   1      22.063 -18.775   0.813  0.00  0.00    -0.359 N 
ATOM      9  C   UNL d   1      20.927 -19.215   0.940  0.00  0.00     0.057 C 
ATOM     10  H   UNL d   1      22.663 -18.687   1.652  0.00  0.00     0.162 HD
ATOM     11  C   UNL d   1      20.277 -19.598   2.178  0.00  0.00     0.031 C 
ATOM     12  C   UNL d   1      20.311 -19.309  -0.405  0.00  0.00     0.057 C 
ATOM     13  C   UNL d   1      19.123 -20.225   1.967  0.00  0.00     0.002 C 
ATOM     14  C   UNL d   1      18.572 -20.482   0.639  0.00  0.00     0.002 C 
ATOM     15  C   UNL d   1      19.097 -20.068  -0.530  0.00  0.00     0.031 C 
ATOM     16  N   UNL d   1      21.072 -18.745  -1.265  0.00  0.00    -0.359 N 
ATOM     17  H   UNL d   1      20.976 -18.767  -2.284  0.00  0.00     0.162 HD
ENDBRANCH   6   7
ENDBRANCH   3   6
BRANCH   1  18
ATOM     18  C   UNL d   1      25.693 -14.931  -3.801  0.00  0.00     0.251 C 
ATOM     19  N   UNL d   1      25.594 -13.523  -3.560  0.00  0.00    -0.357 N 
ATOM     20  H   UNL d   1      25.600 -13.244  -2.604  0.00  0.00     0.162 HD
ATOM     21  O   UNL d   1      25.736 -15.444  -4.927  0.00  0.00    -0.271 OA
BRANCH  19  22
ATOM     22  C   UNL d   1      26.266 -12.381  -4.325  0.00  0.00     0.148 C 
BRANCH  22  23
ATOM     23  C   UNL d   1      27.211 -11.479  -3.484  0.00  0.00     0.186 C 
BRANCH  23  24
ATOM     24  O   UNL d   1      26.736 -11.481  -2.135  0.00  0.00    -0.394 OA
ATOM     25  C   UNL d   1      27.262 -10.391  -1.390  0.00  0.00     0.201 C 
ENDBRANCH  23  24
ENDBRANCH  22  23
ENDBRANCH  19  22
ENDBRANCH   1  18
BRANCH   5  26
ATOM     26  C   UNL d   1      26.680 -14.276  -1.016  0.00  0.00     0.312 C 
BRANCH  26  27
ATOM     27  C   UNL d   1      27.213 -14.045   0.398  0.00  0.00    -0.030 A 
ATOM     28  C   UNL d   1      26.596 -13.347   1.470  0.00  0.00     0.010 A 
ATOM     29  C   UNL d   1      26.940 -13.223   2.782  0.00  0.00     0.017 A 
ATOM     30  C   UNL d   1      28.030 -13.923   3.136  0.00  0.00     0.047 A 
ATOM     31  C   UNL d   1      28.724 -14.664   2.152  0.00  0.00     0.017 A 
ATOM     32  C   UNL d   1      28.353 -14.690   0.790  0.00  0.00     0.010 A 
BRANCH  30  33
ATOM     33  C   UNL d   1      28.314 -13.800   4.583  0.00  0.00     0.417 C 
ATOM     34  F   UNL d   1      27.816 -14.884   5.249  0.00  0.00    -0.166 F 
ATOM     35  F   UNL d   1      29.646 -13.788   4.862  0.00  0.00    -0.166 F 
ATOM     36  F   UNL d   1      27.757 -12.702   5.121  0.00  0.00    -0.166 F 
ENDBRANCH  30  33
ENDBRANCH  26  27
ENDBRANCH   5  26
TORSDOF 9
ENDMDL
MODEL 6
REMARK VINA RESULT:    -7.998      4.246      7.951
REMARK INTER + INTRA:         -13.085
REMARK INTER:                 -10.683
REMARK INTRA:                  -2.403
REMARK CONF_INDEPENDENT:        2.685
REMARK UNBOUND:                -2.403
REMARK  9 active torsions:
REMARK  status: ('A' for Active; 'I' for Inactive)
REMARK    1  A    between atoms: O_2  and  C_3 
REMARK    2  A    between atoms: C_3  and  C_4 
REMARK    3  A    between atoms: C_4  and  N_5 
REMARK       I    between atoms: N_5  and  C_6 
REMARK    4  A    between atoms: C_6  and  C_8 
REMARK    5  A    between atoms: C_10  and  S_11 
REMARK    6  A    between atoms: S_11  and  C_12 
REMARK    7  A    between atoms: N_22  and  C_23 
REMARK    8  A    between atoms: C_23  and  C_24 
REMARK    9  A    between atoms: C_27  and  C_28 
ROOT
ATOM      1  C   UNL d   1      26.270 -14.833  -0.830  0.00  0.00     0.315 C 
ATOM      2  C   UNL d   1      27.686 -14.495  -0.923  0.00  0.00     0.062 C 
ATOM      3  C   UNL d   1      28.247 -14.675   0.467  0.00  0.00     0.082 C 
ATOM      4  C   UNL d   1      27.427 -15.744   1.116  0.00  0.00     0.289 C 
ATOM      5  N   UNL d   1      26.261 -15.880   0.213  0.00  0.00     0.107 N 
ENDROOT
BRANCH   3   6
ATOM      6  S   UNL d   1      30.034 -14.618   0.209  0.00  0.00    -0.116 SA
BRANCH   6   7
ATOM      7  C   UNL d   1      30.288 -13.721   1.782  0.00  0.00     0.247 C 
ATOM      8  N   UNL d   1      29.005 -13.096   2.269  0.00  0.00    -0.359 N 
ATOM      9  C   UNL d   1      28.671 -13.603   3.333  0.00  0.00     0.057 C 
ATOM     10  H   UNL d   1      28.341 -12.467   1.783  0.00  0.00     0.162 HD
ATOM     11  C   UNL d   1      27.390 -13.464   3.998  0.00  0.00     0.031 C 
ATOM     12  C   UNL d   1      29.814 -14.390   3.853  0.00  0.00     0.057 C 
ATOM     13  C   UNL d   1      27.405 -13.968   5.228  0.00  0.00     0.002 C 
ATOM     14  C   UNL d   1      28.575 -14.602   5.830  0.00  0.00     0.002 C 
ATOM     15  C   UNL d   1      29.754 -14.830   5.219  0.00  0.00     0.031 C 
ATOM     16  N   UNL d   1      30.733 -14.450   2.964  0.00  0.00    -0.359 N 
ATOM     17  H   UNL d   1      31.683 -14.809   3.080  0.00  0.00     0.162 HD
ENDBRANCH   6   7
ENDBRANCH   3   6
BRANCH   1  18
ATOM     18  C   UNL d   1      26.065 -15.011  -2.396  0.00  0.00     0.251 C 
ATOM     19  N   UNL d   1      25.273 -14.071  -3.131  0.00  0.00    -0.357 N 
ATOM     20  H   UNL d   1      24.852 -13.344  -2.596  0.00  0.00     0.162 HD
ATOM     21  O   UNL d   1      26.684 -15.952  -2.908  0.00  0.00    -0.271 OA
BRANCH  19  22
ATOM     22  C   UNL d   1      25.562 -13.457  -4.502  0.00  0.00     0.148 C 
BRANCH  22  23
ATOM     23  C   UNL d   1      25.904 -11.941  -4.496  0.00  0.00     0.186 C 
BRANCH  23  24
ATOM     24  O   UNL d   1      25.774 -11.466  -3.154  0.00  0.00    -0.394 OA
ATOM     25  C   UNL d   1      27.031 -11.412  -2.491  0.00  0.00     0.201 C 
ENDBRANCH  23  24
ENDBRANCH  22  23
ENDBRANCH  19  22
ENDBRANCH   1  18
BRANCH   5  26
ATOM     26  C   UNL d   1      26.181 -17.212  -0.322  0.00  0.00     0.312 C 
BRANCH  26  27
ATOM     27  C   UNL d   1      24.725 -17.635  -0.523  0.00  0.00    -0.030 A 
ATOM     28  C   UNL d   1      24.179 -18.947  -0.520  0.00  0.00     0.010 A 
ATOM     29  C   UNL d   1      22.892 -19.387  -0.549  0.00  0.00     0.017 A 
ATOM     30  C   UNL d   1      21.972 -18.408  -0.530  0.00  0.00     0.047 A 
ATOM     31  C   UNL d   1      22.398 -17.061  -0.524  0.00  0.00     0.017 A 
ATOM     32  C   UNL d   1      23.756 -16.673  -0.569  0.00  0.00     0.010 A 
BRANCH  30  33
ATOM     33  C   UNL d   1      20.595 -18.950  -0.498  0.00  0.00     0.417 C 
ATOM     34  F   UNL d   1      20.256 -19.282   0.784  0.00  0.00    -0.166 F 
ATOM     35  F   UNL d   1      19.660 -18.045  -0.895  0.00  0.00    -0.166 F 
ATOM     36  F   UNL d   1      20.464 -20.055  -1.250  0.00  0.00    -0.166 F 
ENDBRANCH  30  33
ENDBRANCH  26  27
ENDBRANCH   5  26
TORSDOF 9
ENDMDL
MODEL 7
REMARK VINA RESULT:    -7.776      4.442      8.562
REMARK INTER + INTRA:         -13.211
REMARK INTER:                 -10.460
REMARK INTRA:                  -2.750
REMARK CONF_INDEPENDENT:        2.685
REMARK UNBOUND:                -2.750
REMARK  9 active torsions:
REMARK  status: ('A' for Active; 'I' for Inactive)
REMARK    1  A    between atoms: O_2  and  C_3 
REMARK    2  A    between atoms: C_3  and  C_4 
REMARK    3  A    between atoms: C_4  and  N_5 
REMARK       I    between atoms: N_5  and  C_6 
REMARK    4  A    between atoms: C_6  and  C_8 
REMARK    5  A    between atoms: C_10  and  S_11 
REMARK    6  A    between atoms: S_11  and  C_12 
REMARK    7  A    between atoms: N_22  and  C_23 
REMARK    8  A    between atoms: C_23  and  C_24 
REMARK    9  A    between atoms: C_27  and  C_28 
ROOT
ATOM      1  C   UNL d   1      27.623 -15.997   1.081  0.00  0.00     0.315 C 
ATOM      2  C   UNL d   1      28.845 -15.886   0.292  0.00  0.00     0.062 C 
ATOM      3  C   UNL d   1      29.058 -17.242  -0.335  0.00  0.00     0.082 C 
ATOM      4  C   UNL d   1      27.699 -17.840  -0.517  0.00  0.00     0.289 C 
ATOM      5  N   UNL d   1      26.826 -16.965   0.299  0.00  0.00     0.107 N 
ENDROOT
BRANCH   3   6
ATOM      6  S   UNL d   1      30.336 -16.935  -1.574  0.00  0.00    -0.116 SA
BRANCH   6   7
ATOM      7  C   UNL d   1      29.527 -15.382  -2.102  0.00  0.00     0.247 C 
ATOM      8  N   UNL d   1      29.941 -14.997  -3.499  0.00  0.00    -0.359 N 
ATOM      9  C   UNL d   1      28.971 -15.025  -4.245  0.00  0.00     0.057 C 
ATOM     10  H   UNL d   1      30.886 -14.882  -3.909  0.00  0.00     0.162 HD
ATOM     11  C   UNL d   1      28.986 -14.964  -5.694  0.00  0.00     0.031 C 
ATOM     12  C   UNL d   1      27.747 -15.121  -3.414  0.00  0.00     0.057 C 
ATOM     13  C   UNL d   1      27.767 -14.814  -6.204  0.00  0.00     0.002 C 
ATOM     14  C   UNL d   1      26.554 -14.736  -5.394  0.00  0.00     0.002 C 
ATOM     15  C   UNL d   1      26.485 -14.875  -4.056  0.00  0.00     0.031 C 
ATOM     16  N   UNL d   1      28.073 -15.321  -2.193  0.00  0.00    -0.359 N 
ATOM     17  H   UNL d   1      27.457 -15.299  -1.377  0.00  0.00     0.162 HD
ENDBRANCH   6   7
ENDBRANCH   3   6
BRANCH   1  18
ATOM     18  C   UNL d   1      27.399 -14.429   1.217  0.00  0.00     0.251 C 
ATOM     19  N   UNL d   1      27.043 -13.859   2.481  0.00  0.00    -0.357 N 
ATOM     20  H   UNL d   1      26.920 -14.503   3.231  0.00  0.00     0.162 HD
ATOM     21  O   UNL d   1      27.624 -13.771   0.193  0.00  0.00    -0.271 OA
BRANCH  19  22
ATOM     22  C   UNL d   1      27.575 -12.576   3.124  0.00  0.00     0.148 C 
BRANCH  22  23
ATOM     23  C   UNL d   1      27.912 -12.679   4.638  0.00  0.00     0.186 C 
BRANCH  23  24
ATOM     24  O   UNL d   1      27.810 -14.054   5.019  0.00  0.00    -0.394 OA
ATOM     25  C   UNL d   1      29.085 -14.677   5.088  0.00  0.00     0.201 C 
ENDBRANCH  23  24
ENDBRANCH  22  23
ENDBRANCH  19  22
ENDBRANCH   1  18
BRANCH   5  26
ATOM     26  C   UNL d   1      25.820 -16.341  -0.518  0.00  0.00     0.312 C 
BRANCH  26  27
ATOM     27  C   UNL d   1      24.499 -17.107  -0.442  0.00  0.00    -0.030 A 
ATOM     28  C   UNL d   1      23.182 -16.618  -0.652  0.00  0.00     0.010 A 
ATOM     29  C   UNL d   1      21.985 -17.261  -0.742  0.00  0.00     0.017 A 
ATOM     30  C   UNL d   1      22.069 -18.599  -0.664  0.00  0.00     0.047 A 
ATOM     31  C   UNL d   1      23.333 -19.201  -0.463  0.00  0.00     0.017 A 
ATOM     32  C   UNL d   1      24.529 -18.467  -0.305  0.00  0.00     0.010 A 
BRANCH  30  33
ATOM     33  C   UNL d   1      20.747 -19.242  -0.832  0.00  0.00     0.417 C 
ATOM     34  F   UNL d   1      20.613 -19.704  -2.111  0.00  0.00    -0.166 F 
ATOM     35  F   UNL d   1      20.584 -20.334  -0.036  0.00  0.00    -0.166 F 
ATOM     36  F   UNL d   1      19.733 -18.391  -0.600  0.00  0.00    -0.166 F 
ENDBRANCH  30  33
ENDBRANCH  26  27
ENDBRANCH   5  26
TORSDOF 9
ENDMDL
MODEL 8
REMARK VINA RESULT:    -7.497      4.190      8.169
REMARK INTER + INTRA:         -13.904
REMARK INTER:                 -10.181
REMARK INTRA:                  -3.723
REMARK CONF_INDEPENDENT:        2.685
REMARK UNBOUND:                -3.723
REMARK  9 active torsions:
REMARK  status: ('A' for Active; 'I' for Inactive)
REMARK    1  A    between atoms: O_2  and  C_3 
REMARK    2  A    between atoms: C_3  and  C_4 
REMARK    3  A    between atoms: C_4  and  N_5 
REMARK       I    between atoms: N_5  and  C_6 
REMARK    4  A    between atoms: C_6  and  C_8 
REMARK    5  A    between atoms: C_10  and  S_11 
REMARK    6  A    between atoms: S_11  and  C_12 
REMARK    7  A    between atoms: N_22  and  C_23 
REMARK    8  A    between atoms: C_23  and  C_24 
REMARK    9  A    between atoms: C_27  and  C_28 
ROOT
ATOM      1  C   UNL d   1      27.389 -15.363   0.580  0.00  0.00     0.315 C 
ATOM      2  C   UNL d   1      28.710 -15.261  -0.027  0.00  0.00     0.062 C 
ATOM      3  C   UNL d   1      29.244 -16.671  -0.099  0.00  0.00     0.082 C 
ATOM      4  C   UNL d   1      28.052 -17.565  -0.236  0.00  0.00     0.289 C 
ATOM      5  N   UNL d   1      26.915 -16.675   0.093  0.00  0.00     0.107 N 
ENDROOT
BRANCH   3   6
ATOM      6  S   UNL d   1      30.679 -16.522  -1.186  0.00  0.00    -0.116 SA
BRANCH   6   7
ATOM      7  C   UNL d   1      29.709 -17.079  -2.633  0.00  0.00     0.247 C 
ATOM      8  N   UNL d   1      28.905 -15.947  -3.221  0.00  0.00    -0.359 N 
ATOM      9  C   UNL d   1      29.292 -15.705  -4.357  0.00  0.00     0.057 C 
ATOM     10  H   UNL d   1      28.238 -15.296  -2.769  0.00  0.00     0.162 HD
ATOM     11  C   UNL d   1      28.956 -14.546  -5.161  0.00  0.00     0.031 C 
ATOM     12  C   UNL d   1      30.170 -16.816  -4.796  0.00  0.00     0.057 C 
ATOM     13  C   UNL d   1      29.370 -14.671  -6.419  0.00  0.00     0.002 C 
ATOM     14  C   UNL d   1      30.093 -15.835  -6.923  0.00  0.00     0.002 C 
ATOM     15  C   UNL d   1      30.502 -16.890  -6.192  0.00  0.00     0.031 C 
ATOM     16  N   UNL d   1      30.401 -17.596  -3.808  0.00  0.00    -0.359 N 
ATOM     17  H   UNL d   1      30.861 -18.509  -3.836  0.00  0.00     0.162 HD
ENDBRANCH   6   7
ENDBRANCH   3   6
BRANCH   1  18
ATOM     18  C   UNL d   1      26.910 -13.919   0.122  0.00  0.00     0.251 C 
ATOM     19  N   UNL d   1      27.153 -13.469  -1.216  0.00  0.00    -0.357 N 
ATOM     20  H   UNL d   1      27.655 -14.098  -1.802  0.00  0.00     0.162 HD
ATOM     21  O   UNL d   1      26.273 -13.278   0.968  0.00  0.00    -0.271 OA
BRANCH  19  22
ATOM     22  C   UNL d   1      26.205 -12.709  -2.146  0.00  0.00     0.148 C 
BRANCH  22  23
ATOM     23  C   UNL d   1      25.436 -13.583  -3.176  0.00  0.00     0.186 C 
BRANCH  23  24
ATOM     24  O   UNL d   1      26.185 -14.785  -3.378  0.00  0.00    -0.394 OA
ATOM     25  C   UNL d   1      25.895 -15.380  -4.636  0.00  0.00     0.201 C 
ENDBRANCH  23  24
ENDBRANCH  22  23
ENDBRANCH  19  22
ENDBRANCH   1  18
BRANCH   5  26
ATOM     26  C   UNL d   1      26.007 -16.573  -1.017  0.00  0.00     0.312 C 
BRANCH  26  27
ATOM     27  C   UNL d   1      24.662 -17.219  -0.687  0.00  0.00    -0.030 A 
ATOM     28  C   UNL d   1      23.372 -16.624  -0.693  0.00  0.00     0.010 A 
ATOM     29  C   UNL d   1      22.129 -17.163  -0.551  0.00  0.00     0.017 A 
ATOM     30  C   UNL d   1      22.117 -18.500  -0.431  0.00  0.00     0.047 A 
ATOM     31  C   UNL d   1      23.344 -19.203  -0.420  0.00  0.00     0.017 A 
ATOM     32  C   UNL d   1      24.604 -18.572  -0.498  0.00  0.00     0.010 A 
BRANCH  30  33
ATOM     33  C   UNL d   1      20.739 -19.031  -0.345  0.00  0.00     0.417 C 
ATOM     34  F   UNL d   1      20.288 -18.951   0.942  0.00  0.00    -0.166 F 
ATOM     35  F   UNL d   1      19.848 -18.314  -1.084  0.00  0.00    -0.166 F 
ATOM     36  F   UNL d   1      20.663 -20.318  -0.721  0.00  0.00    -0.166 F 
ENDBRANCH  30  33
ENDBRANCH  26  27
ENDBRANCH   5  26
TORSDOF 9
ENDMDL
MODEL 9
REMARK VINA RESULT:    -7.401      4.119      6.302
REMARK INTER + INTRA:         -13.087
REMARK INTER:                 -10.085
REMARK INTRA:                  -3.002
REMARK CONF_INDEPENDENT:        2.685
REMARK UNBOUND:                -3.002
REMARK  9 active torsions:
REMARK  status: ('A' for Active; 'I' for Inactive)
REMARK    1  A    between atoms: O_2  and  C_3 
REMARK    2  A    between atoms: C_3  and  C_4 
REMARK    3  A    between atoms: C_4  and  N_5 
REMARK       I    between atoms: N_5  and  C_6 
REMARK    4  A    between atoms: C_6  and  C_8 
REMARK    5  A    between atoms: C_10  and  S_11 
REMARK    6  A    between atoms: S_11  and  C_12 
REMARK    7  A    between atoms: N_22  and  C_23 
REMARK    8  A    between atoms: C_23  and  C_24 
REMARK    9  A    between atoms: C_27  and  C_28 
ROOT
ATOM      1  C   UNL d   1      28.275 -12.796   1.681  0.00  0.00     0.315 C 
ATOM      2  C   UNL d   1      27.950 -13.589   0.502  0.00  0.00     0.062 C 
ATOM      3  C   UNL d   1      29.092 -14.560   0.326  0.00  0.00     0.082 C 
ATOM      4  C   UNL d   1      29.633 -14.824   1.696  0.00  0.00     0.289 C 
ATOM      5  N   UNL d   1      29.011 -13.764   2.522  0.00  0.00     0.107 N 
ENDROOT
BRANCH   3   6
ATOM      6  S   UNL d   1      28.459 -15.738  -0.887  0.00  0.00    -0.116 SA
BRANCH   6   7
ATOM      7  C   UNL d   1      27.210 -16.366   0.293  0.00  0.00     0.247 C 
ATOM      8  N   UNL d   1      25.884 -15.674   0.106  0.00  0.00    -0.359 N 
ATOM      9  C   UNL d   1      25.039 -16.482  -0.257  0.00  0.00     0.057 C 
ATOM     10  H   UNL d   1      25.653 -14.665   0.086  0.00  0.00     0.162 HD
ATOM     11  C   UNL d   1      23.719 -16.185  -0.778  0.00  0.00     0.031 C 
ATOM     12  C   UNL d   1      25.585 -17.846  -0.063  0.00  0.00     0.057 C 
ATOM     13  C   UNL d   1      22.966 -17.275  -0.893  0.00  0.00     0.002 C 
ATOM     14  C   UNL d   1      23.426 -18.618  -0.548  0.00  0.00     0.002 C 
ATOM     15  C   UNL d   1      24.668 -18.950  -0.145  0.00  0.00     0.031 C 
ATOM     16  N   UNL d   1      26.823 -17.771   0.253  0.00  0.00    -0.359 N 
ATOM     17  H   UNL d   1      27.427 -18.533   0.573  0.00  0.00     0.162 HD
ENDBRANCH   6   7
ENDBRANCH   3   6
BRANCH   1  18
ATOM     18  C   UNL d   1      26.801 -12.242   1.891  0.00  0.00     0.251 C 
ATOM     19  N   UNL d   1      26.587 -10.996   2.565  0.00  0.00    -0.357 N 
ATOM     20  H   UNL d   1      27.404 -10.541   2.906  0.00  0.00     0.162 HD
ATOM     21  O   UNL d   1      25.902 -12.919   1.376  0.00  0.00    -0.271 OA
BRANCH  19  22
ATOM     22  C   UNL d   1      25.615  -9.874   2.195  0.00  0.00     0.148 C 
BRANCH  22  23
ATOM     23  C   UNL d   1      26.120  -8.432   2.480  0.00  0.00     0.186 C 
BRANCH  23  24
ATOM     24  O   UNL d   1      27.004  -8.490   3.603  0.00  0.00    -0.394 OA
ATOM     25  C   UNL d   1      28.339  -8.169   3.238  0.00  0.00     0.201 C 
ENDBRANCH  23  24
ENDBRANCH  22  23
ENDBRANCH  19  22
ENDBRANCH   1  18
BRANCH   5  26
ATOM     26  C   UNL d   1      28.204 -14.336   3.566  0.00  0.00     0.312 C 
BRANCH  26  27
ATOM     27  C   UNL d   1      28.531 -13.705   4.920  0.00  0.00    -0.030 A 
ATOM     28  C   UNL d   1      28.062 -12.477   5.458  0.00  0.00     0.010 A 
ATOM     29  C   UNL d   1      28.193 -11.926   6.696  0.00  0.00     0.017 A 
ATOM     30  C   UNL d   1      28.842 -12.702   7.579  0.00  0.00     0.047 A 
ATOM     31  C   UNL d   1      29.349 -13.952   7.159  0.00  0.00     0.017 A 
ATOM     32  C   UNL d   1      29.240 -14.432   5.835  0.00  0.00     0.010 A 
BRANCH  30  33
ATOM     33  C   UNL d   1      28.896 -12.078   8.920  0.00  0.00     0.417 C 
ATOM     34  F   UNL d   1      29.946 -12.589   9.630  0.00  0.00    -0.166 F 
ATOM     35  F   UNL d   1      29.114 -10.735   8.872  0.00  0.00    -0.166 F 
ATOM     36  F   UNL d   1      27.779 -12.301   9.633  0.00  0.00    -0.166 F 
ENDBRANCH  30  33
ENDBRANCH  26  27
ENDBRANCH   5  26
TORSDOF 9
ENDMDL
