MODEL 1
REMARK VINA RESULT:   -31.965      0.000      0.000
REMARK INTER + INTRA:         -34.040
REMARK INTER:                 -33.456
REMARK INTRA:                  -0.584
REMARK CONF_INDEPENDENT:        1.492
REMARK UNBOUND:                -0.584
REMARK  5 active torsions:
REMARK  status: ('A' for Active; 'I' for Inactive)
REMARK    1  A    between atoms: C_8  and  C_9 
REMARK    2  A    between atoms: C_9  and  C_10 
REMARK    3  A    between atoms: C_10  and  N_11 
REMARK       I    between atoms: N_11  and  C_12 
REMARK    4  A    between atoms: C_12  and  C_14 
REMARK    5  A    between atoms: N_17  and  C_18 
ROOT
ATOM      1  N   UNL d   1      26.873 -15.069   0.608  0.00  0.00    -0.360 N 
ATOM      2  C   UNL d   1      26.597 -16.110  -0.250  0.00  0.00     0.221 C 
ATOM      3  O   UNL d   1      27.533 -16.562  -0.924  0.00  0.00    -0.273 OA
ATOM      4  H   UNL d   1      26.136 -14.591   1.111  0.00  0.00     0.162 HD
ENDROOT
BRANCH   2   5
ATOM      5  C   UNL d   1      25.162 -16.618  -0.555  0.00  0.00     0.081 C 
ATOM      6  C   UNL d   1      24.006 -15.983  -1.337  0.00  0.00     0.033 C 
ATOM      7  C   UNL d   1      22.631 -16.715  -0.834  0.00  0.00     0.120 C 
ATOM      8  N   UNL d   1      22.611 -18.207  -0.784  0.00  0.00    -0.388 N 
ATOM      9  C   UNL d   1      23.876 -18.795  -0.396  0.00  0.00     0.120 C 
ATOM     10  C   UNL d   1      25.159 -18.097  -0.912  0.00  0.00     0.033 C 
BRANCH   8  11
ATOM     11  C   UNL d   1      21.349 -19.064  -0.577  0.00  0.00     0.228 C 
ATOM     12  N   UNL d   1      19.905 -19.221  -1.195  0.00  0.00    -0.260 NA
ATOM     13  C   UNL d   1      19.080 -19.931  -0.211  0.00  0.00     0.046 C 
ATOM     14  H   UNL d   1      19.409 -18.432  -1.604  0.00  0.00     0.130 HD
ATOM     15  C   UNL d   1      17.914 -20.699  -0.388  0.00  0.00     0.028 C 
ATOM     16  C   UNL d   1      19.633 -20.000   1.066  0.00  0.00     0.117 C 
ATOM     17  C   UNL d   1      17.662 -21.738   0.547  0.00  0.00     0.021 C 
ATOM     18  C   UNL d   1      18.392 -21.779   1.728  0.00  0.00     0.118 C 
ATOM     19  N   UNL d   1      19.311 -20.857   2.051  0.00  0.00    -0.252 NA
ATOM     20  S   UNL d   1      21.025 -18.950   1.242  0.00  0.00    -0.068 SA
ENDBRANCH   8  11
ENDBRANCH   2   5
BRANCH   1  21
ATOM     21  C   UNL d   1      28.244 -14.547   0.630  0.00  0.00     0.127 C 
BRANCH  21  22
ATOM     22  C   UNL d   1      28.839 -14.384   2.027  0.00  0.00     0.056 C 
BRANCH  22  23
ATOM     23  C   UNL d   1      28.320 -13.199   2.793  0.00  0.00    -0.048 A 
ATOM     24  C   UNL d   1      28.450 -13.009   4.113  0.00  0.00    -0.005 A 
ATOM     25  C   UNL d   1      27.789 -11.716   4.385  0.00  0.00     0.038 A 
ATOM     26  C   UNL d   1      29.052 -13.772   5.150  0.00  0.00     0.020 A 
ATOM     27  C   UNL d   1      27.779 -11.244   5.791  0.00  0.00     0.030 A 
ATOM     28  N   UNL d   1      27.318 -11.193   3.343  0.00  0.00    -0.385 N 
ATOM     29  C   UNL d   1      28.370 -12.024   6.716  0.00  0.00     0.009 A 
ATOM     30  C   UNL d   1      29.019 -13.303   6.412  0.00  0.00    -0.061 A 
ATOM     31  C   UNL d   1      29.650 -14.100   7.516  0.00  0.00     0.048 C 
ATOM     32  C   UNL d   1      27.577 -12.052   2.164  0.00  0.00     0.155 A 
ATOM     33  H   UNL d   1      26.820 -10.293   3.321  0.00  0.00     0.160 HD
ENDBRANCH  22  23
ENDBRANCH  21  22
ENDBRANCH   1  21
TORSDOF 5
ENDMDL
MODEL 2
REMARK VINA RESULT:   -31.886      4.881      6.875
REMARK INTER + INTRA:         -33.634
REMARK INTER:                 -33.377
REMARK INTRA:                  -0.256
REMARK CONF_INDEPENDENT:        1.492
REMARK UNBOUND:                -0.256
REMARK  5 active torsions:
REMARK  status: ('A' for Active; 'I' for Inactive)
REMARK    1  A    between atoms: C_8  and  C_9 
REMARK    2  A    between atoms: C_9  and  C_10 
REMARK    3  A    between atoms: C_10  and  N_11 
REMARK       I    between atoms: N_11  and  C_12 
REMARK    4  A    between atoms: C_12  and  C_14 
REMARK    5  A    between atoms: N_17  and  C_18 
ROOT
ATOM      1  N   UNL d   1      25.459 -14.669  -3.038  0.00  0.00    -0.360 N 
ATOM      2  C   UNL d   1      25.777 -15.423  -1.931  0.00  0.00     0.221 C 
ATOM      3  O   UNL d   1      26.911 -15.290  -1.450  0.00  0.00    -0.273 OA
ATOM      4  H   UNL d   1      24.588 -14.804  -3.536  0.00  0.00     0.162 HD
ENDROOT
BRANCH   2   5
ATOM      5  C   UNL d   1      24.872 -16.555  -1.371  0.00  0.00     0.081 C 
ATOM      6  C   UNL d   1      25.214 -17.856  -0.638  0.00  0.00     0.033 C 
ATOM      7  C   UNL d   1      23.929 -18.856  -0.816  0.00  0.00     0.120 C 
ATOM      8  N   UNL d   1      22.572 -18.308  -0.525  0.00  0.00    -0.388 N 
ATOM      9  C   UNL d   1      22.410 -16.919  -0.900  0.00  0.00     0.120 C 
ATOM     10  C   UNL d   1      23.633 -15.992  -0.690  0.00  0.00     0.033 C 
BRANCH   8  11
ATOM     11  C   UNL d   1      21.290 -19.152  -0.400  0.00  0.00     0.228 C 
ATOM     12  N   UNL d   1      19.904 -19.325  -1.135  0.00  0.00    -0.260 NA
ATOM     13  C   UNL d   1      18.992 -19.997  -0.203  0.00  0.00     0.046 C 
ATOM     14  H   UNL d   1      19.451 -18.549  -1.613  0.00  0.00     0.130 HD
ATOM     15  C   UNL d   1      17.840 -20.766  -0.455  0.00  0.00     0.028 C 
ATOM     16  C   UNL d   1      19.431 -20.024   1.119  0.00  0.00     0.117 C 
ATOM     17  C   UNL d   1      17.500 -21.771   0.489  0.00  0.00     0.021 C 
ATOM     18  C   UNL d   1      18.125 -21.774   1.730  0.00  0.00     0.118 C 
ATOM     19  N   UNL d   1      19.019 -20.845   2.100  0.00  0.00    -0.252 NA
ATOM     20  S   UNL d   1      20.810 -18.975   1.379  0.00  0.00    -0.068 SA
ENDBRANCH   8  11
ENDBRANCH   2   5
BRANCH   1  21
ATOM     21  C   UNL d   1      26.500 -13.795  -3.590  0.00  0.00     0.127 C 
BRANCH  21  22
ATOM     22  C   UNL d   1      27.908 -14.388  -3.560  0.00  0.00     0.056 C 
BRANCH  22  23
ATOM     23  C   UNL d   1      28.490 -14.682  -4.915  0.00  0.00    -0.048 A 
ATOM     24  C   UNL d   1      29.376 -15.651  -5.187  0.00  0.00    -0.005 A 
ATOM     25  C   UNL d   1      29.634 -15.543  -6.637  0.00  0.00     0.038 A 
ATOM     26  C   UNL d   1      30.015 -16.636  -4.386  0.00  0.00     0.020 A 
ATOM     27  C   UNL d   1      30.593 -16.508  -7.227  0.00  0.00     0.030 A 
ATOM     28  N   UNL d   1      28.976 -14.613  -7.171  0.00  0.00    -0.385 N 
ATOM     29  C   UNL d   1      31.158 -17.411  -6.402  0.00  0.00     0.009 A 
ATOM     30  C   UNL d   1      30.878 -17.491  -4.966  0.00  0.00    -0.061 A 
ATOM     31  C   UNL d   1      31.561 -18.535  -4.130  0.00  0.00     0.048 C 
ATOM     32  C   UNL d   1      28.146 -13.916  -6.163  0.00  0.00     0.155 A 
ATOM     33  H   UNL d   1      29.016 -14.375  -8.171  0.00  0.00     0.160 HD
ENDBRANCH  22  23
ENDBRANCH  21  22
ENDBRANCH   1  21
TORSDOF 5
ENDMDL
MODEL 3
REMARK VINA RESULT:   -31.809      4.742      7.772
REMARK INTER + INTRA:         -34.112
REMARK INTER:                 -33.301
REMARK INTRA:                  -0.811
REMARK CONF_INDEPENDENT:        1.492
REMARK UNBOUND:                -0.811
REMARK  5 active torsions:
REMARK  status: ('A' for Active; 'I' for Inactive)
REMARK    1  A    between atoms: C_8  and  C_9 
REMARK    2  A    between atoms: C_9  and  C_10 
REMARK    3  A    between atoms: C_10  and  N_11 
REMARK       I    between atoms: N_11  and  C_12 
REMARK    4  A    between atoms: C_12  and  C_14 
REMARK    5  A    between atoms: N_17  and  C_18 
ROOT
ATOM      1  N   UNL d   1      28.813 -14.706  -3.288  0.00  0.00    -0.360 N 
ATOM      2  C   UNL d   1      27.680 -15.442  -3.553  0.00  0.00     0.221 C 
ATOM      3  O   UNL d   1      27.319 -15.535  -4.735  0.00  0.00    -0.273 OA
ATOM      4  H   UNL d   1      29.103 -14.510  -2.338  0.00  0.00     0.162 HD
ENDROOT
BRANCH   2   5
ATOM      5  C   UNL d   1      26.736 -15.998  -2.453  0.00  0.00     0.081 C 
ATOM      6  C   UNL d   1      27.018 -16.500  -1.033  0.00  0.00     0.033 C 
ATOM      7  C   UNL d   1      25.757 -17.452  -0.603  0.00  0.00     0.120 C 
ATOM      8  N   UNL d   1      24.378 -16.925  -0.821  0.00  0.00    -0.388 N 
ATOM      9  C   UNL d   1      24.244 -16.116  -2.014  0.00  0.00     0.120 C 
ATOM     10  C   UNL d   1      25.441 -15.202  -2.377  0.00  0.00     0.033 C 
BRANCH   8  11
ATOM     11  C   UNL d   1      23.094 -17.564  -0.261  0.00  0.00     0.228 C 
ATOM     12  N   UNL d   1      22.620 -18.352   1.022  0.00  0.00    -0.260 NA
ATOM     13  C   UNL d   1      21.370 -19.039   0.680  0.00  0.00     0.046 C 
ATOM     14  H   UNL d   1      23.252 -18.957   1.542  0.00  0.00     0.130 HD
ATOM     15  C   UNL d   1      20.326 -19.492   1.508  0.00  0.00     0.028 C 
ATOM     16  C   UNL d   1      21.094 -19.095  -0.685  0.00  0.00     0.117 C 
ATOM     17  C   UNL d   1      19.022 -19.557   0.949  0.00  0.00     0.021 C 
ATOM     18  C   UNL d   1      18.870 -19.450  -0.428  0.00  0.00     0.118 C 
ATOM     19  N   UNL d   1      19.905 -19.322  -1.270  0.00  0.00    -0.252 NA
ATOM     20  S   UNL d   1      22.467 -18.605  -1.657  0.00  0.00    -0.068 SA
ENDBRANCH   8  11
ENDBRANCH   2   5
BRANCH   1  21
ATOM     21  C   UNL d   1      29.484 -14.054  -4.418  0.00  0.00     0.127 C 
BRANCH  21  22
ATOM     22  C   UNL d   1      30.556 -14.905  -5.097  0.00  0.00     0.056 C 
BRANCH  22  23
ATOM     23  C   UNL d   1      30.740 -16.272  -4.498  0.00  0.00    -0.048 A 
ATOM     24  C   UNL d   1      30.813 -17.419  -5.187  0.00  0.00    -0.005 A 
ATOM     25  C   UNL d   1      30.999 -18.471  -4.167  0.00  0.00     0.038 A 
ATOM     26  C   UNL d   1      30.746 -17.726  -6.573  0.00  0.00     0.020 A 
ATOM     27  C   UNL d   1      31.114 -19.868  -4.650  0.00  0.00     0.030 A 
ATOM     28  N   UNL d   1      31.033 -18.003  -3.000  0.00  0.00    -0.385 N 
ATOM     29  C   UNL d   1      31.040 -20.078  -5.978  0.00  0.00     0.009 A 
ATOM     30  C   UNL d   1      30.855 -19.010  -6.965  0.00  0.00    -0.061 A 
ATOM     31  C   UNL d   1      30.785 -19.347  -8.426  0.00  0.00     0.048 C 
ATOM     32  C   UNL d   1      30.872 -16.532  -3.022  0.00  0.00     0.155 A 
ATOM     33  H   UNL d   1      31.155 -18.572  -2.151  0.00  0.00     0.160 HD
ENDBRANCH  22  23
ENDBRANCH  21  22
ENDBRANCH   1  21
TORSDOF 5
ENDMDL
MODEL 4
REMARK VINA RESULT:   -31.660      2.937      5.469
REMARK INTER + INTRA:         -34.601
REMARK INTER:                 -33.151
REMARK INTRA:                  -1.450
REMARK CONF_INDEPENDENT:        1.492
REMARK UNBOUND:                -1.450
REMARK  5 active torsions:
REMARK  status: ('A' for Active; 'I' for Inactive)
REMARK    1  A    between atoms: C_8  and  C_9 
REMARK    2  A    between atoms: C_9  and  C_10 
REMARK    3  A    between atoms: C_10  and  N_11 
REMARK       I    between atoms: N_11  and  C_12 
REMARK    4  A    between atoms: C_12  and  C_14 
REMARK    5  A    between atoms: N_17  and  C_18 
ROOT
ATOM      1  N   UNL d   1      26.777 -14.807   0.533  0.00  0.00    -0.360 N 
ATOM      2  C   UNL d   1      26.565 -16.040  -0.042  0.00  0.00     0.221 C 
ATOM      3  O   UNL d   1      27.559 -16.681  -0.412  0.00  0.00    -0.273 OA
ATOM      4  H   UNL d   1      26.006 -14.194   0.765  0.00  0.00     0.162 HD
ENDROOT
BRANCH   2   5
ATOM      5  C   UNL d   1      25.161 -16.585  -0.418  0.00  0.00     0.081 C 
ATOM      6  C   UNL d   1      24.086 -16.048  -1.369  0.00  0.00     0.033 C 
ATOM      7  C   UNL d   1      22.665 -16.724  -0.916  0.00  0.00     0.120 C 
ATOM      8  N   UNL d   1      22.632 -18.200  -0.699  0.00  0.00    -0.388 N 
ATOM      9  C   UNL d   1      23.852 -18.735  -0.131  0.00  0.00     0.120 C 
ATOM     10  C   UNL d   1      25.181 -18.095  -0.604  0.00  0.00     0.033 C 
BRANCH   8  11
ATOM     11  C   UNL d   1      21.351 -19.033  -0.513  0.00  0.00     0.228 C 
ATOM     12  N   UNL d   1      19.905 -19.146  -1.138  0.00  0.00    -0.260 NA
ATOM     13  C   UNL d   1      19.062 -19.858  -0.171  0.00  0.00     0.046 C 
ATOM     14  H   UNL d   1      19.427 -18.339  -1.531  0.00  0.00     0.130 HD
ATOM     15  C   UNL d   1      17.880 -20.596  -0.367  0.00  0.00     0.028 C 
ATOM     16  C   UNL d   1      19.609 -19.965   1.106  0.00  0.00     0.117 C 
ATOM     17  C   UNL d   1      17.602 -21.648   0.547  0.00  0.00     0.021 C 
ATOM     18  C   UNL d   1      18.328 -21.729   1.728  0.00  0.00     0.118 C 
ATOM     19  N   UNL d   1      19.265 -20.835   2.072  0.00  0.00    -0.252 NA
ATOM     20  S   UNL d   1      21.023 -18.950   1.307  0.00  0.00    -0.068 SA
ENDBRANCH   8  11
ENDBRANCH   2   5
BRANCH   1  21
ATOM     21  C   UNL d   1      28.160 -14.326   0.626  0.00  0.00     0.127 C 
BRANCH  21  22
ATOM     22  C   UNL d   1      28.597 -13.425  -0.529  0.00  0.00     0.056 C 
BRANCH  22  23
ATOM     23  C   UNL d   1      28.731 -14.126  -1.852  0.00  0.00    -0.048 A 
ATOM     24  C   UNL d   1      27.757 -14.260  -2.762  0.00  0.00    -0.005 A 
ATOM     25  C   UNL d   1      28.371 -15.009  -3.878  0.00  0.00     0.038 A 
ATOM     26  C   UNL d   1      26.400 -13.840  -2.802  0.00  0.00     0.020 A 
ATOM     27  C   UNL d   1      27.509 -15.307  -5.047  0.00  0.00     0.030 A 
ATOM     28  N   UNL d   1      29.577 -15.290  -3.657  0.00  0.00    -0.385 N 
ATOM     29  C   UNL d   1      26.234 -14.876  -5.010  0.00  0.00     0.009 A 
ATOM     30  C   UNL d   1      25.655 -14.134  -3.885  0.00  0.00    -0.061 A 
ATOM     31  C   UNL d   1      24.220 -13.697  -3.939  0.00  0.00     0.048 C 
ATOM     32  C   UNL d   1      29.999 -14.777  -2.334  0.00  0.00     0.155 A 
ATOM     33  H   UNL d   1      30.180 -15.807  -4.311  0.00  0.00     0.160 HD
ENDBRANCH  22  23
ENDBRANCH  21  22
ENDBRANCH   1  21
TORSDOF 5
ENDMDL
MODEL 5
REMARK VINA RESULT:   -31.424      4.007      6.644
REMARK INTER + INTRA:         -33.609
REMARK INTER:                 -32.916
REMARK INTRA:                  -0.694
REMARK CONF_INDEPENDENT:        1.492
REMARK UNBOUND:                -0.694
REMARK  5 active torsions:
REMARK  status: ('A' for Active; 'I' for Inactive)
REMARK    1  A    between atoms: C_8  and  C_9 
REMARK    2  A    between atoms: C_9  and  C_10 
REMARK    3  A    between atoms: C_10  and  N_11 
REMARK       I    between atoms: N_11  and  C_12 
REMARK    4  A    between atoms: C_12  and  C_14 
REMARK    5  A    between atoms: N_17  and  C_18 
ROOT
ATOM      1  N   UNL d   1      27.581 -15.879  -1.171  0.00  0.00    -0.360 N 
ATOM      2  C   UNL d   1      26.693 -16.288  -0.202  0.00  0.00     0.221 C 
ATOM      3  O   UNL d   1      27.129 -16.445   0.948  0.00  0.00    -0.273 OA
ATOM      4  H   UNL d   1      27.311 -15.829  -2.146  0.00  0.00     0.162 HD
ENDROOT
BRANCH   2   5
ATOM      5  C   UNL d   1      25.238 -16.740  -0.502  0.00  0.00     0.081 C 
ATOM      6  C   UNL d   1      24.091 -16.041  -1.240  0.00  0.00     0.033 C 
ATOM      7  C   UNL d   1      22.701 -16.748  -0.741  0.00  0.00     0.120 C 
ATOM      8  N   UNL d   1      22.635 -18.240  -0.745  0.00  0.00    -0.388 N 
ATOM      9  C   UNL d   1      23.887 -18.880  -0.400  0.00  0.00     0.120 C 
ATOM     10  C   UNL d   1      25.183 -18.204  -0.913  0.00  0.00     0.033 C 
BRANCH   8  11
ATOM     11  C   UNL d   1      21.350 -19.064  -0.549  0.00  0.00     0.228 C 
ATOM     12  N   UNL d   1      19.905 -19.180  -1.174  0.00  0.00    -0.260 NA
ATOM     13  C   UNL d   1      19.057 -19.873  -0.198  0.00  0.00     0.046 C 
ATOM     14  H   UNL d   1      19.432 -18.377  -1.582  0.00  0.00     0.130 HD
ATOM     15  C   UNL d   1      17.872 -20.609  -0.384  0.00  0.00     0.028 C 
ATOM     16  C   UNL d   1      19.602 -19.962   1.082  0.00  0.00     0.117 C 
ATOM     17  C   UNL d   1      17.588 -21.645   0.545  0.00  0.00     0.021 C 
ATOM     18  C   UNL d   1      18.311 -21.710   1.729  0.00  0.00     0.118 C 
ATOM     19  N   UNL d   1      19.252 -20.815   2.061  0.00  0.00    -0.252 NA
ATOM     20  S   UNL d   1      21.020 -18.950   1.269  0.00  0.00    -0.068 SA
ENDBRANCH   8  11
ENDBRANCH   2   5
BRANCH   1  21
ATOM     21  C   UNL d   1      28.984 -15.700  -0.780  0.00  0.00     0.127 C 
BRANCH  21  22
ATOM     22  C   UNL d   1      29.977 -16.548  -1.572  0.00  0.00     0.056 C 
BRANCH  22  23
ATOM     23  C   UNL d   1      29.979 -16.288  -3.053  0.00  0.00    -0.048 A 
ATOM     24  C   UNL d   1      30.277 -17.189  -4.000  0.00  0.00    -0.005 A 
ATOM     25  C   UNL d   1      30.134 -16.465  -5.280  0.00  0.00     0.038 A 
ATOM     26  C   UNL d   1      30.658 -18.557  -3.955  0.00  0.00     0.020 A 
ATOM     27  C   UNL d   1      30.407 -17.228  -6.522  0.00  0.00     0.030 A 
ATOM     28  N   UNL d   1      29.790 -15.267  -5.115  0.00  0.00    -0.385 N 
ATOM     29  C   UNL d   1      30.764 -18.520  -6.396  0.00  0.00     0.009 A 
ATOM     30  C   UNL d   1      30.895 -19.209  -5.108  0.00  0.00    -0.061 A 
ATOM     31  C   UNL d   1      31.300 -20.654  -5.074  0.00  0.00     0.048 C 
ATOM     32  C   UNL d   1      29.638 -14.961  -3.674  0.00  0.00     0.155 A 
ATOM     33  H   UNL d   1      29.638 -14.597  -5.881  0.00  0.00     0.160 HD
ENDBRANCH  22  23
ENDBRANCH  21  22
ENDBRANCH   1  21
TORSDOF 5
ENDMDL
MODEL 6
REMARK VINA RESULT:   -31.297      4.969      7.080
REMARK INTER + INTRA:         -34.051
REMARK INTER:                 -32.789
REMARK INTRA:                  -1.262
REMARK CONF_INDEPENDENT:        1.492
REMARK UNBOUND:                -1.262
REMARK  5 active torsions:
REMARK  status: ('A' for Active; 'I' for Inactive)
REMARK    1  A    between atoms: C_8  and  C_9 
REMARK    2  A    between atoms: C_9  and  C_10 
REMARK    3  A    between atoms: C_10  and  N_11 
REMARK       I    between atoms: N_11  and  C_12 
REMARK    4  A    between atoms: C_12  and  C_14 
REMARK    5  A    between atoms: N_17  and  C_18 
ROOT
ATOM      1  N   UNL d   1      28.424 -14.336  -3.632  0.00  0.00    -0.360 N 
ATOM      2  C   UNL d   1      27.388 -15.212  -3.867  0.00  0.00     0.221 C 
ATOM      3  O   UNL d   1      27.021 -15.367  -5.041  0.00  0.00    -0.273 OA
ATOM      4  H   UNL d   1      28.703 -14.091  -2.690  0.00  0.00     0.162 HD
ENDROOT
BRANCH   2   5
ATOM      5  C   UNL d   1      26.539 -15.865  -2.743  0.00  0.00     0.081 C 
ATOM      6  C   UNL d   1      26.947 -16.587  -1.454  0.00  0.00     0.033 C 
ATOM      7  C   UNL d   1      25.675 -17.514  -1.003  0.00  0.00     0.120 C 
ATOM      8  N   UNL d   1      24.325 -16.878  -0.967  0.00  0.00    -0.388 N 
ATOM      9  C   UNL d   1      24.115 -15.894  -2.008  0.00  0.00     0.120 C 
ATOM     10  C   UNL d   1      25.329 -15.012  -2.391  0.00  0.00     0.033 C 
BRANCH   8  11
ATOM     11  C   UNL d   1      23.070 -17.512  -0.341  0.00  0.00     0.228 C 
ATOM     12  N   UNL d   1      22.654 -18.272   0.979  0.00  0.00    -0.260 NA
ATOM     13  C   UNL d   1      21.398 -18.978   0.704  0.00  0.00     0.046 C 
ATOM     14  H   UNL d   1      23.311 -18.857   1.490  0.00  0.00     0.130 HD
ATOM     15  C   UNL d   1      20.391 -19.418   1.584  0.00  0.00     0.028 C 
ATOM     16  C   UNL d   1      21.070 -19.071  -0.647  0.00  0.00     0.117 C 
ATOM     17  C   UNL d   1      19.067 -19.508   1.078  0.00  0.00     0.021 C 
ATOM     18  C   UNL d   1      18.860 -19.438  -0.294  0.00  0.00     0.118 C 
ATOM     19  N   UNL d   1      19.861 -19.323  -1.179  0.00  0.00    -0.252 NA
ATOM     20  S   UNL d   1      22.399 -18.595  -1.684  0.00  0.00    -0.068 SA
ENDBRANCH   8  11
ENDBRANCH   2   5
BRANCH   1  21
ATOM     21  C   UNL d   1      28.989 -13.622  -4.782  0.00  0.00     0.127 C 
BRANCH  21  22
ATOM     22  C   UNL d   1      30.392 -14.073  -5.183  0.00  0.00     0.056 C 
BRANCH  22  23
ATOM     23  C   UNL d   1      30.486 -15.510  -5.615  0.00  0.00    -0.048 A 
ATOM     24  C   UNL d   1      30.590 -16.563  -4.793  0.00  0.00    -0.005 A 
ATOM     25  C   UNL d   1      30.645 -17.743  -5.681  0.00  0.00     0.038 A 
ATOM     26  C   UNL d   1      30.646 -16.691  -3.379  0.00  0.00     0.020 A 
ATOM     27  C   UNL d   1      30.763 -19.072  -5.033  0.00  0.00     0.030 A 
ATOM     28  N   UNL d   1      30.582 -17.428  -6.896  0.00  0.00    -0.385 N 
ATOM     29  C   UNL d   1      30.811 -19.109  -3.688  0.00  0.00     0.009 A 
ATOM     30  C   UNL d   1      30.753 -17.918  -2.835  0.00  0.00    -0.061 A 
ATOM     31  C   UNL d   1      30.815 -18.066  -1.342  0.00  0.00     0.048 C 
ATOM     32  C   UNL d   1      30.473 -15.959  -7.051  0.00  0.00     0.155 A 
ATOM     33  H   UNL d   1      30.605 -18.104  -7.672  0.00  0.00     0.160 HD
ENDBRANCH  22  23
ENDBRANCH  21  22
ENDBRANCH   1  21
TORSDOF 5
ENDMDL
MODEL 7
REMARK VINA RESULT:   -31.204      5.012      7.523
REMARK INTER + INTRA:         -33.661
REMARK INTER:                 -32.696
REMARK INTRA:                  -0.965
REMARK CONF_INDEPENDENT:        1.492
REMARK UNBOUND:                -0.965
REMARK  5 active torsions:
REMARK  status: ('A' for Active; 'I' for Inactive)
REMARK    1  A    between atoms: C_8  and  C_9 
REMARK    2  A    between atoms: C_9  and  C_10 
REMARK    3  A    between atoms: C_10  and  N_11 
REMARK       I    between atoms: N_11  and  C_12 
REMARK    4  A    between atoms: C_12  and  C_14 
REMARK    5  A    between atoms: N_17  and  C_18 
ROOT
ATOM      1  N   UNL d   1      28.900 -14.934  -3.406  0.00  0.00    -0.360 N 
ATOM      2  C   UNL d   1      27.681 -15.521  -3.660  0.00  0.00     0.221 C 
ATOM      3  O   UNL d   1      27.239 -15.453  -4.816  0.00  0.00    -0.273 OA
ATOM      4  H   UNL d   1      29.268 -14.868  -2.465  0.00  0.00     0.162 HD
ENDROOT
BRANCH   2   5
ATOM      5  C   UNL d   1      26.753 -16.094  -2.554  0.00  0.00     0.081 C 
ATOM      6  C   UNL d   1      27.065 -16.688  -1.176  0.00  0.00     0.033 C 
ATOM      7  C   UNL d   1      25.776 -17.603  -0.748  0.00  0.00     0.120 C 
ATOM      8  N   UNL d   1      24.417 -17.000  -0.880  0.00  0.00    -0.388 N 
ATOM      9  C   UNL d   1      24.277 -16.118  -2.020  0.00  0.00     0.120 C 
ATOM     10  C   UNL d   1      25.503 -15.243  -2.381  0.00  0.00     0.033 C 
BRANCH   8  11
ATOM     11  C   UNL d   1      23.125 -17.608  -0.304  0.00  0.00     0.228 C 
ATOM     12  N   UNL d   1      22.646 -18.370   0.993  0.00  0.00    -0.260 NA
ATOM     13  C   UNL d   1      21.382 -19.040   0.668  0.00  0.00     0.046 C 
ATOM     14  H   UNL d   1      23.270 -18.977   1.519  0.00  0.00     0.130 HD
ATOM     15  C   UNL d   1      20.335 -19.462   1.509  0.00  0.00     0.028 C 
ATOM     16  C   UNL d   1      21.097 -19.110  -0.694  0.00  0.00     0.117 C 
ATOM     17  C   UNL d   1      19.027 -19.512   0.958  0.00  0.00     0.021 C 
ATOM     18  C   UNL d   1      18.868 -19.422  -0.419  0.00  0.00     0.118 C 
ATOM     19  N   UNL d   1      19.901 -19.325  -1.268  0.00  0.00    -0.252 NA
ATOM     20  S   UNL d   1      22.473 -18.658  -1.681  0.00  0.00    -0.068 SA
ENDBRANCH   8  11
ENDBRANCH   2   5
BRANCH   1  21
ATOM     21  C   UNL d   1      29.565 -14.235  -4.512  0.00  0.00     0.127 C 
BRANCH  21  22
ATOM     22  C   UNL d   1      29.548 -12.712  -4.402  0.00  0.00     0.056 C 
BRANCH  22  23
ATOM     23  C   UNL d   1      28.222 -12.077  -4.717  0.00  0.00    -0.048 A 
ATOM     24  C   UNL d   1      27.811 -11.702  -5.936  0.00  0.00    -0.005 A 
ATOM     25  C   UNL d   1      26.458 -11.144  -5.733  0.00  0.00     0.038 A 
ATOM     26  C   UNL d   1      28.409 -11.757  -7.224  0.00  0.00     0.020 A 
ATOM     27  C   UNL d   1      25.747 -10.641  -6.933  0.00  0.00     0.030 A 
ATOM     28  N   UNL d   1      26.103 -11.182  -4.527  0.00  0.00    -0.385 N 
ATOM     29  C   UNL d   1      26.381 -10.728  -8.117  0.00  0.00     0.009 A 
ATOM     30  C   UNL d   1      27.725 -11.288  -8.285  0.00  0.00    -0.061 A 
ATOM     31  C   UNL d   1      28.348 -11.340  -9.650  0.00  0.00     0.048 C 
ATOM     32  C   UNL d   1      27.166 -11.779  -3.688  0.00  0.00     0.155 A 
ATOM     33  H   UNL d   1      25.196 -10.842  -4.179  0.00  0.00     0.160 HD
ENDBRANCH  22  23
ENDBRANCH  21  22
ENDBRANCH   1  21
TORSDOF 5
ENDMDL
MODEL 8
REMARK VINA RESULT:   -31.067      1.432      2.021
REMARK INTER + INTRA:         -33.634
REMARK INTER:                 -32.559
REMARK INTRA:                  -1.075
REMARK CONF_INDEPENDENT:        1.492
REMARK UNBOUND:                -1.075
REMARK  5 active torsions:
REMARK  status: ('A' for Active; 'I' for Inactive)
REMARK    1  A    between atoms: C_8  and  C_9 
REMARK    2  A    between atoms: C_9  and  C_10 
REMARK    3  A    between atoms: C_10  and  N_11 
REMARK       I    between atoms: N_11  and  C_12 
REMARK    4  A    between atoms: C_12  and  C_14 
REMARK    5  A    between atoms: N_17  and  C_18 
ROOT
ATOM      1  N   UNL d   1      27.689 -16.114  -1.110  0.00  0.00    -0.360 N 
ATOM      2  C   UNL d   1      26.722 -16.340  -0.156  0.00  0.00     0.221 C 
ATOM      3  O   UNL d   1      27.075 -16.343   1.032  0.00  0.00    -0.273 OA
ATOM      4  H   UNL d   1      27.484 -16.197  -2.098  0.00  0.00     0.162 HD
ENDROOT
BRANCH   2   5
ATOM      5  C   UNL d   1      25.268 -16.772  -0.489  0.00  0.00     0.081 C 
ATOM      6  C   UNL d   1      24.150 -16.062  -1.260  0.00  0.00     0.033 C 
ATOM      7  C   UNL d   1      22.738 -16.745  -0.791  0.00  0.00     0.120 C 
ATOM      8  N   UNL d   1      22.650 -18.236  -0.787  0.00  0.00    -0.388 N 
ATOM      9  C   UNL d   1      23.883 -18.892  -0.406  0.00  0.00     0.120 C 
ATOM     10  C   UNL d   1      25.201 -18.239  -0.891  0.00  0.00     0.033 C 
BRANCH   8  11
ATOM     11  C   UNL d   1      21.348 -19.039  -0.617  0.00  0.00     0.228 C 
ATOM     12  N   UNL d   1      19.905 -19.114  -1.253  0.00  0.00    -0.260 NA
ATOM     13  C   UNL d   1      19.038 -19.812  -0.298  0.00  0.00     0.046 C 
ATOM     14  H   UNL d   1      19.450 -18.293  -1.645  0.00  0.00     0.130 HD
ATOM     15  C   UNL d   1      17.841 -20.522  -0.508  0.00  0.00     0.028 C 
ATOM     16  C   UNL d   1      19.573 -19.941   0.983  0.00  0.00     0.117 C 
ATOM     17  C   UNL d   1      17.531 -21.573   0.396  0.00  0.00     0.021 C 
ATOM     18  C   UNL d   1      18.246 -21.679   1.582  0.00  0.00     0.118 C 
ATOM     19  N   UNL d   1      19.201 -20.809   1.940  0.00  0.00    -0.252 NA
ATOM     20  S   UNL d   1      21.009 -18.961   1.201  0.00  0.00    -0.068 SA
ENDBRANCH   8  11
ENDBRANCH   2   5
BRANCH   1  21
ATOM     21  C   UNL d   1      29.071 -15.935  -0.651  0.00  0.00     0.127 C 
BRANCH  21  22
ATOM     22  C   UNL d   1      29.617 -14.518  -0.820  0.00  0.00     0.056 C 
BRANCH  22  23
ATOM     23  C   UNL d   1      28.775 -13.444  -0.189  0.00  0.00    -0.048 A 
ATOM     24  C   UNL d   1      28.431 -13.387   1.105  0.00  0.00    -0.005 A 
ATOM     25  C   UNL d   1      27.617 -12.162   1.235  0.00  0.00     0.038 A 
ATOM     26  C   UNL d   1      28.703 -14.224   2.221  0.00  0.00     0.020 A 
ATOM     27  C   UNL d   1      27.090 -11.839   2.584  0.00  0.00     0.030 A 
ATOM     28  N   UNL d   1      27.489 -11.556   0.140  0.00  0.00    -0.385 N 
ATOM     29  C   UNL d   1      27.390 -12.683   3.590  0.00  0.00     0.009 A 
ATOM     30  C   UNL d   1      28.203 -13.892   3.427  0.00  0.00    -0.061 A 
ATOM     31  C   UNL d   1      28.482 -14.769   4.613  0.00  0.00     0.048 C 
ATOM     32  C   UNL d   1      28.202 -12.274  -0.940  0.00  0.00     0.155 A 
ATOM     33  H   UNL d   1      26.958 -10.683   0.020  0.00  0.00     0.160 HD
ENDBRANCH  22  23
ENDBRANCH  21  22
ENDBRANCH   1  21
TORSDOF 5
ENDMDL
MODEL 9
REMARK VINA RESULT:   -30.954      4.552      5.752
REMARK INTER + INTRA:         -33.724
REMARK INTER:                 -32.446
REMARK INTRA:                  -1.278
REMARK CONF_INDEPENDENT:        1.492
REMARK UNBOUND:                -1.278
REMARK  5 active torsions:
REMARK  status: ('A' for Active; 'I' for Inactive)
REMARK    1  A    between atoms: C_8  and  C_9 
REMARK    2  A    between atoms: C_9  and  C_10 
REMARK    3  A    between atoms: C_10  and  N_11 
REMARK       I    between atoms: N_11  and  C_12 
REMARK    4  A    between atoms: C_12  and  C_14 
REMARK    5  A    between atoms: N_17  and  C_18 
ROOT
ATOM      1  N   UNL d   1      27.305 -15.285  -4.786  0.00  0.00    -0.360 N 
ATOM      2  C   UNL d   1      27.557 -15.252  -3.433  0.00  0.00     0.221 C 
ATOM      3  O   UNL d   1      28.641 -14.778  -3.062  0.00  0.00    -0.273 OA
ATOM      4  H   UNL d   1      26.485 -15.748  -5.158  0.00  0.00     0.162 HD
ENDROOT
BRANCH   2   5
ATOM      5  C   UNL d   1      26.655 -15.937  -2.371  0.00  0.00     0.081 C 
ATOM      6  C   UNL d   1      26.998 -16.673  -1.072  0.00  0.00     0.033 C 
ATOM      7  C   UNL d   1      25.718 -17.627  -0.711  0.00  0.00     0.120 C 
ATOM      8  N   UNL d   1      24.357 -17.014  -0.745  0.00  0.00    -0.388 N 
ATOM      9  C   UNL d   1      24.192 -16.017  -1.782  0.00  0.00     0.120 C 
ATOM     10  C   UNL d   1      25.412 -15.109  -2.079  0.00  0.00     0.033 C 
BRANCH   8  11
ATOM     11  C   UNL d   1      23.078 -17.679  -0.204  0.00  0.00     0.228 C 
ATOM     12  N   UNL d   1      22.624 -18.555   1.028  0.00  0.00    -0.260 NA
ATOM     13  C   UNL d   1      21.358 -19.202   0.664  0.00  0.00     0.046 C 
ATOM     14  H   UNL d   1      23.260 -19.203   1.487  0.00  0.00     0.130 HD
ATOM     15  C   UNL d   1      20.328 -19.704   1.481  0.00  0.00     0.028 C 
ATOM     16  C   UNL d   1      21.052 -19.154  -0.694  0.00  0.00     0.117 C 
ATOM     17  C   UNL d   1      19.011 -19.713   0.949  0.00  0.00     0.021 C 
ATOM     18  C   UNL d   1      18.829 -19.503  -0.412  0.00  0.00     0.118 C 
ATOM     19  N   UNL d   1      19.847 -19.324  -1.266  0.00  0.00    -0.252 NA
ATOM     20  S   UNL d   1      22.409 -18.607  -1.659  0.00  0.00    -0.068 SA
ENDBRANCH   8  11
ENDBRANCH   2   5
BRANCH   1  21
ATOM     21  C   UNL d   1      28.353 -14.795  -5.688  0.00  0.00     0.127 C 
BRANCH  21  22
ATOM     22  C   UNL d   1      28.216 -13.325  -6.083  0.00  0.00     0.056 C 
BRANCH  22  23
ATOM     23  C   UNL d   1      27.413 -12.493  -5.121  0.00  0.00    -0.048 A 
ATOM     24  C   UNL d   1      27.898 -11.878  -4.034  0.00  0.00    -0.005 A 
ATOM     25  C   UNL d   1      26.738 -11.194  -3.428  0.00  0.00     0.038 A 
ATOM     26  C   UNL d   1      29.195 -11.800  -3.459  0.00  0.00     0.020 A 
ATOM     27  C   UNL d   1      26.983 -10.418  -2.188  0.00  0.00     0.030 A 
ATOM     28  N   UNL d   1      25.679 -11.380  -4.081  0.00  0.00    -0.385 N 
ATOM     29  C   UNL d   1      28.240 -10.393  -1.705  0.00  0.00     0.009 A 
ATOM     30  C   UNL d   1      29.370 -11.083  -2.332  0.00  0.00    -0.061 A 
ATOM     31  C   UNL d   1      30.735 -10.995  -1.714  0.00  0.00     0.048 C 
ATOM     32  C   UNL d   1      25.937 -12.237  -5.260  0.00  0.00     0.155 A 
ATOM     33  H   UNL d   1      24.763 -10.989  -3.823  0.00  0.00     0.160 HD
ENDBRANCH  22  23
ENDBRANCH  21  22
ENDBRANCH   1  21
TORSDOF 5
ENDMDL
