MODEL 1
REMARK VINA RESULT:    -9.333      0.000      0.000
REMARK INTER + INTRA:         -11.864
REMARK INTER:                 -10.227
REMARK INTRA:                  -1.636
REMARK CONF_INDEPENDENT:        0.895
REMARK UNBOUND:                -1.636
REMARK  3 active torsions:
REMARK  status: ('A' for Active; 'I' for Inactive)
REMARK    1  A    between atoms: C_3  and  C_4 
REMARK       I    between atoms: C_4  and  N_6 
REMARK    2  A    between atoms: N_6  and  N_7 
REMARK       I    between atoms: N_7  and  C_8 
REMARK    3  A    between atoms: C_8  and  C_10 
ROOT
ATOM      1  C   UNL d   1      24.520 -17.965  -0.469  0.00  0.00     0.294 C 
ATOM      2  O   UNL d   1      24.920 -18.533   0.555  0.00  0.00    -0.264 OA
ATOM      3  N   UNL d   1      23.204 -18.157  -0.891  0.00  0.00    -0.261 N 
ATOM      4  H   UNL d   1      22.810 -17.748  -1.719  0.00  0.00     0.190 HD
ENDROOT
BRANCH   3   5
ATOM      5  N   UNL d   1      22.263 -18.958  -0.213  0.00  0.00    -0.263 N 
ATOM      6  C   UNL d   1      20.913 -18.715  -0.466  0.00  0.00     0.273 C 
ATOM      7  O   UNL d   1      20.525 -17.865  -1.267  0.00  0.00    -0.266 OA
ATOM      8  H   UNL d   1      22.616 -19.660   0.433  0.00  0.00     0.190 HD
BRANCH   6   9
ATOM      9  C   UNL d   1      19.925 -19.560   0.249  0.00  0.00     0.072 A 
ATOM     10  C   UNL d   1      18.927 -20.251  -0.456  0.00  0.00     0.020 A 
ATOM     11  C   UNL d   1      18.021 -21.072   0.234  0.00  0.00     0.001 A 
ATOM     12  C   UNL d   1      18.090 -21.176   1.624  0.00  0.00     0.003 A 
ATOM     13  C   UNL d   1      19.051 -20.450   2.327  0.00  0.00     0.043 A 
ATOM     14  C   UNL d   1      19.961 -19.651   1.637  0.00  0.00     0.132 A 
ATOM     15  F   UNL d   1      20.864 -18.956   2.342  0.00  0.00    -0.205 F 
ENDBRANCH   6   9
ENDBRANCH   3   5
BRANCH   1  16
ATOM     16  C   UNL d   1      25.368 -17.074  -1.296  0.00  0.00     0.152 A 
ATOM     17  C   UNL d   1      26.717 -16.708  -1.259  0.00  0.00    -0.009 A 
ATOM     18  C   UNL d   1      27.812 -17.117  -0.350  0.00  0.00     0.052 C 
ATOM     19  C   UNL d   1      26.944 -15.802  -2.348  0.00  0.00     0.007 A 
ATOM     20  C   UNL d   1      28.073 -15.104  -2.828  0.00  0.00     0.015 A 
ATOM     21  C   UNL d   1      25.740 -15.670  -3.017  0.00  0.00     0.087 A 
ATOM     22  C   UNL d   1      27.961 -14.310  -3.973  0.00  0.00     0.001 A 
ATOM     23  C   UNL d   1      26.739 -14.202  -4.635  0.00  0.00     0.003 A 
ATOM     24  C   UNL d   1      25.595 -14.877  -4.166  0.00  0.00     0.038 A 
ATOM     25  O   UNL d   1      24.783 -16.423  -2.383  0.00  0.00    -0.304 OA
ENDBRANCH   1  16
TORSDOF 3
ENDMDL
MODEL 2
REMARK VINA RESULT:    -7.976      1.507      2.509
REMARK INTER + INTRA:          -9.798
REMARK INTER:                  -8.871
REMARK INTRA:                  -0.927
REMARK CONF_INDEPENDENT:        0.895
REMARK UNBOUND:                -0.927
REMARK  3 active torsions:
REMARK  status: ('A' for Active; 'I' for Inactive)
REMARK    1  A    between atoms: C_3  and  C_4 
REMARK       I    between atoms: C_4  and  N_6 
REMARK    2  A    between atoms: N_6  and  N_7 
REMARK       I    between atoms: N_7  and  C_8 
REMARK    3  A    between atoms: C_8  and  C_10 
ROOT
ATOM      1  C   UNL d   1      23.793 -16.788  -0.994  0.00  0.00     0.294 C 
ATOM      2  O   UNL d   1      22.712 -16.229  -1.218  0.00  0.00    -0.264 OA
ATOM      3  N   UNL d   1      23.825 -17.915  -0.170  0.00  0.00    -0.261 N 
ATOM      4  H   UNL d   1      24.662 -18.413   0.075  0.00  0.00     0.190 HD
ENDROOT
BRANCH   3   5
ATOM      5  N   UNL d   1      22.687 -18.490   0.430  0.00  0.00    -0.263 N 
ATOM      6  C   UNL d   1      21.692 -18.977  -0.418  0.00  0.00     0.273 C 
ATOM      7  O   UNL d   1      21.786 -18.949  -1.645  0.00  0.00    -0.266 OA
ATOM      8  H   UNL d   1      22.644 -18.508   1.446  0.00  0.00     0.190 HD
BRANCH   6   9
ATOM      9  C   UNL d   1      20.495 -19.581   0.217  0.00  0.00     0.072 A 
ATOM     10  C   UNL d   1      20.476 -19.865   1.592  0.00  0.00     0.020 A 
ATOM     11  C   UNL d   1      19.323 -20.406   2.181  0.00  0.00     0.001 A 
ATOM     12  C   UNL d   1      18.206 -20.694   1.397  0.00  0.00     0.003 A 
ATOM     13  C   UNL d   1      18.244 -20.458   0.023  0.00  0.00     0.043 A 
ATOM     14  C   UNL d   1      19.383 -19.903  -0.556  0.00  0.00     0.132 A 
ATOM     15  F   UNL d   1      19.393 -19.700  -1.881  0.00  0.00    -0.205 F 
ENDBRANCH   6   9
ENDBRANCH   3   5
BRANCH   1  16
ATOM     16  C   UNL d   1      25.086 -16.329  -1.555  0.00  0.00     0.152 A 
ATOM     17  C   UNL d   1      25.453 -15.314  -2.443  0.00  0.00    -0.009 A 
ATOM     18  C   UNL d   1      24.641 -14.294  -3.144  0.00  0.00     0.052 C 
ATOM     19  C   UNL d   1      26.879 -15.371  -2.592  0.00  0.00     0.007 A 
ATOM     20  C   UNL d   1      27.822 -14.626  -3.334  0.00  0.00     0.015 A 
ATOM     21  C   UNL d   1      27.326 -16.397  -1.777  0.00  0.00     0.087 A 
ATOM     22  C   UNL d   1      29.182 -14.923  -3.220  0.00  0.00     0.001 A 
ATOM     23  C   UNL d   1      29.608 -15.954  -2.384  0.00  0.00     0.003 A 
ATOM     24  C   UNL d   1      28.685 -16.721  -1.645  0.00  0.00     0.038 A 
ATOM     25  O   UNL d   1      26.252 -16.986  -1.159  0.00  0.00    -0.304 OA
ENDBRANCH   1  16
TORSDOF 3
ENDMDL
MODEL 3
REMARK VINA RESULT:    -6.859      5.232      9.632
REMARK INTER + INTRA:          -9.107
REMARK INTER:                  -7.754
REMARK INTRA:                  -1.353
REMARK CONF_INDEPENDENT:        0.895
REMARK UNBOUND:                -1.353
REMARK  3 active torsions:
REMARK  status: ('A' for Active; 'I' for Inactive)
REMARK    1  A    between atoms: C_3  and  C_4 
REMARK       I    between atoms: C_4  and  N_6 
REMARK    2  A    between atoms: N_6  and  N_7 
REMARK       I    between atoms: N_7  and  C_8 
REMARK    3  A    between atoms: C_8  and  C_10 
ROOT
ATOM      1  C   UNL d   1      25.204 -13.863  -3.528  0.00  0.00     0.294 C 
ATOM      2  O   UNL d   1      24.716 -14.075  -4.645  0.00  0.00    -0.264 OA
ATOM      3  N   UNL d   1      25.521 -12.555  -3.155  0.00  0.00    -0.261 N 
ATOM      4  H   UNL d   1      25.936 -12.303  -2.276  0.00  0.00     0.190 HD
ENDROOT
BRANCH   3   5
ATOM      5  N   UNL d   1      25.306 -11.425  -3.969  0.00  0.00    -0.263 N 
ATOM      6  C   UNL d   1      25.723 -10.189  -3.474  0.00  0.00     0.273 C 
ATOM      7  O   UNL d   1      26.288 -10.060  -2.387  0.00  0.00    -0.266 OA
ATOM      8  H   UNL d   1      24.847 -11.567  -4.865  0.00  0.00     0.190 HD
BRANCH   6   9
ATOM      9  C   UNL d   1      25.495  -9.002  -4.332  0.00  0.00     0.072 A 
ATOM     10  C   UNL d   1      25.273  -9.144  -5.711  0.00  0.00     0.020 A 
ATOM     11  C   UNL d   1      25.027  -8.011  -6.502  0.00  0.00     0.001 A 
ATOM     12  C   UNL d   1      25.035  -6.740  -5.927  0.00  0.00     0.003 A 
ATOM     13  C   UNL d   1      25.304  -6.597  -4.567  0.00  0.00     0.043 A 
ATOM     14  C   UNL d   1      25.530  -7.724  -3.779  0.00  0.00     0.132 A 
ATOM     15  F   UNL d   1      25.798  -7.553  -2.478  0.00  0.00    -0.205 F 
ENDBRANCH   6   9
ENDBRANCH   3   5
BRANCH   1  16
ATOM     16  C   UNL d   1      25.483 -14.930  -2.539  0.00  0.00     0.152 A 
ATOM     17  C   UNL d   1      26.586 -15.254  -1.743  0.00  0.00    -0.009 A 
ATOM     18  C   UNL d   1      27.906 -14.599  -1.598  0.00  0.00     0.052 C 
ATOM     19  C   UNL d   1      26.236 -16.415  -0.978  0.00  0.00     0.007 A 
ATOM     20  C   UNL d   1      26.909 -17.201  -0.017  0.00  0.00     0.015 A 
ATOM     21  C   UNL d   1      24.934 -16.740  -1.316  0.00  0.00     0.087 A 
ATOM     22  C   UNL d   1      26.249 -18.275   0.585  0.00  0.00     0.001 A 
ATOM     23  C   UNL d   1      24.933 -18.575   0.235  0.00  0.00     0.003 A 
ATOM     24  C   UNL d   1      24.246 -17.815  -0.732  0.00  0.00     0.038 A 
ATOM     25  O   UNL d   1      24.477 -15.859  -2.264  0.00  0.00    -0.304 OA
ENDBRANCH   1  16
TORSDOF 3
ENDMDL
MODEL 4
REMARK VINA RESULT:    -6.848      5.176      9.677
REMARK INTER + INTRA:          -9.138
REMARK INTER:                  -7.743
REMARK INTRA:                  -1.396
REMARK CONF_INDEPENDENT:        0.895
REMARK UNBOUND:                -1.396
REMARK  3 active torsions:
REMARK  status: ('A' for Active; 'I' for Inactive)
REMARK    1  A    between atoms: C_3  and  C_4 
REMARK       I    between atoms: C_4  and  N_6 
REMARK    2  A    between atoms: N_6  and  N_7 
REMARK       I    between atoms: N_7  and  C_8 
REMARK    3  A    between atoms: C_8  and  C_10 
ROOT
ATOM      1  C   UNL d   1      25.178 -13.878  -3.531  0.00  0.00     0.294 C 
ATOM      2  O   UNL d   1      24.676 -14.075  -4.645  0.00  0.00    -0.264 OA
ATOM      3  N   UNL d   1      25.528 -12.580  -3.156  0.00  0.00    -0.261 N 
ATOM      4  H   UNL d   1      25.956 -12.341  -2.280  0.00  0.00     0.190 HD
ENDROOT
BRANCH   3   5
ATOM      5  N   UNL d   1      25.333 -11.442  -3.964  0.00  0.00    -0.263 N 
ATOM      6  C   UNL d   1      25.800 -10.221  -3.476  0.00  0.00     0.273 C 
ATOM      7  O   UNL d   1      26.391 -10.113  -2.401  0.00  0.00    -0.266 OA
ATOM      8  H   UNL d   1      24.852 -11.567  -4.851  0.00  0.00     0.190 HD
BRANCH   6   9
ATOM      9  C   UNL d   1      25.594  -9.025  -4.328  0.00  0.00     0.072 A 
ATOM     10  C   UNL d   1      25.473  -7.748  -3.757  0.00  0.00     0.020 A 
ATOM     11  C   UNL d   1      25.311  -6.624  -4.581  0.00  0.00     0.001 A 
ATOM     12  C   UNL d   1      25.236  -6.776  -5.965  0.00  0.00     0.003 A 
ATOM     13  C   UNL d   1      25.307  -8.050  -6.528  0.00  0.00     0.043 A 
ATOM     14  C   UNL d   1      25.486  -9.163  -5.709  0.00  0.00     0.132 A 
ATOM     15  F   UNL d   1      25.538 -10.375  -6.279  0.00  0.00    -0.205 F 
ENDBRANCH   6   9
ENDBRANCH   3   5
BRANCH   1  16
ATOM     16  C   UNL d   1      25.440 -14.956  -2.548  0.00  0.00     0.152 A 
ATOM     17  C   UNL d   1      26.549 -15.323  -1.781  0.00  0.00    -0.009 A 
ATOM     18  C   UNL d   1      27.898 -14.722  -1.672  0.00  0.00     0.052 C 
ATOM     19  C   UNL d   1      26.173 -16.470  -1.005  0.00  0.00     0.007 A 
ATOM     20  C   UNL d   1      26.839 -17.281  -0.061  0.00  0.00     0.015 A 
ATOM     21  C   UNL d   1      24.850 -16.743  -1.309  0.00  0.00     0.087 A 
ATOM     22  C   UNL d   1      26.152 -18.328   0.560  0.00  0.00     0.001 A 
ATOM     23  C   UNL d   1      24.817 -18.575   0.244  0.00  0.00     0.003 A 
ATOM     24  C   UNL d   1      24.135 -17.789  -0.706  0.00  0.00     0.038 A 
ATOM     25  O   UNL d   1      24.405 -15.844  -2.246  0.00  0.00    -0.304 OA
ENDBRANCH   1  16
TORSDOF 3
ENDMDL
MODEL 5
REMARK VINA RESULT:    -6.502      4.945      9.969
REMARK INTER + INTRA:          -8.745
REMARK INTER:                  -7.397
REMARK INTRA:                  -1.349
REMARK CONF_INDEPENDENT:        0.895
REMARK UNBOUND:                -1.349
REMARK  3 active torsions:
REMARK  status: ('A' for Active; 'I' for Inactive)
REMARK    1  A    between atoms: C_3  and  C_4 
REMARK       I    between atoms: C_4  and  N_6 
REMARK    2  A    between atoms: N_6  and  N_7 
REMARK       I    between atoms: N_7  and  C_8 
REMARK    3  A    between atoms: C_8  and  C_10 
ROOT
ATOM      1  C   UNL d   1      24.862 -13.993  -3.818  0.00  0.00     0.294 C 
ATOM      2  O   UNL d   1      23.729 -13.771  -4.263  0.00  0.00    -0.264 OA
ATOM      3  N   UNL d   1      25.945 -13.253  -4.295  0.00  0.00    -0.261 N 
ATOM      4  H   UNL d   1      26.895 -13.385  -4.000  0.00  0.00     0.190 HD
ENDROOT
BRANCH   3   5
ATOM      5  N   UNL d   1      25.842 -12.231  -5.261  0.00  0.00    -0.263 N 
ATOM      6  C   UNL d   1      27.017 -11.825  -5.893  0.00  0.00     0.273 C 
ATOM      7  O   UNL d   1      28.112 -12.339  -5.663  0.00  0.00    -0.266 OA
ATOM      8  H   UNL d   1      24.921 -11.836  -5.437  0.00  0.00     0.190 HD
BRANCH   6   9
ATOM      9  C   UNL d   1      26.906 -10.750  -6.909  0.00  0.00     0.072 A 
ATOM     10  C   UNL d   1      27.243 -10.991  -8.251  0.00  0.00     0.020 A 
ATOM     11  C   UNL d   1      27.099  -9.972  -9.204  0.00  0.00     0.001 A 
ATOM     12  C   UNL d   1      26.655  -8.708  -8.816  0.00  0.00     0.003 A 
ATOM     13  C   UNL d   1      26.367  -8.456  -7.474  0.00  0.00     0.043 A 
ATOM     14  C   UNL d   1      26.492  -9.475  -6.533  0.00  0.00     0.132 A 
ATOM     15  F   UNL d   1      26.221  -9.198  -5.250  0.00  0.00    -0.205 F 
ENDBRANCH   6   9
ENDBRANCH   3   5
BRANCH   1  16
ATOM     16  C   UNL d   1      25.151 -15.019  -2.788  0.00  0.00     0.152 A 
ATOM     17  C   UNL d   1      26.326 -15.540  -2.239  0.00  0.00    -0.009 A 
ATOM     18  C   UNL d   1      27.748 -15.216  -2.498  0.00  0.00     0.052 C 
ATOM     19  C   UNL d   1      25.946 -16.521  -1.264  0.00  0.00     0.007 A 
ATOM     20  C   UNL d   1      26.660 -17.371  -0.392  0.00  0.00     0.015 A 
ATOM     21  C   UNL d   1      24.562 -16.545  -1.240  0.00  0.00     0.087 A 
ATOM     22  C   UNL d   1      25.963 -18.204   0.487  0.00  0.00     0.001 A 
ATOM     23  C   UNL d   1      24.569 -18.202   0.500  0.00  0.00     0.003 A 
ATOM     24  C   UNL d   1      23.834 -17.373  -0.371  0.00  0.00     0.038 A 
ATOM     25  O   UNL d   1      24.076 -15.652  -2.162  0.00  0.00    -0.304 OA
ENDBRANCH   1  16
TORSDOF 3
ENDMDL
MODEL 6
REMARK VINA RESULT:    -6.463      4.723     10.054
REMARK INTER + INTRA:          -8.737
REMARK INTER:                  -7.357
REMARK INTRA:                  -1.380
REMARK CONF_INDEPENDENT:        0.895
REMARK UNBOUND:                -1.380
REMARK  3 active torsions:
REMARK  status: ('A' for Active; 'I' for Inactive)
REMARK    1  A    between atoms: C_3  and  C_4 
REMARK       I    between atoms: C_4  and  N_6 
REMARK    2  A    between atoms: N_6  and  N_7 
REMARK       I    between atoms: N_7  and  C_8 
REMARK    3  A    between atoms: C_8  and  C_10 
ROOT
ATOM      1  C   UNL d   1      25.955 -14.062  -3.163  0.00  0.00     0.294 C 
ATOM      2  O   UNL d   1      25.792 -12.865  -2.891  0.00  0.00    -0.264 OA
ATOM      3  N   UNL d   1      26.675 -14.414  -4.305  0.00  0.00    -0.261 N 
ATOM      4  H   UNL d   1      26.834 -15.359  -4.604  0.00  0.00     0.190 HD
ENDROOT
BRANCH   3   5
ATOM      5  N   UNL d   1      27.262 -13.487  -5.190  0.00  0.00    -0.263 N 
ATOM      6  C   UNL d   1      27.958 -13.997  -6.285  0.00  0.00     0.273 C 
ATOM      7  O   UNL d   1      28.050 -15.203  -6.517  0.00  0.00    -0.266 OA
ATOM      8  H   UNL d   1      27.158 -12.497  -4.977  0.00  0.00     0.190 HD
BRANCH   6   9
ATOM      9  C   UNL d   1      28.575 -13.019  -7.214  0.00  0.00     0.072 A 
ATOM     10  C   UNL d   1      27.843 -11.917  -7.687  0.00  0.00     0.020 A 
ATOM     11  C   UNL d   1      28.453 -10.984  -8.539  0.00  0.00     0.001 A 
ATOM     12  C   UNL d   1      29.775 -11.166  -8.945  0.00  0.00     0.003 A 
ATOM     13  C   UNL d   1      30.485 -12.286  -8.513  0.00  0.00     0.043 A 
ATOM     14  C   UNL d   1      29.883 -13.202  -7.652  0.00  0.00     0.132 A 
ATOM     15  F   UNL d   1      30.587 -14.274  -7.266  0.00  0.00    -0.205 F 
ENDBRANCH   6   9
ENDBRANCH   3   5
BRANCH   1  16
ATOM     16  C   UNL d   1      25.421 -15.170  -2.336  0.00  0.00     0.152 A 
ATOM     17  C   UNL d   1      26.008 -16.221  -1.626  0.00  0.00    -0.009 A 
ATOM     18  C   UNL d   1      27.428 -16.593  -1.436  0.00  0.00     0.052 C 
ATOM     19  C   UNL d   1      24.948 -16.969  -1.014  0.00  0.00     0.007 A 
ATOM     20  C   UNL d   1      24.899 -18.114  -0.189  0.00  0.00     0.015 A 
ATOM     21  C   UNL d   1      23.764 -16.335  -1.352  0.00  0.00     0.087 A 
ATOM     22  C   UNL d   1      23.667 -18.575   0.283  0.00  0.00     0.001 A 
ATOM     23  C   UNL d   1      22.490 -17.913  -0.063  0.00  0.00     0.003 A 
ATOM     24  C   UNL d   1      22.512 -16.777  -0.897  0.00  0.00     0.038 A 
ATOM     25  O   UNL d   1      24.040 -15.259  -2.157  0.00  0.00    -0.304 OA
ENDBRANCH   1  16
TORSDOF 3
ENDMDL
