MODEL 1
REMARK VINA RESULT:   -10.075      0.000      0.000
REMARK INTER + INTRA:         -12.408
REMARK INTER:                 -11.566
REMARK INTRA:                  -0.842
REMARK CONF_INDEPENDENT:        1.492
REMARK UNBOUND:                -0.842
REMARK  5 active torsions:
REMARK  status: ('A' for Active; 'I' for Inactive)
REMARK    1  A    between atoms: C_4  and  N_5 
REMARK       I    between atoms: N_5  and  C_6 
REMARK       I    between atoms: C_6  and  N_8 
REMARK    2  A    between atoms: N_8  and  C_9 
REMARK    3  A    between atoms: C_16  and  C_17 
REMARK       I    between atoms: C_17  and  N_19 
REMARK    4  A    between atoms: N_22  and  C_23 
REMARK    5  A    between atoms: C_23  and  C_24 
ROOT
ATOM      1  C   UNL d   1      26.447 -15.529  -2.804  0.00  0.00     0.072 C 
ATOM      2  C   UNL d   1      25.714 -16.256  -1.795  0.00  0.00     0.056 A 
ATOM      3  N   UNL d   1      24.359 -16.295  -2.003  0.00  0.00    -0.228 NA
ATOM      4  C   UNL d   1      23.810 -17.022  -1.074  0.00  0.00     0.175 A 
ATOM      5  S   UNL d   1      24.909 -17.645   0.096  0.00  0.00    -0.044 SA
ATOM      6  C   UNL d   1      26.252 -16.909  -0.694  0.00  0.00     0.100 A 
ENDROOT
BRANCH   6   7
ATOM      7  C   UNL d   1      27.653 -17.140  -0.218  0.00  0.00     0.262 C 
ATOM      8  O   UNL d   1      28.302 -18.124  -0.486  0.00  0.00    -0.267 OA
ATOM      9  N   UNL d   1      28.270 -16.079   0.486  0.00  0.00    -0.344 N 
ATOM     10  C   UNL d   1      29.635 -15.614   0.196  0.00  0.00     0.156 C 
ATOM     11  C   UNL d   1      27.780 -15.572   1.752  0.00  0.00     0.156 C 
ATOM     12  C   UNL d   1      29.632 -14.051   0.205  0.00  0.00     0.292 C 
ATOM     13  N   UNL d   1      29.135 -13.432   1.475  0.00  0.00     0.095 N 
ATOM     14  C   UNL d   1      27.813 -13.997   1.756  0.00  0.00     0.292 C 
BRANCH  13  15
ATOM     15  C   UNL d   1      30.049 -13.651   2.596  0.00  0.00     0.311 C 
BRANCH  15  16
ATOM     16  C   UNL d   1      29.375 -13.736   3.942  0.00  0.00    -0.031 C 
ATOM     17  C   UNL d   1      29.375 -14.847   4.760  0.00  0.00     0.008 C 
ATOM     18  C   UNL d   1      28.864 -14.698   6.069  0.00  0.00     0.019 C 
ATOM     19  C   UNL d   1      28.317 -13.456   6.479  0.00  0.00     0.157 C 
ATOM     20  C   UNL d   1      27.837 -12.640   5.509  0.00  0.00     0.158 C 
ATOM     21  O   UNL d   1      29.033 -12.493   7.312  0.00  0.00    -0.345 OA
ATOM     22  C   UNL d   1      28.594 -12.647   4.361  0.00  0.00     0.027 C 
ATOM     23  O   UNL d   1      27.420 -11.413   5.976  0.00  0.00    -0.345 OA
ATOM     24  C   UNL d   1      28.575 -11.193   6.776  0.00  0.00     0.341 C 
ENDBRANCH  15  16
ENDBRANCH  13  15
ENDBRANCH   6   7
BRANCH   4  25
ATOM     25  N   UNL d   1      22.445 -17.233  -1.094  0.00  0.00    -0.287 N 
ATOM     26  C   UNL d   1      21.839 -18.265  -0.429  0.00  0.00     0.326 C 
ATOM     27  O   UNL d   1      22.456 -19.086   0.227  0.00  0.00    -0.247 OA
ATOM     28  N   UNL d   1      20.455 -18.328  -0.566  0.00  0.00    -0.309 N 
ATOM     29  H   UNL d   1      19.981 -17.830  -1.306  0.00  0.00     0.170 HD
ATOM     30  H   UNL d   1      21.931 -16.561  -1.645  0.00  0.00     0.172 HD
BRANCH  28  31
ATOM     31  C   UNL d   1      19.727 -19.326   0.142  0.00  0.00     0.036 A 
ATOM     32  C   UNL d   1      19.962 -19.586   1.495  0.00  0.00     0.029 A 
ATOM     33  C   UNL d   1      19.248 -20.607   2.147  0.00  0.00     0.002 A 
ATOM     34  C   UNL d   1      18.276 -21.342   1.465  0.00  0.00     0.000 A 
ATOM     35  C   UNL d   1      18.037 -21.084   0.123  0.00  0.00     0.002 A 
ATOM     36  C   UNL d   1      18.762 -20.089  -0.529  0.00  0.00     0.029 A 
ENDBRANCH  28  31
ENDBRANCH   4  25
TORSDOF 5
ENDMDL
MODEL 2
REMARK VINA RESULT:    -9.841      1.848      2.378
REMARK INTER + INTRA:         -12.199
REMARK INTER:                 -11.332
REMARK INTRA:                  -0.867
REMARK CONF_INDEPENDENT:        1.492
REMARK UNBOUND:                -0.867
REMARK  5 active torsions:
REMARK  status: ('A' for Active; 'I' for Inactive)
REMARK    1  A    between atoms: C_4  and  N_5 
REMARK       I    between atoms: N_5  and  C_6 
REMARK       I    between atoms: C_6  and  N_8 
REMARK    2  A    between atoms: N_8  and  C_9 
REMARK    3  A    between atoms: C_16  and  C_17 
REMARK       I    between atoms: C_17  and  N_19 
REMARK    4  A    between atoms: N_22  and  C_23 
REMARK    5  A    between atoms: C_23  and  C_24 
ROOT
ATOM      1  C   UNL d   1      26.417 -13.807  -4.049  0.00  0.00     0.072 C 
ATOM      2  C   UNL d   1      25.999 -14.539  -2.877  0.00  0.00     0.056 A 
ATOM      3  N   UNL d   1      25.221 -15.635  -3.146  0.00  0.00    -0.228 NA
ATOM      4  C   UNL d   1      24.955 -16.248  -2.029  0.00  0.00     0.175 A 
ATOM      5  S   UNL d   1      25.605 -15.498  -0.623  0.00  0.00    -0.044 SA
ATOM      6  C   UNL d   1      26.328 -14.245  -1.561  0.00  0.00     0.100 A 
ENDROOT
BRANCH   6   7
ATOM      7  C   UNL d   1      27.202 -13.208  -0.925  0.00  0.00     0.262 C 
ATOM      8  O   UNL d   1      27.500 -12.162  -1.452  0.00  0.00    -0.267 OA
ATOM      9  N   UNL d   1      27.591 -13.439   0.416  0.00  0.00    -0.344 N 
ATOM     10  C   UNL d   1      27.513 -12.407   1.461  0.00  0.00     0.156 C 
ATOM     11  C   UNL d   1      28.402 -14.568   0.826  0.00  0.00     0.156 C 
ATOM     12  C   UNL d   1      26.936 -13.063   2.755  0.00  0.00     0.292 C 
ATOM     13  N   UNL d   1      27.706 -14.246   3.256  0.00  0.00     0.095 N 
ATOM     14  C   UNL d   1      27.824 -15.198   2.150  0.00  0.00     0.292 C 
BRANCH  13  15
ATOM     15  C   UNL d   1      29.022 -13.874   3.774  0.00  0.00     0.311 C 
BRANCH  15  16
ATOM     16  C   UNL d   1      29.046 -13.562   5.249  0.00  0.00    -0.031 C 
ATOM     17  C   UNL d   1      29.291 -14.479   6.250  0.00  0.00     0.008 C 
ATOM     18  C   UNL d   1      29.468 -13.986   7.562  0.00  0.00     0.019 C 
ATOM     19  C   UNL d   1      29.330 -12.600   7.824  0.00  0.00     0.157 C 
ATOM     20  C   UNL d   1      28.557 -11.883   6.971  0.00  0.00     0.158 C 
ATOM     21  O   UNL d   1      30.461 -11.692   7.991  0.00  0.00    -0.345 OA
ATOM     22  C   UNL d   1      28.688 -12.268   5.657  0.00  0.00     0.027 C 
ATOM     23  O   UNL d   1      28.557 -10.531   7.231  0.00  0.00    -0.345 OA
ATOM     24  C   UNL d   1      29.968 -10.439   7.378  0.00  0.00     0.341 C 
ENDBRANCH  15  16
ENDBRANCH  13  15
ENDBRANCH   6   7
BRANCH   4  25
ATOM     25  N   UNL d   1      24.205 -17.408  -2.053  0.00  0.00    -0.287 N 
ATOM     26  C   UNL d   1      23.156 -17.636  -1.203  0.00  0.00     0.326 C 
ATOM     27  O   UNL d   1      22.805 -16.839  -0.352  0.00  0.00    -0.247 OA
ATOM     28  N   UNL d   1      22.516 -18.863  -1.365  0.00  0.00    -0.309 N 
ATOM     29  H   UNL d   1      22.959 -19.619  -1.868  0.00  0.00     0.170 HD
ATOM     30  H   UNL d   1      24.498 -18.076  -2.751  0.00  0.00     0.172 HD
BRANCH  28  31
ATOM     31  C   UNL d   1      21.372 -19.165  -0.573  0.00  0.00     0.036 A 
ATOM     32  C   UNL d   1      21.367 -18.978   0.812  0.00  0.00     0.029 A 
ATOM     33  C   UNL d   1      20.229 -19.325   1.560  0.00  0.00     0.002 A 
ATOM     34  C   UNL d   1      19.086 -19.824   0.930  0.00  0.00     0.000 A 
ATOM     35  C   UNL d   1      19.088 -20.009  -0.445  0.00  0.00     0.002 A 
ATOM     36  C   UNL d   1      20.223 -19.686  -1.184  0.00  0.00     0.029 A 
ENDBRANCH  28  31
ENDBRANCH   4  25
TORSDOF 5
ENDMDL
MODEL 3
REMARK VINA RESULT:    -9.771      1.569      2.362
REMARK INTER + INTRA:         -12.108
REMARK INTER:                 -11.263
REMARK INTRA:                  -0.845
REMARK CONF_INDEPENDENT:        1.492
REMARK UNBOUND:                -0.845
REMARK  5 active torsions:
REMARK  status: ('A' for Active; 'I' for Inactive)
REMARK    1  A    between atoms: C_4  and  N_5 
REMARK       I    between atoms: N_5  and  C_6 
REMARK       I    between atoms: C_6  and  N_8 
REMARK    2  A    between atoms: N_8  and  C_9 
REMARK    3  A    between atoms: C_16  and  C_17 
REMARK       I    between atoms: C_17  and  N_19 
REMARK    4  A    between atoms: N_22  and  C_23 
REMARK    5  A    between atoms: C_23  and  C_24 
ROOT
ATOM      1  C   UNL d   1      27.002 -18.551   0.428  0.00  0.00     0.072 C 
ATOM      2  C   UNL d   1      26.143 -17.631  -0.277  0.00  0.00     0.056 A 
ATOM      3  N   UNL d   1      24.829 -18.021  -0.336  0.00  0.00    -0.228 NA
ATOM      4  C   UNL d   1      24.141 -17.094  -0.936  0.00  0.00     0.175 A 
ATOM      5  S   UNL d   1      25.065 -15.746  -1.478  0.00  0.00    -0.044 SA
ATOM      6  C   UNL d   1      26.521 -16.425  -0.853  0.00  0.00     0.100 A 
ENDROOT
BRANCH   6   7
ATOM      7  C   UNL d   1      27.812 -15.668  -0.902  0.00  0.00     0.262 C 
ATOM      8  O   UNL d   1      28.768 -16.006  -1.560  0.00  0.00    -0.267 OA
ATOM      9  N   UNL d   1      27.848 -14.427  -0.223  0.00  0.00    -0.344 N 
ATOM     10  C   UNL d   1      28.397 -13.202  -0.824  0.00  0.00     0.156 C 
ATOM     11  C   UNL d   1      27.671 -14.298   1.210  0.00  0.00     0.156 C 
ATOM     12  C   UNL d   1      27.435 -12.018  -0.488  0.00  0.00     0.292 C 
ATOM     13  N   UNL d   1      27.185 -11.808   0.974  0.00  0.00     0.095 N 
ATOM     14  C   UNL d   1      26.724 -13.081   1.532  0.00  0.00     0.292 C 
BRANCH  13  15
ATOM     15  C   UNL d   1      28.372 -11.324   1.678  0.00  0.00     0.311 C 
BRANCH  15  16
ATOM     16  C   UNL d   1      28.391 -11.634   3.153  0.00  0.00    -0.031 C 
ATOM     17  C   UNL d   1      27.865 -10.825   4.140  0.00  0.00     0.008 C 
ATOM     18  C   UNL d   1      27.792 -11.352   5.449  0.00  0.00     0.019 C 
ATOM     19  C   UNL d   1      28.306 -12.643   5.724  0.00  0.00     0.157 C 
ATOM     20  C   UNL d   1      29.276 -13.113   4.901  0.00  0.00     0.158 C 
ATOM     21  O   UNL d   1      27.471 -13.834   5.861  0.00  0.00    -0.345 OA
ATOM     22  C   UNL d   1      29.085 -12.777   3.581  0.00  0.00     0.027 C 
ATOM     23  O   UNL d   1      29.648 -14.411   5.170  0.00  0.00    -0.345 OA
ATOM     24  C   UNL d   1      28.315 -14.896   5.273  0.00  0.00     0.341 C 
ENDBRANCH  15  16
ENDBRANCH  13  15
ENDBRANCH   6   7
BRANCH   4  25
ATOM     25  N   UNL d   1      22.777 -17.251  -1.086  0.00  0.00    -0.287 N 
ATOM     26  C   UNL d   1      22.071 -18.258  -0.485  0.00  0.00     0.326 C 
ATOM     27  O   UNL d   1      22.590 -19.102   0.224  0.00  0.00    -0.247 OA
ATOM     28  N   UNL d   1      20.704 -18.268  -0.752  0.00  0.00    -0.309 N 
ATOM     29  H   UNL d   1      20.322 -17.752  -1.532  0.00  0.00     0.170 HD
ATOM     30  H   UNL d   1      22.343 -16.560  -1.681  0.00  0.00     0.172 HD
BRANCH  28  31
ATOM     31  C   UNL d   1      19.874 -19.236  -0.119  0.00  0.00     0.036 A 
ATOM     32  C   UNL d   1      18.863 -19.904  -0.815  0.00  0.00     0.029 A 
ATOM     33  C   UNL d   1      18.041 -20.826  -0.143  0.00  0.00     0.002 A 
ATOM     34  C   UNL d   1      18.246 -21.109   1.209  0.00  0.00     0.000 A 
ATOM     35  C   UNL d   1      19.251 -20.449   1.902  0.00  0.00     0.002 A 
ATOM     36  C   UNL d   1      20.050 -19.519   1.242  0.00  0.00     0.029 A 
ENDBRANCH  28  31
ENDBRANCH   4  25
TORSDOF 5
ENDMDL
MODEL 4
REMARK VINA RESULT:    -9.461      1.515      2.135
REMARK INTER + INTRA:         -11.584
REMARK INTER:                 -10.953
REMARK INTRA:                  -0.631
REMARK CONF_INDEPENDENT:        1.492
REMARK UNBOUND:                -0.631
REMARK  5 active torsions:
REMARK  status: ('A' for Active; 'I' for Inactive)
REMARK    1  A    between atoms: C_4  and  N_5 
REMARK       I    between atoms: N_5  and  C_6 
REMARK       I    between atoms: C_6  and  N_8 
REMARK    2  A    between atoms: N_8  and  C_9 
REMARK    3  A    between atoms: C_16  and  C_17 
REMARK       I    between atoms: C_17  and  N_19 
REMARK    4  A    between atoms: N_22  and  C_23 
REMARK    5  A    between atoms: C_23  and  C_24 
ROOT
ATOM      1  C   UNL d   1      27.324 -18.108   0.568  0.00  0.00     0.072 C 
ATOM      2  C   UNL d   1      26.387 -17.304  -0.178  0.00  0.00     0.056 A 
ATOM      3  N   UNL d   1      25.148 -17.876  -0.325  0.00  0.00    -0.228 NA
ATOM      4  C   UNL d   1      24.372 -17.044  -0.957  0.00  0.00     0.175 A 
ATOM      5  S   UNL d   1      25.125 -15.568  -1.424  0.00  0.00    -0.044 SA
ATOM      6  C   UNL d   1      26.623 -16.046  -0.716  0.00  0.00     0.100 A 
ENDROOT
BRANCH   6   7
ATOM      7  C   UNL d   1      27.793 -15.112  -0.674  0.00  0.00     0.262 C 
ATOM      8  O   UNL d   1      28.506 -14.883  -1.623  0.00  0.00    -0.267 OA
ATOM      9  N   UNL d   1      27.980 -14.380   0.522  0.00  0.00    -0.344 N 
ATOM     10  C   UNL d   1      28.250 -12.934   0.541  0.00  0.00     0.156 C 
ATOM     11  C   UNL d   1      28.260 -15.002   1.801  0.00  0.00     0.156 C 
ATOM     12  C   UNL d   1      27.386 -12.290   1.672  0.00  0.00     0.292 C 
ATOM     13  N   UNL d   1      27.602 -12.872   3.035  0.00  0.00     0.095 N 
ATOM     14  C   UNL d   1      27.405 -14.320   2.935  0.00  0.00     0.292 C 
BRANCH  13  15
ATOM     15  C   UNL d   1      28.925 -12.557   3.571  0.00  0.00     0.311 C 
BRANCH  15  16
ATOM     16  C   UNL d   1      29.023 -12.637   5.074  0.00  0.00    -0.031 C 
ATOM     17  C   UNL d   1      28.875 -13.790   5.818  0.00  0.00     0.008 C 
ATOM     18  C   UNL d   1      29.188 -13.726   7.194  0.00  0.00     0.019 C 
ATOM     19  C   UNL d   1      29.578 -12.495   7.777  0.00  0.00     0.157 C 
ATOM     20  C   UNL d   1      29.158 -11.360   7.166  0.00  0.00     0.158 C 
ATOM     21  O   UNL d   1      30.963 -12.144   8.076  0.00  0.00    -0.345 OA
ATOM     22  C   UNL d   1      29.171 -11.440   5.792  0.00  0.00     0.027 C 
ATOM     23  O   UNL d   1      29.663 -10.210   7.730  0.00  0.00    -0.345 OA
ATOM     24  C   UNL d   1      30.999 -10.691   7.802  0.00  0.00     0.341 C 
ENDBRANCH  15  16
ENDBRANCH  13  15
ENDBRANCH   6   7
BRANCH   4  25
ATOM     25  N   UNL d   1      23.056 -17.390  -1.195  0.00  0.00    -0.287 N 
ATOM     26  C   UNL d   1      22.351 -18.241  -0.387  0.00  0.00     0.326 C 
ATOM     27  O   UNL d   1      22.829 -18.769   0.602  0.00  0.00    -0.247 OA
ATOM     28  N   UNL d   1      21.037 -18.483  -0.781  0.00  0.00    -0.309 N 
ATOM     29  H   UNL d   1      20.727 -18.273  -1.720  0.00  0.00     0.170 HD
ATOM     30  H   UNL d   1      22.658 -16.964  -2.018  0.00  0.00     0.172 HD
BRANCH  28  31
ATOM     31  C   UNL d   1      20.201 -19.301   0.031  0.00  0.00     0.036 A 
ATOM     32  C   UNL d   1      19.174 -20.074  -0.517  0.00  0.00     0.029 A 
ATOM     33  C   UNL d   1      18.348 -20.839   0.325  0.00  0.00     0.002 A 
ATOM     34  C   UNL d   1      18.565 -20.864   1.704  0.00  0.00     0.000 A 
ATOM     35  C   UNL d   1      19.586 -20.099   2.251  0.00  0.00     0.002 A 
ATOM     36  C   UNL d   1      20.390 -19.324   1.419  0.00  0.00     0.029 A 
ENDBRANCH  28  31
ENDBRANCH   4  25
TORSDOF 5
ENDMDL
MODEL 5
REMARK VINA RESULT:    -9.425      4.390      6.351
REMARK INTER + INTRA:         -11.729
REMARK INTER:                 -10.916
REMARK INTRA:                  -0.813
REMARK CONF_INDEPENDENT:        1.492
REMARK UNBOUND:                -0.813
REMARK  5 active torsions:
REMARK  status: ('A' for Active; 'I' for Inactive)
REMARK    1  A    between atoms: C_4  and  N_5 
REMARK       I    between atoms: N_5  and  C_6 
REMARK       I    between atoms: C_6  and  N_8 
REMARK    2  A    between atoms: N_8  and  C_9 
REMARK    3  A    between atoms: C_16  and  C_17 
REMARK       I    between atoms: C_17  and  N_19 
REMARK    4  A    between atoms: N_22  and  C_23 
REMARK    5  A    between atoms: C_23  and  C_24 
ROOT
ATOM      1  C   UNL d   1      26.892 -18.202   0.624  0.00  0.00     0.072 C 
ATOM      2  C   UNL d   1      26.019 -17.555  -0.326  0.00  0.00     0.056 A 
ATOM      3  N   UNL d   1      24.696 -17.892  -0.195  0.00  0.00    -0.228 NA
ATOM      4  C   UNL d   1      24.000 -17.209  -1.056  0.00  0.00     0.175 A 
ATOM      5  S   UNL d   1      24.925 -16.172  -2.072  0.00  0.00    -0.044 SA
ATOM      6  C   UNL d   1      26.395 -16.642  -1.303  0.00  0.00     0.100 A 
ENDROOT
BRANCH   6   7
ATOM      7  C   UNL d   1      27.698 -15.998  -1.663  0.00  0.00     0.262 C 
ATOM      8  O   UNL d   1      28.714 -16.128  -1.022  0.00  0.00    -0.267 OA
ATOM      9  N   UNL d   1      27.743 -15.299  -2.893  0.00  0.00    -0.344 N 
ATOM     10  C   UNL d   1      28.835 -15.462  -3.866  0.00  0.00     0.156 C 
ATOM     11  C   UNL d   1      26.934 -14.130  -3.174  0.00  0.00     0.156 C 
ATOM     12  C   UNL d   1      28.207 -15.553  -5.294  0.00  0.00     0.292 C 
ATOM     13  N   UNL d   1      27.345 -14.389  -5.675  0.00  0.00     0.095 N 
ATOM     14  C   UNL d   1      26.335 -14.223  -4.629  0.00  0.00     0.292 C 
BRANCH  13  15
ATOM     15  C   UNL d   1      28.119 -13.161  -5.860  0.00  0.00     0.311 C 
BRANCH  15  16
ATOM     16  C   UNL d   1      27.360 -11.895  -5.550  0.00  0.00    -0.031 C 
ATOM     17  C   UNL d   1      26.267 -11.433  -6.255  0.00  0.00     0.008 C 
ATOM     18  C   UNL d   1      25.557 -10.337  -5.718  0.00  0.00     0.019 C 
ATOM     19  C   UNL d   1      26.009  -9.713  -4.529  0.00  0.00     0.157 C 
ATOM     20  C   UNL d   1      27.327  -9.825  -4.232  0.00  0.00     0.158 C 
ATOM     21  O   UNL d   1      25.416  -9.949  -3.215  0.00  0.00    -0.345 OA
ATOM     22  C   UNL d   1      27.854 -11.058  -4.538  0.00  0.00     0.027 C 
ATOM     23  O   UNL d   1      27.667  -9.283  -3.013  0.00  0.00    -0.345 OA
ATOM     24  C   UNL d   1      26.585  -9.883  -2.312  0.00  0.00     0.341 C 
ENDBRANCH  15  16
ENDBRANCH  13  15
ENDBRANCH   6   7
BRANCH   4  25
ATOM     25  N   UNL d   1      22.627 -17.359  -1.090  0.00  0.00    -0.287 N 
ATOM     26  C   UNL d   1      21.969 -18.363  -0.432  0.00  0.00     0.326 C 
ATOM     27  O   UNL d   1      22.541 -19.210   0.230  0.00  0.00    -0.247 OA
ATOM     28  N   UNL d   1      20.584 -18.364  -0.581  0.00  0.00    -0.309 N 
ATOM     29  H   UNL d   1      20.140 -17.845  -1.326  0.00  0.00     0.170 HD
ATOM     30  H   UNL d   1      22.148 -16.665  -1.645  0.00  0.00     0.172 HD
BRANCH  28  31
ATOM     31  C   UNL d   1      19.805 -19.328   0.119  0.00  0.00     0.036 A 
ATOM     32  C   UNL d   1      18.811 -20.075  -0.520  0.00  0.00     0.029 A 
ATOM     33  C   UNL d   1      18.040 -20.989   0.217  0.00  0.00     0.002 A 
ATOM     34  C   UNL d   1      18.279 -21.188   1.578  0.00  0.00     0.000 A 
ATOM     35  C   UNL d   1      19.266 -20.450   2.216  0.00  0.00     0.002 A 
ATOM     36  C   UNL d   1      20.016 -19.528   1.490  0.00  0.00     0.029 A 
ENDBRANCH  28  31
ENDBRANCH   4  25
TORSDOF 5
ENDMDL
MODEL 6
REMARK VINA RESULT:    -9.190      4.698      8.231
REMARK INTER + INTRA:         -11.471
REMARK INTER:                 -10.681
REMARK INTRA:                  -0.790
REMARK CONF_INDEPENDENT:        1.492
REMARK UNBOUND:                -0.790
REMARK  5 active torsions:
REMARK  status: ('A' for Active; 'I' for Inactive)
REMARK    1  A    between atoms: C_4  and  N_5 
REMARK       I    between atoms: N_5  and  C_6 
REMARK       I    between atoms: C_6  and  N_8 
REMARK    2  A    between atoms: N_8  and  C_9 
REMARK    3  A    between atoms: C_16  and  C_17 
REMARK       I    between atoms: C_17  and  N_19 
REMARK    4  A    between atoms: N_22  and  C_23 
REMARK    5  A    between atoms: C_23  and  C_24 
ROOT
ATOM      1  C   UNL d   1      26.878 -17.676   0.831  0.00  0.00     0.072 C 
ATOM      2  C   UNL d   1      26.024 -17.336  -0.282  0.00  0.00     0.056 A 
ATOM      3  N   UNL d   1      24.695 -17.605  -0.073  0.00  0.00    -0.228 NA
ATOM      4  C   UNL d   1      24.017 -17.207  -1.110  0.00  0.00     0.175 A 
ATOM      5  S   UNL d   1      24.966 -16.533  -2.378  0.00  0.00    -0.044 SA
ATOM      6  C   UNL d   1      26.422 -16.765  -1.483  0.00  0.00     0.100 A 
ENDROOT
BRANCH   6   7
ATOM      7  C   UNL d   1      27.737 -16.272  -2.003  0.00  0.00     0.262 C 
ATOM      8  O   UNL d   1      28.807 -16.726  -1.669  0.00  0.00    -0.267 OA
ATOM      9  N   UNL d   1      27.691 -15.301  -3.031  0.00  0.00    -0.344 N 
ATOM     10  C   UNL d   1      28.509 -15.387  -4.250  0.00  0.00     0.156 C 
ATOM     11  C   UNL d   1      27.115 -13.982  -2.855  0.00  0.00     0.156 C 
ATOM     12  C   UNL d   1      27.610 -15.008  -5.470  0.00  0.00     0.292 C 
ATOM     13  N   UNL d   1      26.963 -13.660  -5.378  0.00  0.00     0.095 N 
ATOM     14  C   UNL d   1      26.237 -13.603  -4.107  0.00  0.00     0.292 C 
BRANCH  13  15
ATOM     15  C   UNL d   1      27.932 -12.570  -5.480  0.00  0.00     0.311 C 
BRANCH  15  16
ATOM     16  C   UNL d   1      27.889 -11.818  -6.786  0.00  0.00    -0.031 C 
ATOM     17  C   UNL d   1      27.509 -10.499  -6.931  0.00  0.00     0.008 C 
ATOM     18  C   UNL d   1      27.710  -9.894  -8.191  0.00  0.00     0.019 C 
ATOM     19  C   UNL d   1      28.225 -10.655  -9.270  0.00  0.00     0.157 C 
ATOM     20  C   UNL d   1      28.031 -11.996  -9.230  0.00  0.00     0.158 C 
ATOM     21  O   UNL d   1      29.617 -10.597  -9.709  0.00  0.00    -0.345 OA
ATOM     22  C   UNL d   1      28.148 -12.530  -7.968  0.00  0.00     0.027 C 
ATOM     23  O   UNL d   1      28.649 -12.674 -10.257  0.00  0.00    -0.345 OA
ATOM     24  C   UNL d   1      29.888 -11.992 -10.119  0.00  0.00     0.341 C 
ENDBRANCH  15  16
ENDBRANCH  13  15
ENDBRANCH   6   7
BRANCH   4  25
ATOM     25  N   UNL d   1      22.642 -17.346  -1.116  0.00  0.00    -0.287 N 
ATOM     26  C   UNL d   1      21.991 -18.359  -0.464  0.00  0.00     0.326 C 
ATOM     27  O   UNL d   1      22.572 -19.224   0.166  0.00  0.00    -0.247 OA
ATOM     28  N   UNL d   1      20.604 -18.347  -0.583  0.00  0.00    -0.309 N 
ATOM     29  H   UNL d   1      20.147 -17.809  -1.305  0.00  0.00     0.170 HD
ATOM     30  H   UNL d   1      22.157 -16.636  -1.645  0.00  0.00     0.172 HD
BRANCH  28  31
ATOM     31  C   UNL d   1      19.833 -19.320   0.115  0.00  0.00     0.036 A 
ATOM     32  C   UNL d   1      18.833 -20.059  -0.523  0.00  0.00     0.029 A 
ATOM     33  C   UNL d   1      18.070 -20.984   0.212  0.00  0.00     0.002 A 
ATOM     34  C   UNL d   1      18.324 -21.199   1.568  0.00  0.00     0.000 A 
ATOM     35  C   UNL d   1      19.319 -20.469   2.203  0.00  0.00     0.002 A 
ATOM     36  C   UNL d   1      20.059 -19.536   1.481  0.00  0.00     0.029 A 
ENDBRANCH  28  31
ENDBRANCH   4  25
TORSDOF 5
ENDMDL
MODEL 7
REMARK VINA RESULT:    -9.162      5.269      7.416
REMARK INTER + INTRA:         -11.188
REMARK INTER:                 -10.654
REMARK INTRA:                  -0.534
REMARK CONF_INDEPENDENT:        1.492
REMARK UNBOUND:                -0.534
REMARK  5 active torsions:
REMARK  status: ('A' for Active; 'I' for Inactive)
REMARK    1  A    between atoms: C_4  and  N_5 
REMARK       I    between atoms: N_5  and  C_6 
REMARK       I    between atoms: C_6  and  N_8 
REMARK    2  A    between atoms: N_8  and  C_9 
REMARK    3  A    between atoms: C_16  and  C_17 
REMARK       I    between atoms: C_17  and  N_19 
REMARK    4  A    between atoms: N_22  and  C_23 
REMARK    5  A    between atoms: C_23  and  C_24 
ROOT
ATOM      1  C   UNL d   1      28.419 -15.955  -1.130  0.00  0.00     0.072 C 
ATOM      2  C   UNL d   1      27.055 -16.296  -1.452  0.00  0.00     0.056 A 
ATOM      3  N   UNL d   1      26.400 -16.990  -0.467  0.00  0.00    -0.228 NA
ATOM      4  C   UNL d   1      25.169 -17.189  -0.838  0.00  0.00     0.175 A 
ATOM      5  S   UNL d   1      24.779 -16.579  -2.400  0.00  0.00    -0.044 SA
ATOM      6  C   UNL d   1      26.378 -15.971  -2.620  0.00  0.00     0.100 A 
ENDROOT
BRANCH   6   7
ATOM      7  C   UNL d   1      26.741 -15.171  -3.833  0.00  0.00     0.262 C 
ATOM      8  O   UNL d   1      26.901 -15.649  -4.932  0.00  0.00    -0.267 OA
ATOM      9  N   UNL d   1      26.779 -13.765  -3.680  0.00  0.00    -0.344 N 
ATOM     10  C   UNL d   1      26.148 -12.840  -4.634  0.00  0.00     0.156 C 
ATOM     11  C   UNL d   1      27.699 -13.085  -2.791  0.00  0.00     0.156 C 
ATOM     12  C   UNL d   1      25.413 -11.726  -3.822  0.00  0.00     0.292 C 
ATOM     13  N   UNL d   1      26.283 -10.968  -2.867  0.00  0.00     0.095 N 
ATOM     14  C   UNL d   1      26.949 -11.945  -2.003  0.00  0.00     0.292 C 
BRANCH  13  15
ATOM     15  C   UNL d   1      27.259 -10.123  -3.555  0.00  0.00     0.311 C 
BRANCH  15  16
ATOM     16  C   UNL d   1      26.685  -9.300  -4.681  0.00  0.00    -0.031 C 
ATOM     17  C   UNL d   1      26.975  -9.473  -6.019  0.00  0.00     0.008 C 
ATOM     18  C   UNL d   1      26.206  -8.748  -6.956  0.00  0.00     0.019 C 
ATOM     19  C   UNL d   1      25.221  -7.834  -6.509  0.00  0.00     0.157 C 
ATOM     20  C   UNL d   1      25.382  -7.305  -5.271  0.00  0.00     0.158 C 
ATOM     21  O   UNL d   1      23.791  -8.131  -6.491  0.00  0.00    -0.345 OA
ATOM     22  C   UNL d   1      25.874  -8.202  -4.351  0.00  0.00     0.027 C 
ATOM     23  O   UNL d   1      24.332  -6.509  -4.869  0.00  0.00    -0.345 OA
ATOM     24  C   UNL d   1      23.326  -7.428  -5.275  0.00  0.00     0.341 C 
ENDBRANCH  15  16
ENDBRANCH  13  15
ENDBRANCH   6   7
BRANCH   4  25
ATOM     25  N   UNL d   1      24.301 -17.846   0.013  0.00  0.00    -0.287 N 
ATOM     26  C   UNL d   1      23.051 -18.255  -0.366  0.00  0.00     0.326 C 
ATOM     27  O   UNL d   1      22.599 -18.065  -1.481  0.00  0.00    -0.247 OA
ATOM     28  N   UNL d   1      22.310 -18.897   0.623  0.00  0.00    -0.309 N 
ATOM     29  H   UNL d   1      22.563 -18.818   1.598  0.00  0.00     0.170 HD
ATOM     30  H   UNL d   1      24.667 -17.997   0.941  0.00  0.00     0.172 HD
BRANCH  28  31
ATOM     31  C   UNL d   1      21.023 -19.418   0.307  0.00  0.00     0.036 A 
ATOM     32  C   UNL d   1      20.426 -19.195  -0.936  0.00  0.00     0.029 A 
ATOM     33  C   UNL d   1      19.138 -19.696  -1.194  0.00  0.00     0.002 A 
ATOM     34  C   UNL d   1      18.460 -20.447  -0.231  0.00  0.00     0.000 A 
ATOM     35  C   UNL d   1      19.051 -20.672   1.004  0.00  0.00     0.002 A 
ATOM     36  C   UNL d   1      20.318 -20.156   1.267  0.00  0.00     0.029 A 
ENDBRANCH  28  31
ENDBRANCH   4  25
TORSDOF 5
ENDMDL
MODEL 8
REMARK VINA RESULT:    -8.797      4.769     10.441
REMARK INTER + INTRA:         -11.312
REMARK INTER:                 -10.288
REMARK INTRA:                  -1.024
REMARK CONF_INDEPENDENT:        1.492
REMARK UNBOUND:                -1.024
REMARK  5 active torsions:
REMARK  status: ('A' for Active; 'I' for Inactive)
REMARK    1  A    between atoms: C_4  and  N_5 
REMARK       I    between atoms: N_5  and  C_6 
REMARK       I    between atoms: C_6  and  N_8 
REMARK    2  A    between atoms: N_8  and  C_9 
REMARK    3  A    between atoms: C_16  and  C_17 
REMARK       I    between atoms: C_17  and  N_19 
REMARK    4  A    between atoms: N_22  and  C_23 
REMARK    5  A    between atoms: C_23  and  C_24 
ROOT
ATOM      1  C   UNL d   1      30.858 -14.054   2.165  0.00  0.00     0.072 C 
ATOM      2  C   UNL d   1      29.682 -14.078   2.999  0.00  0.00     0.056 A 
ATOM      3  N   UNL d   1      29.905 -14.530   4.275  0.00  0.00    -0.228 NA
ATOM      4  C   UNL d   1      28.796 -14.452   4.950  0.00  0.00     0.175 A 
ATOM      5  S   UNL d   1      27.446 -13.867   4.056  0.00  0.00    -0.044 SA
ATOM      6  C   UNL d   1      28.404 -13.675   2.634  0.00  0.00     0.100 A 
ENDROOT
BRANCH   6   7
ATOM      7  C   UNL d   1      27.832 -13.066   1.392  0.00  0.00     0.262 C 
ATOM      8  O   UNL d   1      27.836 -11.880   1.160  0.00  0.00    -0.267 OA
ATOM      9  N   UNL d   1      27.373 -13.962   0.397  0.00  0.00    -0.344 N 
ATOM     10  C   UNL d   1      27.709 -13.815  -1.028  0.00  0.00     0.156 C 
ATOM     11  C   UNL d   1      26.280 -14.891   0.605  0.00  0.00     0.156 C 
ATOM     12  C   UNL d   1      28.067 -15.227  -1.593  0.00  0.00     0.292 C 
ATOM     13  N   UNL d   1      26.998 -16.261  -1.420  0.00  0.00     0.095 N 
ATOM     14  C   UNL d   1      26.645 -16.300   0.001  0.00  0.00     0.292 C 
BRANCH  13  15
ATOM     15  C   UNL d   1      25.822 -15.991  -2.247  0.00  0.00     0.311 C 
BRANCH  15  16
ATOM     16  C   UNL d   1      26.073 -15.044  -3.393  0.00  0.00    -0.031 C 
ATOM     17  C   UNL d   1      25.531 -13.780  -3.511  0.00  0.00     0.008 C 
ATOM     18  C   UNL d   1      26.019 -12.951  -4.545  0.00  0.00     0.019 C 
ATOM     19  C   UNL d   1      26.985 -13.447  -5.455  0.00  0.00     0.157 C 
ATOM     20  C   UNL d   1      27.033 -14.790  -5.638  0.00  0.00     0.158 C 
ATOM     21  O   UNL d   1      28.410 -13.136  -5.373  0.00  0.00    -0.345 OA
ATOM     22  C   UNL d   1      26.826 -15.508  -4.483  0.00  0.00     0.027 C 
ATOM     23  O   UNL d   1      28.062 -15.200  -6.455  0.00  0.00    -0.345 OA
ATOM     24  C   UNL d   1      29.046 -14.395  -5.817  0.00  0.00     0.341 C 
ENDBRANCH  15  16
ENDBRANCH  13  15
ENDBRANCH   6   7
BRANCH   4  25
ATOM     25  N   UNL d   1      28.783 -14.825   6.281  0.00  0.00    -0.287 N 
ATOM     26  C   UNL d   1      28.950 -13.935   7.307  0.00  0.00     0.326 C 
ATOM     27  O   UNL d   1      29.133 -12.743   7.131  0.00  0.00    -0.247 OA
ATOM     28  N   UNL d   1      28.915 -14.488   8.585  0.00  0.00    -0.309 N 
ATOM     29  H   UNL d   1      29.035 -15.481   8.726  0.00  0.00     0.170 HD
ATOM     30  H   UNL d   1      28.643 -15.813   6.432  0.00  0.00     0.172 HD
BRANCH  28  31
ATOM     31  C   UNL d   1      29.013 -13.635   9.720  0.00  0.00     0.036 A 
ATOM     32  C   UNL d   1      30.028 -12.681   9.837  0.00  0.00     0.029 A 
ATOM     33  C   UNL d   1      30.110 -11.884  10.992  0.00  0.00     0.002 A 
ATOM     34  C   UNL d   1      29.165 -12.010  12.013  0.00  0.00     0.000 A 
ATOM     35  C   UNL d   1      28.155 -12.955  11.899  0.00  0.00     0.002 A 
ATOM     36  C   UNL d   1      28.087 -13.760  10.765  0.00  0.00     0.029 A 
ENDBRANCH  28  31
ENDBRANCH   4  25
TORSDOF 5
ENDMDL
MODEL 9
REMARK VINA RESULT:    -8.698      3.364      9.876
REMARK INTER + INTRA:         -11.131
REMARK INTER:                 -10.189
REMARK INTRA:                  -0.942
REMARK CONF_INDEPENDENT:        1.492
REMARK UNBOUND:                -0.942
REMARK  5 active torsions:
REMARK  status: ('A' for Active; 'I' for Inactive)
REMARK    1  A    between atoms: C_4  and  N_5 
REMARK       I    between atoms: N_5  and  C_6 
REMARK       I    between atoms: C_6  and  N_8 
REMARK    2  A    between atoms: N_8  and  C_9 
REMARK    3  A    between atoms: C_16  and  C_17 
REMARK       I    between atoms: C_17  and  N_19 
REMARK    4  A    between atoms: N_22  and  C_23 
REMARK    5  A    between atoms: C_23  and  C_24 
ROOT
ATOM      1  C   UNL d   1      27.423 -11.516   2.758  0.00  0.00     0.072 C 
ATOM      2  C   UNL d   1      28.670 -12.139   3.131  0.00  0.00     0.056 A 
ATOM      3  N   UNL d   1      28.912 -12.150   4.481  0.00  0.00    -0.228 NA
ATOM      4  C   UNL d   1      30.026 -12.785   4.704  0.00  0.00     0.175 A 
ATOM      5  S   UNL d   1      30.828 -13.352   3.291  0.00  0.00    -0.044 SA
ATOM      6  C   UNL d   1      29.590 -12.722   2.270  0.00  0.00     0.100 A 
ENDROOT
BRANCH   6   7
ATOM      7  C   UNL d   1      29.609 -12.962   0.792  0.00  0.00     0.262 C 
ATOM      8  O   UNL d   1      30.121 -12.212  -0.006  0.00  0.00    -0.267 OA
ATOM      9  N   UNL d   1      29.095 -14.201   0.342  0.00  0.00    -0.344 N 
ATOM     10  C   UNL d   1      29.791 -15.047  -0.640  0.00  0.00     0.156 C 
ATOM     11  C   UNL d   1      27.715 -14.604   0.525  0.00  0.00     0.156 C 
ATOM     12  C   UNL d   1      29.707 -16.530  -0.155  0.00  0.00     0.292 C 
ATOM     13  N   UNL d   1      28.315 -17.038   0.068  0.00  0.00     0.095 N 
ATOM     14  C   UNL d   1      27.646 -16.111   0.982  0.00  0.00     0.292 C 
BRANCH  13  15
ATOM     15  C   UNL d   1      27.567 -17.178  -1.181  0.00  0.00     0.311 C 
BRANCH  15  16
ATOM     16  C   UNL d   1      26.080 -16.969  -1.042  0.00  0.00    -0.031 C 
ATOM     17  C   UNL d   1      25.374 -15.910  -1.574  0.00  0.00     0.008 C 
ATOM     18  C   UNL d   1      23.964 -15.966  -1.517  0.00  0.00     0.019 C 
ATOM     19  C   UNL d   1      23.323 -17.054  -0.874  0.00  0.00     0.157 C 
ATOM     20  C   UNL d   1      24.027 -17.711   0.081  0.00  0.00     0.158 C 
ATOM     21  O   UNL d   1      22.724 -18.178  -1.588  0.00  0.00    -0.345 OA
ATOM     22  C   UNL d   1      25.361 -17.854  -0.222  0.00  0.00     0.027 C 
ATOM     23  O   UNL d   1      23.378 -18.816   0.584  0.00  0.00    -0.345 OA
ATOM     24  C   UNL d   1      23.001 -19.321  -0.690  0.00  0.00     0.341 C 
ENDBRANCH  15  16
ENDBRANCH  13  15
ENDBRANCH   6   7
BRANCH   4  25
ATOM     25  N   UNL d   1      30.462 -12.952   6.004  0.00  0.00    -0.287 N 
ATOM     26  C   UNL d   1      29.610 -13.075   7.068  0.00  0.00     0.326 C 
ATOM     27  O   UNL d   1      28.397 -13.038   6.956  0.00  0.00    -0.247 OA
ATOM     28  N   UNL d   1      30.225 -13.231   8.308  0.00  0.00    -0.309 N 
ATOM     29  H   UNL d   1      31.198 -12.996   8.440  0.00  0.00     0.170 HD
ATOM     30  H   UNL d   1      31.467 -12.973   6.104  0.00  0.00     0.172 HD
BRANCH  28  31
ATOM     31  C   UNL d   1      29.423 -13.434   9.467  0.00  0.00     0.036 A 
ATOM     32  C   UNL d   1      29.408 -14.656  10.145  0.00  0.00     0.029 A 
ATOM     33  C   UNL d   1      28.573 -14.826  11.263  0.00  0.00     0.002 A 
ATOM     34  C   UNL d   1      27.781 -13.773  11.727  0.00  0.00     0.000 A 
ATOM     35  C   UNL d   1      27.796 -12.558  11.057  0.00  0.00     0.002 A 
ATOM     36  C   UNL d   1      28.606 -12.397   9.936  0.00  0.00     0.029 A 
ENDBRANCH  28  31
ENDBRANCH   4  25
TORSDOF 5
ENDMDL
