MODEL 1
REMARK VINA RESULT:    -8.300      0.000      0.000
REMARK INTER + INTRA:         -12.591
REMARK INTER:                 -10.388
REMARK INTRA:                  -2.203
REMARK CONF_INDEPENDENT:        2.088
REMARK UNBOUND:                -2.203
REMARK  7 active torsions:
REMARK  status: ('A' for Active; 'I' for Inactive)
REMARK    1  A    between atoms: O_2  and  C_3 
REMARK    2  A    between atoms: C_7  and  C_6 
REMARK    3  A    between atoms: N_11  and  C_12 
REMARK    4  A    between atoms: C_12  and  N_13 
REMARK    5  A    between atoms: C_15  and  O_16 
REMARK    6  A    between atoms: O_16  and  C_17 
REMARK    7  A    between atoms: C_23  and  O_24 
ROOT
ATOM      1  C   UNL d   1      27.331 -16.835   0.255  0.00  0.00     0.225 C 
ATOM      2  C   UNL d   1      28.283 -17.775  -0.472  0.00  0.00     0.040 C 
ATOM      3  C   UNL d   1      28.595 -17.062  -1.763  0.00  0.00     0.030 C 
ATOM      4  C   UNL d   1      28.490 -15.575  -1.456  0.00  0.00     0.238 C 
ATOM      5  N   UNL d   1      27.952 -15.469   0.006  0.00  0.00    -0.045 N 
ATOM      6  H   UNL d   1      27.200 -14.758  -0.056  0.00  0.00     0.282 HD
ENDROOT
BRANCH   5   7
ATOM      7  C   UNL d   1      29.040 -14.999   0.979  0.00  0.00     0.385 C 
BRANCH   7   8
ATOM      8  N   UNL d   1      28.532 -14.455   2.260  0.00  0.00    -0.247 N 
ATOM      9  N   UNL d   1      29.096 -14.766   3.511  0.00  0.00    -0.269 N 
ATOM     10  C   UNL d   1      28.359 -14.447   4.513  0.00  0.00     0.204 C 
ATOM     11  H   UNL d   1      29.992 -15.200   3.669  0.00  0.00     0.190 HD
ATOM     12  S   UNL d   1      27.030 -13.435   4.124  0.00  0.00    -0.014 SA
ATOM     13  C   UNL d   1      27.452 -13.577   2.408  0.00  0.00     0.165 C 
ATOM     14  S   UNL d   1      26.645 -12.757   1.217  0.00  0.00    -0.051 SA
BRANCH  10  15
ATOM     15  O   UNL d   1      28.580 -14.939   5.742  0.00  0.00    -0.325 OA
BRANCH  15  16
ATOM     16  C   UNL d   1      28.905 -14.196   6.956  0.00  0.00     0.123 C 
ATOM     17  C   UNL d   1      30.405 -13.945   6.972  0.00  0.00     0.040 C 
ATOM     18  C   UNL d   1      28.164 -12.862   6.902  0.00  0.00     0.040 C 
ENDBRANCH  15  16
ENDBRANCH  10  15
ENDBRANCH   7   8
ENDBRANCH   5   7
BRANCH   1  19
ATOM     19  C   UNL d   1      25.890 -17.097  -0.123  0.00  0.00     0.006 C 
ATOM     20  C   UNL d   1      25.308 -18.252   0.448  0.00  0.00     0.015 C 
ATOM     21  C   UNL d   1      24.202 -18.854  -0.138  0.00  0.00     0.037 C 
ATOM     22  C   UNL d   1      23.573 -18.242  -1.212  0.00  0.00     0.070 C 
ATOM     23  C   UNL d   1      24.020 -16.995  -1.645  0.00  0.00     0.074 C 
ATOM     24  C   UNL d   1      25.165 -16.400  -1.095  0.00  0.00     0.079 C 
BRANCH  22  25
ATOM     25  O   UNL d   1      22.471 -18.879  -1.699  0.00  0.00    -0.356 OA
ATOM     26  C   UNL d   1      21.337 -18.918  -0.835  0.00  0.00     0.210 C 
ENDBRANCH  22  25
BRANCH  24  27
ATOM     27  O   UNL d   1      25.629 -15.154  -1.445  0.00  0.00    -0.355 OA
ATOM     28  C   UNL d   1      25.243 -14.707  -2.756  0.00  0.00     0.210 C 
ENDBRANCH  24  27
ENDBRANCH   1  19
TORSDOF 7
ENDMDL
MODEL 2
REMARK VINA RESULT:    -7.693      4.013      6.465
REMARK INTER + INTRA:         -12.368
REMARK INTER:                  -9.781
REMARK INTRA:                  -2.588
REMARK CONF_INDEPENDENT:        2.088
REMARK UNBOUND:                -2.588
REMARK  7 active torsions:
REMARK  status: ('A' for Active; 'I' for Inactive)
REMARK    1  A    between atoms: O_2  and  C_3 
REMARK    2  A    between atoms: C_7  and  C_6 
REMARK    3  A    between atoms: N_11  and  C_12 
REMARK    4  A    between atoms: C_12  and  N_13 
REMARK    5  A    between atoms: C_15  and  O_16 
REMARK    6  A    between atoms: O_16  and  C_17 
REMARK    7  A    between atoms: C_23  and  O_24 
ROOT
ATOM      1  C   UNL d   1      26.878 -15.770  -1.232  0.00  0.00     0.225 C 
ATOM      2  C   UNL d   1      26.641 -14.340  -0.768  0.00  0.00     0.040 C 
ATOM      3  C   UNL d   1      26.911 -14.380   0.714  0.00  0.00     0.030 C 
ATOM      4  C   UNL d   1      27.944 -15.480   0.921  0.00  0.00     0.238 C 
ATOM      5  N   UNL d   1      28.130 -16.169  -0.467  0.00  0.00    -0.045 N 
ATOM      6  H   UNL d   1      28.090 -17.181  -0.251  0.00  0.00     0.282 HD
ENDROOT
BRANCH   5   7
ATOM      7  C   UNL d   1      29.484 -15.819  -1.097  0.00  0.00     0.385 C 
BRANCH   7   8
ATOM      8  N   UNL d   1      29.558 -16.031  -2.562  0.00  0.00    -0.247 N 
ATOM      9  N   UNL d   1      28.897 -15.213  -3.496  0.00  0.00    -0.269 N 
ATOM     10  C   UNL d   1      28.834 -15.711  -4.679  0.00  0.00     0.204 C 
ATOM     11  H   UNL d   1      28.488 -14.309  -3.314  0.00  0.00     0.190 HD
ATOM     12  S   UNL d   1      29.838 -17.079  -4.927  0.00  0.00    -0.014 SA
ATOM     13  C   UNL d   1      30.278 -17.041  -3.210  0.00  0.00     0.165 C 
ATOM     14  S   UNL d   1      31.387 -18.077  -2.547  0.00  0.00    -0.051 SA
BRANCH  10  15
ATOM     15  O   UNL d   1      27.989 -15.235  -5.606  0.00  0.00    -0.325 OA
BRANCH  15  16
ATOM     16  C   UNL d   1      26.667 -14.652  -5.395  0.00  0.00     0.123 C 
ATOM     17  C   UNL d   1      25.906 -15.539  -4.421  0.00  0.00     0.040 C 
ATOM     18  C   UNL d   1      26.859 -13.268  -4.781  0.00  0.00     0.040 C 
ENDBRANCH  15  16
ENDBRANCH  10  15
ENDBRANCH   7   8
ENDBRANCH   5   7
BRANCH   1  19
ATOM     19  C   UNL d   1      25.622 -16.607  -1.126  0.00  0.00     0.006 C 
ATOM     20  C   UNL d   1      24.426 -15.970  -1.530  0.00  0.00     0.015 C 
ATOM     21  C   UNL d   1      23.193 -16.420  -1.076  0.00  0.00     0.037 C 
ATOM     22  C   UNL d   1      23.117 -17.589  -0.334  0.00  0.00     0.070 C 
ATOM     23  C   UNL d   1      24.275 -18.334  -0.111  0.00  0.00     0.074 C 
ATOM     24  C   UNL d   1      25.532 -17.865  -0.520  0.00  0.00     0.079 C 
BRANCH  22  25
ATOM     25  O   UNL d   1      21.865 -17.981   0.035  0.00  0.00    -0.356 OA
ATOM     26  C   UNL d   1      21.443 -19.258  -0.440  0.00  0.00     0.210 C 
ENDBRANCH  22  25
BRANCH  24  27
ATOM     27  O   UNL d   1      26.703 -18.571  -0.373  0.00  0.00    -0.355 OA
ATOM     28  C   UNL d   1      27.030 -18.929   0.980  0.00  0.00     0.210 C 
ENDBRANCH  24  27
ENDBRANCH   1  19
TORSDOF 7
ENDMDL
MODEL 3
REMARK VINA RESULT:    -7.548      2.576      7.357
REMARK INTER + INTRA:         -11.810
REMARK INTER:                  -9.636
REMARK INTRA:                  -2.174
REMARK CONF_INDEPENDENT:        2.088
REMARK UNBOUND:                -2.174
REMARK  7 active torsions:
REMARK  status: ('A' for Active; 'I' for Inactive)
REMARK    1  A    between atoms: O_2  and  C_3 
REMARK    2  A    between atoms: C_7  and  C_6 
REMARK    3  A    between atoms: N_11  and  C_12 
REMARK    4  A    between atoms: C_12  and  N_13 
REMARK    5  A    between atoms: C_15  and  O_16 
REMARK    6  A    between atoms: O_16  and  C_17 
REMARK    7  A    between atoms: C_23  and  O_24 
ROOT
ATOM      1  C   UNL d   1      27.674 -14.410   0.848  0.00  0.00     0.225 C 
ATOM      2  C   UNL d   1      28.274 -13.662  -0.334  0.00  0.00     0.040 C 
ATOM      3  C   UNL d   1      29.758 -13.676  -0.068  0.00  0.00     0.030 C 
ATOM      4  C   UNL d   1      30.029 -14.950   0.720  0.00  0.00     0.238 C 
ATOM      5  N   UNL d   1      28.633 -15.575   1.030  0.00  0.00    -0.045 N 
ATOM      6  H   UNL d   1      28.687 -15.819   2.036  0.00  0.00     0.282 HD
ENDROOT
BRANCH   5   7
ATOM      7  C   UNL d   1      28.378 -16.838   0.198  0.00  0.00     0.385 C 
BRANCH   7   8
ATOM      8  N   UNL d   1      27.016 -16.934  -0.379  0.00  0.00    -0.247 N 
ATOM      9  N   UNL d   1      25.922 -17.489   0.309  0.00  0.00    -0.269 N 
ATOM     10  C   UNL d   1      24.911 -17.753  -0.439  0.00  0.00     0.204 C 
ATOM     11  H   UNL d   1      25.876 -17.685   1.296  0.00  0.00     0.190 HD
ATOM     12  S   UNL d   1      24.997 -17.077  -2.014  0.00  0.00    -0.014 SA
ATOM     13  C   UNL d   1      26.632 -16.496  -1.652  0.00  0.00     0.165 C 
ATOM     14  S   UNL d   1      27.508 -15.572  -2.711  0.00  0.00    -0.051 SA
BRANCH  10  15
ATOM     15  O   UNL d   1      23.917 -18.557  -0.031  0.00  0.00    -0.325 OA
BRANCH  15  16
ATOM     16  C   UNL d   1      22.518 -18.206   0.191  0.00  0.00     0.123 C 
ATOM     17  C   UNL d   1      22.239 -16.891  -0.520  0.00  0.00     0.040 C 
ATOM     18  C   UNL d   1      21.656 -19.308  -0.418  0.00  0.00     0.040 C 
ENDBRANCH  15  16
ENDBRANCH  10  15
ENDBRANCH   7   8
ENDBRANCH   5   7
BRANCH   1  19
ATOM     19  C   UNL d   1      27.375 -13.480   2.003  0.00  0.00     0.006 C 
ATOM     20  C   UNL d   1      26.752 -12.258   1.661  0.00  0.00     0.015 C 
ATOM     21  C   UNL d   1      26.835 -11.158   2.505  0.00  0.00     0.037 C 
ATOM     22  C   UNL d   1      27.409 -11.294   3.759  0.00  0.00     0.070 C 
ATOM     23  C   UNL d   1      27.837 -12.551   4.183  0.00  0.00     0.074 C 
ATOM     24  C   UNL d   1      27.806 -13.659   3.322  0.00  0.00     0.079 C 
BRANCH  22  25
ATOM     25  O   UNL d   1      27.411 -10.176   4.538  0.00  0.00    -0.356 OA
ATOM     26  C   UNL d   1      27.092  -8.952   3.878  0.00  0.00     0.210 C 
ENDBRANCH  22  25
BRANCH  24  27
ATOM     27  O   UNL d   1      28.168 -14.932   3.693  0.00  0.00    -0.355 OA
ATOM     28  C   UNL d   1      28.154 -15.180   5.109  0.00  0.00     0.210 C 
ENDBRANCH  24  27
ENDBRANCH   1  19
TORSDOF 7
ENDMDL
MODEL 4
REMARK VINA RESULT:    -7.542      2.370      7.600
REMARK INTER + INTRA:         -11.858
REMARK INTER:                  -9.630
REMARK INTRA:                  -2.228
REMARK CONF_INDEPENDENT:        2.088
REMARK UNBOUND:                -2.228
REMARK  7 active torsions:
REMARK  status: ('A' for Active; 'I' for Inactive)
REMARK    1  A    between atoms: O_2  and  C_3 
REMARK    2  A    between atoms: C_7  and  C_6 
REMARK    3  A    between atoms: N_11  and  C_12 
REMARK    4  A    between atoms: C_12  and  N_13 
REMARK    5  A    between atoms: C_15  and  O_16 
REMARK    6  A    between atoms: O_16  and  C_17 
REMARK    7  A    between atoms: C_23  and  O_24 
ROOT
ATOM      1  C   UNL d   1      28.061 -14.942   2.158  0.00  0.00     0.225 C 
ATOM      2  C   UNL d   1      27.270 -13.914   1.362  0.00  0.00     0.040 C 
ATOM      3  C   UNL d   1      28.326 -13.074   0.688  0.00  0.00     0.030 C 
ATOM      4  C   UNL d   1      29.520 -13.994   0.477  0.00  0.00     0.238 C 
ATOM      5  N   UNL d   1      29.169 -15.335   1.194  0.00  0.00    -0.045 N 
ATOM      6  H   UNL d   1      30.025 -15.562   1.732  0.00  0.00     0.282 HD
ENDROOT
BRANCH   5   7
ATOM      7  C   UNL d   1      28.868 -16.455   0.190  0.00  0.00     0.385 C 
BRANCH   7   8
ATOM      8  N   UNL d   1      27.454 -16.531  -0.246  0.00  0.00    -0.247 N 
ATOM      9  N   UNL d   1      26.471 -17.266   0.440  0.00  0.00    -0.269 N 
ATOM     10  C   UNL d   1      25.392 -17.455  -0.231  0.00  0.00     0.204 C 
ATOM     11  H   UNL d   1      26.548 -17.638   1.374  0.00  0.00     0.190 HD
ATOM     12  S   UNL d   1      25.266 -16.506  -1.654  0.00  0.00    -0.014 SA
ATOM     13  C   UNL d   1      26.906 -15.897  -1.368  0.00  0.00     0.165 C 
ATOM     14  S   UNL d   1      27.614 -14.747  -2.326  0.00  0.00    -0.051 SA
BRANCH  10  15
ATOM     15  O   UNL d   1      24.487 -18.380   0.125  0.00  0.00    -0.325 OA
BRANCH  15  16
ATOM     16  C   UNL d   1      23.065 -18.410  -0.203  0.00  0.00     0.123 C 
ATOM     17  C   UNL d   1      22.533 -16.986  -0.145  0.00  0.00     0.040 C 
ATOM     18  C   UNL d   1      22.923 -18.950  -1.624  0.00  0.00     0.040 C 
ENDBRANCH  15  16
ENDBRANCH  10  15
ENDBRANCH   7   8
ENDBRANCH   5   7
BRANCH   1  19
ATOM     19  C   UNL d   1      28.400 -14.435   3.543  0.00  0.00     0.006 C 
ATOM     20  C   UNL d   1      27.298 -14.209   4.399  0.00  0.00     0.015 C 
ATOM     21  C   UNL d   1      27.405 -13.346   5.482  0.00  0.00     0.037 C 
ATOM     22  C   UNL d   1      28.640 -12.810   5.815  0.00  0.00     0.070 C 
ATOM     23  C   UNL d   1      29.770 -13.197   5.097  0.00  0.00     0.074 C 
ATOM     24  C   UNL d   1      29.668 -14.027   3.971  0.00  0.00     0.079 C 
BRANCH  22  25
ATOM     25  O   UNL d   1      28.663 -12.007   6.916  0.00  0.00    -0.356 OA
ATOM     26  C   UNL d   1      29.562 -12.394   7.954  0.00  0.00     0.210 C 
ENDBRANCH  22  25
BRANCH  24  27
ATOM     27  O   UNL d   1      30.746 -14.483   3.250  0.00  0.00    -0.355 OA
ATOM     28  C   UNL d   1      31.835 -13.552   3.132  0.00  0.00     0.210 C 
ENDBRANCH  24  27
ENDBRANCH   1  19
TORSDOF 7
ENDMDL
MODEL 5
REMARK VINA RESULT:    -7.397      2.111      3.089
REMARK INTER + INTRA:         -11.447
REMARK INTER:                  -9.485
REMARK INTRA:                  -1.962
REMARK CONF_INDEPENDENT:        2.088
REMARK UNBOUND:                -1.962
REMARK  7 active torsions:
REMARK  status: ('A' for Active; 'I' for Inactive)
REMARK    1  A    between atoms: O_2  and  C_3 
REMARK    2  A    between atoms: C_7  and  C_6 
REMARK    3  A    between atoms: N_11  and  C_12 
REMARK    4  A    between atoms: C_12  and  N_13 
REMARK    5  A    between atoms: C_15  and  O_16 
REMARK    6  A    between atoms: O_16  and  C_17 
REMARK    7  A    between atoms: C_23  and  O_24 
ROOT
ATOM      1  C   UNL d   1      26.885 -16.830   0.504  0.00  0.00     0.225 C 
ATOM      2  C   UNL d   1      27.884 -17.773  -0.152  0.00  0.00     0.040 C 
ATOM      3  C   UNL d   1      28.269 -17.074  -1.431  0.00  0.00     0.030 C 
ATOM      4  C   UNL d   1      28.137 -15.584  -1.150  0.00  0.00     0.238 C 
ATOM      5  N   UNL d   1      27.512 -15.464   0.275  0.00  0.00    -0.045 N 
ATOM      6  H   UNL d   1      26.761 -14.759   0.160  0.00  0.00     0.282 HD
ENDROOT
BRANCH   5   7
ATOM      7  C   UNL d   1      28.537 -14.975   1.306  0.00  0.00     0.385 C 
BRANCH   7   8
ATOM      8  N   UNL d   1      28.033 -13.937   2.236  0.00  0.00    -0.247 N 
ATOM      9  N   UNL d   1      27.087 -12.963   1.868  0.00  0.00    -0.269 N 
ATOM     10  C   UNL d   1      26.991 -11.986   2.696  0.00  0.00     0.204 C 
ATOM     11  H   UNL d   1      26.508 -12.976   1.043  0.00  0.00     0.190 HD
ATOM     12  S   UNL d   1      27.780 -12.247   4.197  0.00  0.00    -0.014 SA
ATOM     13  C   UNL d   1      28.411 -13.782   3.574  0.00  0.00     0.165 C 
ATOM     14  S   UNL d   1      29.302 -14.825   4.502  0.00  0.00    -0.051 SA
BRANCH  10  15
ATOM     15  O   UNL d   1      26.388 -10.833   2.367  0.00  0.00    -0.325 OA
BRANCH  15  16
ATOM     16  C   UNL d   1      27.016  -9.581   1.958  0.00  0.00     0.123 C 
ATOM     17  C   UNL d   1      27.802  -9.838   0.682  0.00  0.00     0.040 C 
ATOM     18  C   UNL d   1      25.908  -8.569   1.680  0.00  0.00     0.040 C 
ENDBRANCH  15  16
ENDBRANCH  10  15
ENDBRANCH   7   8
ENDBRANCH   5   7
BRANCH   1  19
ATOM     19  C   UNL d   1      25.471 -17.106   0.043  0.00  0.00     0.006 C 
ATOM     20  C   UNL d   1      24.851 -18.241   0.616  0.00  0.00     0.015 C 
ATOM     21  C   UNL d   1      23.784 -18.863  -0.019  0.00  0.00     0.037 C 
ATOM     22  C   UNL d   1      23.226 -18.289  -1.151  0.00  0.00     0.070 C 
ATOM     23  C   UNL d   1      23.701 -17.057  -1.598  0.00  0.00     0.074 C 
ATOM     24  C   UNL d   1      24.811 -16.443  -0.997  0.00  0.00     0.079 C 
BRANCH  22  25
ATOM     25  O   UNL d   1      22.157 -18.943  -1.686  0.00  0.00    -0.356 OA
ATOM     26  C   UNL d   1      20.969 -18.951  -0.896  0.00  0.00     0.210 C 
ENDBRANCH  22  25
BRANCH  24  27
ATOM     27  O   UNL d   1      25.298 -15.210  -1.359  0.00  0.00    -0.355 OA
ATOM     28  C   UNL d   1      25.159 -14.887  -2.752  0.00  0.00     0.210 C 
ENDBRANCH  24  27
ENDBRANCH   1  19
TORSDOF 7
ENDMDL
MODEL 6
REMARK VINA RESULT:    -7.348      2.666      7.855
REMARK INTER + INTRA:         -11.753
REMARK INTER:                  -9.436
REMARK INTRA:                  -2.317
REMARK CONF_INDEPENDENT:        2.088
REMARK UNBOUND:                -2.317
REMARK  7 active torsions:
REMARK  status: ('A' for Active; 'I' for Inactive)
REMARK    1  A    between atoms: O_2  and  C_3 
REMARK    2  A    between atoms: C_7  and  C_6 
REMARK    3  A    between atoms: N_11  and  C_12 
REMARK    4  A    between atoms: C_12  and  N_13 
REMARK    5  A    between atoms: C_15  and  O_16 
REMARK    6  A    between atoms: O_16  and  C_17 
REMARK    7  A    between atoms: C_23  and  O_24 
ROOT
ATOM      1  C   UNL d   1      27.780 -15.010   2.015  0.00  0.00     0.225 C 
ATOM      2  C   UNL d   1      27.012 -13.941   1.252  0.00  0.00     0.040 C 
ATOM      3  C   UNL d   1      28.060 -13.260   0.410  0.00  0.00     0.030 C 
ATOM      4  C   UNL d   1      29.116 -14.317   0.120  0.00  0.00     0.238 C 
ATOM      5  N   UNL d   1      28.715 -15.573   0.957  0.00  0.00    -0.045 N 
ATOM      6  H   UNL d   1      29.602 -15.867   1.405  0.00  0.00     0.282 HD
ENDROOT
BRANCH   5   7
ATOM      7  C   UNL d   1      28.178 -16.700   0.066  0.00  0.00     0.385 C 
BRANCH   7   8
ATOM      8  N   UNL d   1      26.922 -16.377  -0.651  0.00  0.00    -0.247 N 
ATOM      9  N   UNL d   1      26.854 -15.461  -1.717  0.00  0.00    -0.269 N 
ATOM     10  C   UNL d   1      25.661 -15.092  -2.017  0.00  0.00     0.204 C 
ATOM     11  H   UNL d   1      27.635 -15.091  -2.236  0.00  0.00     0.190 HD
ATOM     12  S   UNL d   1      24.423 -16.030  -1.288  0.00  0.00    -0.014 SA
ATOM     13  C   UNL d   1      25.661 -16.921  -0.384  0.00  0.00     0.165 C 
ATOM     14  S   UNL d   1      25.300 -18.200   0.604  0.00  0.00    -0.051 SA
BRANCH  10  15
ATOM     15  O   UNL d   1      25.421 -14.012  -2.775  0.00  0.00    -0.325 OA
BRANCH  15  16
ATOM     16  C   UNL d   1      25.257 -13.956  -4.225  0.00  0.00     0.123 C 
ATOM     17  C   UNL d   1      25.953 -12.703  -4.735  0.00  0.00     0.040 C 
ATOM     18  C   UNL d   1      25.929 -15.191  -4.820  0.00  0.00     0.040 C 
ENDBRANCH  15  16
ENDBRANCH  10  15
ENDBRANCH   7   8
ENDBRANCH   5   7
BRANCH   1  19
ATOM     19  C   UNL d   1      28.337 -14.476   3.317  0.00  0.00     0.006 C 
ATOM     20  C   UNL d   1      27.403 -14.333   4.369  0.00  0.00     0.015 C 
ATOM     21  C   UNL d   1      27.649 -13.463   5.423  0.00  0.00     0.037 C 
ATOM     22  C   UNL d   1      28.880 -12.832   5.523  0.00  0.00     0.070 C 
ATOM     23  C   UNL d   1      29.879 -13.133   4.599  0.00  0.00     0.074 C 
ATOM     24  C   UNL d   1      29.628 -13.971   3.502  0.00  0.00     0.079 C 
BRANCH  22  25
ATOM     25  O   UNL d   1      29.051 -12.028   6.610  0.00  0.00    -0.356 OA
ATOM     26  C   UNL d   1      29.277 -12.693   7.852  0.00  0.00     0.210 C 
ENDBRANCH  22  25
BRANCH  24  27
ATOM     27  O   UNL d   1      30.581 -14.344   2.584  0.00  0.00    -0.355 OA
ATOM     28  C   UNL d   1      31.808 -14.836   3.148  0.00  0.00     0.210 C 
ENDBRANCH  24  27
ENDBRANCH   1  19
TORSDOF 7
ENDMDL
MODEL 7
REMARK VINA RESULT:    -7.283      4.094      6.193
REMARK INTER + INTRA:         -11.571
REMARK INTER:                  -9.372
REMARK INTRA:                  -2.200
REMARK CONF_INDEPENDENT:        2.088
REMARK UNBOUND:                -2.200
REMARK  7 active torsions:
REMARK  status: ('A' for Active; 'I' for Inactive)
REMARK    1  A    between atoms: O_2  and  C_3 
REMARK    2  A    between atoms: C_7  and  C_6 
REMARK    3  A    between atoms: N_11  and  C_12 
REMARK    4  A    between atoms: C_12  and  N_13 
REMARK    5  A    between atoms: C_15  and  O_16 
REMARK    6  A    between atoms: O_16  and  C_17 
REMARK    7  A    between atoms: C_23  and  O_24 
ROOT
ATOM      1  C   UNL d   1      25.940 -15.643  -1.420  0.00  0.00     0.225 C 
ATOM      2  C   UNL d   1      26.110 -14.610  -0.315  0.00  0.00     0.040 C 
ATOM      3  C   UNL d   1      27.163 -15.201   0.588  0.00  0.00     0.030 C 
ATOM      4  C   UNL d   1      28.049 -16.055  -0.307  0.00  0.00     0.238 C 
ATOM      5  N   UNL d   1      27.373 -16.059  -1.714  0.00  0.00    -0.045 N 
ATOM      6  H   UNL d   1      27.388 -17.056  -1.995  0.00  0.00     0.282 HD
ENDROOT
BRANCH   5   7
ATOM      7  C   UNL d   1      28.160 -15.216  -2.725  0.00  0.00     0.385 C 
BRANCH   7   8
ATOM      8  N   UNL d   1      27.385 -14.119  -3.352  0.00  0.00    -0.247 N 
ATOM      9  N   UNL d   1      27.461 -12.780  -2.929  0.00  0.00    -0.269 N 
ATOM     10  C   UNL d   1      26.519 -12.032  -3.382  0.00  0.00     0.204 C 
ATOM     11  H   UNL d   1      28.164 -12.384  -2.325  0.00  0.00     0.190 HD
ATOM     12  S   UNL d   1      25.592 -12.742  -4.639  0.00  0.00    -0.014 SA
ATOM     13  C   UNL d   1      26.497 -14.252  -4.425  0.00  0.00     0.165 C 
ATOM     14  S   UNL d   1      26.272 -15.575  -5.395  0.00  0.00    -0.051 SA
BRANCH  10  15
ATOM     15  O   UNL d   1      26.248 -10.831  -2.850  0.00  0.00    -0.325 OA
BRANCH  15  16
ATOM     16  C   UNL d   1      25.624  -9.685  -3.504  0.00  0.00     0.123 C 
ATOM     17  C   UNL d   1      25.754  -8.482  -2.582  0.00  0.00     0.040 C 
ATOM     18  C   UNL d   1      26.382  -9.416  -4.802  0.00  0.00     0.040 C 
ENDBRANCH  15  16
ENDBRANCH  10  15
ENDBRANCH   7   8
ENDBRANCH   5   7
BRANCH   1  19
ATOM     19  C   UNL d   1      24.904 -16.684  -1.056  0.00  0.00     0.006 C 
ATOM     20  C   UNL d   1      23.556 -16.289  -1.218  0.00  0.00     0.015 C 
ATOM     21  C   UNL d   1      22.540 -16.929  -0.521  0.00  0.00     0.037 C 
ATOM     22  C   UNL d   1      22.826 -18.059   0.230  0.00  0.00     0.070 C 
ATOM     23  C   UNL d   1      24.121 -18.576   0.222  0.00  0.00     0.074 C 
ATOM     24  C   UNL d   1      25.167 -17.910  -0.435  0.00  0.00     0.079 C 
BRANCH  22  25
ATOM     25  O   UNL d   1      21.764 -18.650   0.847  0.00  0.00    -0.356 OA
ATOM     26  C   UNL d   1      21.023 -19.582   0.061  0.00  0.00     0.210 C 
ENDBRANCH  22  25
BRANCH  24  27
ATOM     27  O   UNL d   1      26.452 -18.389  -0.520  0.00  0.00    -0.355 OA
ATOM     28  C   UNL d   1      27.030 -18.802   0.730  0.00  0.00     0.210 C 
ENDBRANCH  24  27
ENDBRANCH   1  19
TORSDOF 7
ENDMDL
MODEL 8
REMARK VINA RESULT:    -7.233      2.697      7.681
REMARK INTER + INTRA:         -11.795
REMARK INTER:                  -9.321
REMARK INTRA:                  -2.474
REMARK CONF_INDEPENDENT:        2.088
REMARK UNBOUND:                -2.474
REMARK  7 active torsions:
REMARK  status: ('A' for Active; 'I' for Inactive)
REMARK    1  A    between atoms: O_2  and  C_3 
REMARK    2  A    between atoms: C_7  and  C_6 
REMARK    3  A    between atoms: N_11  and  C_12 
REMARK    4  A    between atoms: C_12  and  N_13 
REMARK    5  A    between atoms: C_15  and  O_16 
REMARK    6  A    between atoms: O_16  and  C_17 
REMARK    7  A    between atoms: C_23  and  O_24 
ROOT
ATOM      1  C   UNL d   1      27.234 -14.401   0.721  0.00  0.00     0.225 C 
ATOM      2  C   UNL d   1      27.780 -13.703  -0.516  0.00  0.00     0.040 C 
ATOM      3  C   UNL d   1      29.276 -13.823  -0.380  0.00  0.00     0.030 C 
ATOM      4  C   UNL d   1      29.524 -15.111   0.394  0.00  0.00     0.238 C 
ATOM      5  N   UNL d   1      28.119 -15.632   0.832  0.00  0.00    -0.045 N 
ATOM      6  H   UNL d   1      28.244 -15.875   1.831  0.00  0.00     0.282 HD
ENDROOT
BRANCH   5   7
ATOM      7  C   UNL d   1      27.702 -16.876   0.037  0.00  0.00     0.385 C 
BRANCH   7   8
ATOM      8  N   UNL d   1      26.496 -16.697  -0.804  0.00  0.00    -0.247 N 
ATOM      9  N   UNL d   1      26.506 -16.025  -2.040  0.00  0.00    -0.269 N 
ATOM     10  C   UNL d   1      25.340 -15.714  -2.479  0.00  0.00     0.204 C 
ATOM     11  H   UNL d   1      27.323 -15.780  -2.578  0.00  0.00     0.190 HD
ATOM     12  S   UNL d   1      24.044 -16.466  -1.643  0.00  0.00    -0.014 SA
ATOM     13  C   UNL d   1      25.210 -17.161  -0.503  0.00  0.00     0.165 C 
ATOM     14  S   UNL d   1      24.767 -18.200   0.708  0.00  0.00    -0.051 SA
BRANCH  10  15
ATOM     15  O   UNL d   1      25.166 -14.815  -3.459  0.00  0.00    -0.325 OA
BRANCH  15  16
ATOM     16  C   UNL d   1      26.191 -14.040  -4.152  0.00  0.00     0.123 C 
ATOM     17  C   UNL d   1      26.677 -14.853  -5.343  0.00  0.00     0.040 C 
ATOM     18  C   UNL d   1      25.547 -12.747  -4.646  0.00  0.00     0.040 C 
ENDBRANCH  15  16
ENDBRANCH  10  15
ENDBRANCH   7   8
ENDBRANCH   5   7
BRANCH   1  19
ATOM     19  C   UNL d   1      27.105 -13.448   1.889  0.00  0.00     0.006 C 
ATOM     20  C   UNL d   1      26.623 -12.157   1.575  0.00  0.00     0.015 C 
ATOM     21  C   UNL d   1      26.878 -11.080   2.414  0.00  0.00     0.037 C 
ATOM     22  C   UNL d   1      27.489 -11.292   3.641  0.00  0.00     0.070 C 
ATOM     23  C   UNL d   1      27.777 -12.595   4.045  0.00  0.00     0.074 C 
ATOM     24  C   UNL d   1      27.570 -13.686   3.187  0.00  0.00     0.079 C 
BRANCH  22  25
ATOM     25  O   UNL d   1      27.664 -10.187   4.419  0.00  0.00    -0.356 OA
ATOM     26  C   UNL d   1      28.845 -10.165   5.219  0.00  0.00     0.210 C 
ENDBRANCH  22  25
BRANCH  24  27
ATOM     27  O   UNL d   1      27.789 -14.996   3.541  0.00  0.00    -0.355 OA
ATOM     28  C   UNL d   1      28.168 -15.199   4.912  0.00  0.00     0.210 C 
ENDBRANCH  24  27
ENDBRANCH   1  19
TORSDOF 7
ENDMDL
MODEL 9
REMARK VINA RESULT:    -7.105      1.926      2.813
REMARK INTER + INTRA:         -11.279
REMARK INTER:                  -9.193
REMARK INTRA:                  -2.086
REMARK CONF_INDEPENDENT:        2.088
REMARK UNBOUND:                -2.086
REMARK  7 active torsions:
REMARK  status: ('A' for Active; 'I' for Inactive)
REMARK    1  A    between atoms: O_2  and  C_3 
REMARK    2  A    between atoms: C_7  and  C_6 
REMARK    3  A    between atoms: N_11  and  C_12 
REMARK    4  A    between atoms: C_12  and  N_13 
REMARK    5  A    between atoms: C_15  and  O_16 
REMARK    6  A    between atoms: O_16  and  C_17 
REMARK    7  A    between atoms: C_23  and  O_24 
ROOT
ATOM      1  C   UNL d   1      27.462 -15.173  -0.337  0.00  0.00     0.225 C 
ATOM      2  C   UNL d   1      27.062 -13.704  -0.304  0.00  0.00     0.040 C 
ATOM      3  C   UNL d   1      26.635 -13.467   1.122  0.00  0.00     0.030 C 
ATOM      4  C   UNL d   1      27.447 -14.438   1.969  0.00  0.00     0.238 C 
ATOM      5  N   UNL d   1      28.229 -15.342   0.965  0.00  0.00    -0.045 N 
ATOM      6  H   UNL d   1      28.081 -16.302   1.326  0.00  0.00     0.282 HD
ENDROOT
BRANCH   5   7
ATOM      7  C   UNL d   1      29.727 -15.011   0.950  0.00  0.00     0.385 C 
BRANCH   7   8
ATOM      8  N   UNL d   1      30.170 -14.102   2.033  0.00  0.00    -0.247 N 
ATOM      9  N   UNL d   1      30.215 -14.477   3.388  0.00  0.00    -0.269 N 
ATOM     10  C   UNL d   1      30.338 -13.491   4.202  0.00  0.00     0.204 C 
ATOM     11  H   UNL d   1      30.160 -15.416   3.749  0.00  0.00     0.190 HD
ATOM     12  S   UNL d   1      30.746 -12.001   3.455  0.00  0.00    -0.014 SA
ATOM     13  C   UNL d   1      30.598 -12.779   1.870  0.00  0.00     0.165 C 
ATOM     14  S   UNL d   1      30.940 -11.994   0.452  0.00  0.00    -0.051 SA
BRANCH  10  15
ATOM     15  O   UNL d   1      30.088 -13.617   5.514  0.00  0.00    -0.325 OA
BRANCH  15  16
ATOM     16  C   UNL d   1      29.126 -14.506   6.158  0.00  0.00     0.123 C 
ATOM     17  C   UNL d   1      28.890 -14.005   7.575  0.00  0.00     0.040 C 
ATOM     18  C   UNL d   1      27.822 -14.437   5.369  0.00  0.00     0.040 C 
ENDBRANCH  15  16
ENDBRANCH  10  15
ENDBRANCH   7   8
ENDBRANCH   5   7
BRANCH   1  19
ATOM     19  C   UNL d   1      26.280 -16.066  -0.647  0.00  0.00     0.006 C 
ATOM     20  C   UNL d   1      25.330 -15.533  -1.548  0.00  0.00     0.015 C 
ATOM     21  C   UNL d   1      24.026 -16.011  -1.569  0.00  0.00     0.037 C 
ATOM     22  C   UNL d   1      23.684 -17.114  -0.802  0.00  0.00     0.070 C 
ATOM     23  C   UNL d   1      24.672 -17.771  -0.072  0.00  0.00     0.074 C 
ATOM     24  C   UNL d   1      25.981 -17.270  -0.001  0.00  0.00     0.079 C 
BRANCH  22  25
ATOM     25  O   UNL d   1      22.395 -17.542  -0.915  0.00  0.00    -0.356 OA
ATOM     26  C   UNL d   1      22.036 -18.667  -0.114  0.00  0.00     0.210 C 
ENDBRANCH  22  25
BRANCH  24  27
ATOM     27  O   UNL d   1      27.010 -17.895   0.662  0.00  0.00    -0.355 OA
ATOM     28  C   UNL d   1      28.161 -18.194  -0.146  0.00  0.00     0.210 C 
ENDBRANCH  24  27
ENDBRANCH   1  19
TORSDOF 7
ENDMDL
