MODEL 1
REMARK VINA RESULT:    -9.729      0.000      0.000
REMARK INTER + INTRA:         -12.150
REMARK INTER:                 -11.220
REMARK INTRA:                  -0.930
REMARK CONF_INDEPENDENT:        1.492
REMARK UNBOUND:                -0.930
REMARK  5 active torsions:
REMARK  status: ('A' for Active; 'I' for Inactive)
REMARK       I    between atoms: C_2  and  N_3 
REMARK    1  A    between atoms: C_2  and  C_16 
REMARK    2  A    between atoms: N_3  and  N_4 
REMARK    3  A    between atoms: C_5  and  C_6 
REMARK    4  A    between atoms: C_19  and  O_20 
REMARK    5  A    between atoms: C_22  and  O_23 
ROOT
ATOM      1  O   UNL d   1      21.537 -17.567  -0.917  0.00  0.00    -0.266 OA
ATOM      2  C   UNL d   1      21.727 -18.660  -0.375  0.00  0.00     0.274 C 
ATOM      3  N   UNL d   1      22.968 -19.292  -0.248  0.00  0.00    -0.243 N 
ATOM      4  H   UNL d   1      23.035 -20.183   0.235  0.00  0.00     0.192 HD
ENDROOT
BRANCH   3   5
ATOM      5  N   UNL d   1      24.111 -18.649  -0.670  0.00  0.00    -0.183 NA
ATOM      6  C   UNL d   1      24.609 -17.711   0.078  0.00  0.00     0.151 C 
BRANCH   6   7
ATOM      7  C   UNL d   1      25.859 -16.995  -0.333  0.00  0.00    -0.006 A 
ATOM      8  C   UNL d   1      27.049 -17.373   0.305  0.00  0.00     0.014 A 
ATOM      9  C   UNL d   1      28.239 -16.699   0.039  0.00  0.00     0.002 A 
ATOM     10  C   UNL d   1      28.253 -15.638  -0.863  0.00  0.00     0.012 A 
ATOM     11  C   UNL d   1      27.089 -15.266  -1.551  0.00  0.00    -0.025 A 
ATOM     12  C   UNL d   1      27.141 -14.211  -2.481  0.00  0.00     0.012 A 
ATOM     13  C   UNL d   1      25.865 -15.950  -1.302  0.00  0.00    -0.014 A 
ATOM     14  C   UNL d   1      26.003 -13.820  -3.180  0.00  0.00     0.001 A 
ATOM     15  C   UNL d   1      24.799 -14.475  -2.953  0.00  0.00     0.001 A 
ATOM     16  C   UNL d   1      24.728 -15.519  -2.023  0.00  0.00     0.013 A 
ENDBRANCH   6   7
ENDBRANCH   3   5
BRANCH   2  17
ATOM     17  C   UNL d   1      20.531 -19.380   0.172  0.00  0.00     0.067 A 
ATOM     18  C   UNL d   1      20.432 -19.625   1.558  0.00  0.00     0.022 A 
ATOM     19  C   UNL d   1      19.341 -20.334   2.093  0.00  0.00     0.037 A 
ATOM     20  C   UNL d   1      18.363 -20.824   1.233  0.00  0.00     0.068 A 
ATOM     21  C   UNL d   1      18.464 -20.625  -0.142  0.00  0.00     0.074 A 
ATOM     22  C   UNL d   1      19.538 -19.897  -0.666  0.00  0.00     0.084 A 
BRANCH  20  23
ATOM     23  O   UNL d   1      17.273 -21.509   1.689  0.00  0.00    -0.361 OA
ATOM     24  H   UNL d   1      16.907 -22.060   0.976  0.00  0.00     0.217 HD
ENDBRANCH  20  23
BRANCH  22  25
ATOM     25  O   UNL d   1      19.623 -19.698  -2.017  0.00  0.00    -0.360 OA
ATOM     26  H   UNL d   1      20.221 -18.951  -2.190  0.00  0.00     0.217 HD
ENDBRANCH  22  25
ENDBRANCH   2  17
TORSDOF 5
ENDMDL
MODEL 2
REMARK VINA RESULT:    -9.060      0.938      2.447
REMARK INTER + INTRA:         -11.541
REMARK INTER:                 -10.552
REMARK INTRA:                  -0.989
REMARK CONF_INDEPENDENT:        1.492
REMARK UNBOUND:                -0.989
REMARK  5 active torsions:
REMARK  status: ('A' for Active; 'I' for Inactive)
REMARK       I    between atoms: C_2  and  N_3 
REMARK    1  A    between atoms: C_2  and  C_16 
REMARK    2  A    between atoms: N_3  and  N_4 
REMARK    3  A    between atoms: C_5  and  C_6 
REMARK    4  A    between atoms: C_19  and  O_20 
REMARK    5  A    between atoms: C_22  and  O_23 
ROOT
ATOM      1  O   UNL d   1      22.510 -18.241   0.980  0.00  0.00    -0.266 OA
ATOM      2  C   UNL d   1      21.834 -18.715   0.063  0.00  0.00     0.274 C 
ATOM      3  N   UNL d   1      22.139 -18.614  -1.298  0.00  0.00    -0.243 N 
ATOM      4  H   UNL d   1      21.536 -19.056  -1.986  0.00  0.00     0.192 HD
ENDROOT
BRANCH   3   5
ATOM      5  N   UNL d   1      23.318 -18.021  -1.694  0.00  0.00    -0.183 NA
ATOM      6  C   UNL d   1      23.579 -16.818  -1.280  0.00  0.00     0.151 C 
BRANCH   6   7
ATOM      7  C   UNL d   1      24.854 -16.139  -1.672  0.00  0.00    -0.006 A 
ATOM      8  C   UNL d   1      24.750 -15.022  -2.514  0.00  0.00     0.014 A 
ATOM      9  C   UNL d   1      25.894 -14.386  -2.991  0.00  0.00     0.002 A 
ATOM     10  C   UNL d   1      27.155 -14.860  -2.636  0.00  0.00     0.012 A 
ATOM     11  C   UNL d   1      27.292 -15.946  -1.759  0.00  0.00    -0.025 A 
ATOM     12  C   UNL d   1      28.579 -16.381  -1.392  0.00  0.00     0.012 A 
ATOM     13  C   UNL d   1      26.135 -16.603  -1.251  0.00  0.00    -0.014 A 
ATOM     14  C   UNL d   1      28.747 -17.455  -0.523  0.00  0.00     0.001 A 
ATOM     15  C   UNL d   1      27.632 -18.109  -0.016  0.00  0.00     0.001 A 
ATOM     16  C   UNL d   1      26.345 -17.695  -0.380  0.00  0.00     0.013 A 
ENDBRANCH   6   7
ENDBRANCH   3   5
BRANCH   2  17
ATOM     17  C   UNL d   1      20.573 -19.439   0.432  0.00  0.00     0.067 A 
ATOM     18  C   UNL d   1      20.292 -19.714   1.787  0.00  0.00     0.022 A 
ATOM     19  C   UNL d   1      19.137 -20.426   2.157  0.00  0.00     0.037 A 
ATOM     20  C   UNL d   1      18.278 -20.889   1.165  0.00  0.00     0.068 A 
ATOM     21  C   UNL d   1      18.560 -20.660  -0.179  0.00  0.00     0.074 A 
ATOM     22  C   UNL d   1      19.697 -19.928  -0.541  0.00  0.00     0.084 A 
BRANCH  20  23
ATOM     23  O   UNL d   1      17.135 -21.576   1.458  0.00  0.00    -0.361 OA
ATOM     24  H   UNL d   1      17.239 -22.511   1.214  0.00  0.00     0.217 HD
ENDBRANCH  20  23
BRANCH  22  25
ATOM     25  O   UNL d   1      19.959 -19.699  -1.865  0.00  0.00    -0.360 OA
ATOM     26  H   UNL d   1      19.151 -19.372  -2.295  0.00  0.00     0.217 HD
ENDBRANCH  22  25
ENDBRANCH   2  17
TORSDOF 5
ENDMDL
MODEL 3
REMARK VINA RESULT:    -7.214      4.872      9.380
REMARK INTER + INTRA:          -9.619
REMARK INTER:                  -8.705
REMARK INTRA:                  -0.914
REMARK CONF_INDEPENDENT:        1.492
REMARK UNBOUND:                -0.914
REMARK  5 active torsions:
REMARK  status: ('A' for Active; 'I' for Inactive)
REMARK       I    between atoms: C_2  and  N_3 
REMARK    1  A    between atoms: C_2  and  C_16 
REMARK    2  A    between atoms: N_3  and  N_4 
REMARK    3  A    between atoms: C_5  and  C_6 
REMARK    4  A    between atoms: C_19  and  O_20 
REMARK    5  A    between atoms: C_22  and  O_23 
ROOT
ATOM      1  O   UNL d   1      27.725 -15.208  -5.747  0.00  0.00    -0.266 OA
ATOM      2  C   UNL d   1      27.164 -14.190  -5.333  0.00  0.00     0.274 C 
ATOM      3  N   UNL d   1      26.359 -14.122  -4.191  0.00  0.00    -0.243 N 
ATOM      4  H   UNL d   1      25.953 -13.233  -3.910  0.00  0.00     0.192 HD
ENDROOT
BRANCH   3   5
ATOM      5  N   UNL d   1      26.218 -15.230  -3.384  0.00  0.00    -0.183 NA
ATOM      6  C   UNL d   1      26.416 -15.098  -2.107  0.00  0.00     0.151 C 
BRANCH   6   7
ATOM      7  C   UNL d   1      26.259 -16.271  -1.189  0.00  0.00    -0.006 A 
ATOM      8  C   UNL d   1      27.434 -16.854  -0.693  0.00  0.00     0.014 A 
ATOM      9  C   UNL d   1      27.375 -17.999   0.099  0.00  0.00     0.002 A 
ATOM     10  C   UNL d   1      26.144 -18.575   0.402  0.00  0.00     0.012 A 
ATOM     11  C   UNL d   1      24.949 -17.989  -0.040  0.00  0.00    -0.025 A 
ATOM     12  C   UNL d   1      23.719 -18.575   0.310  0.00  0.00     0.012 A 
ATOM     13  C   UNL d   1      24.987 -16.812  -0.842  0.00  0.00    -0.014 A 
ATOM     14  C   UNL d   1      22.517 -18.016  -0.113  0.00  0.00     0.001 A 
ATOM     15  C   UNL d   1      22.531 -16.868  -0.895  0.00  0.00     0.001 A 
ATOM     16  C   UNL d   1      23.747 -16.278  -1.261  0.00  0.00     0.013 A 
ENDBRANCH   6   7
ENDBRANCH   3   5
BRANCH   2  17
ATOM     17  C   UNL d   1      27.336 -12.930  -6.127  0.00  0.00     0.067 A 
ATOM     18  C   UNL d   1      28.365 -12.841  -7.088  0.00  0.00     0.022 A 
ATOM     19  C   UNL d   1      28.575 -11.657  -7.818  0.00  0.00     0.037 A 
ATOM     20  C   UNL d   1      27.771 -10.550  -7.562  0.00  0.00     0.068 A 
ATOM     21  C   UNL d   1      26.776 -10.608  -6.589  0.00  0.00     0.074 A 
ATOM     22  C   UNL d   1      26.554 -11.796  -5.884  0.00  0.00     0.084 A 
BRANCH  20  23
ATOM     23  O   UNL d   1      27.915  -9.376  -8.243  0.00  0.00    -0.361 OA
ATOM     24  H   UNL d   1      28.547  -9.492  -8.973  0.00  0.00     0.217 HD
ENDBRANCH  20  23
BRANCH  22  25
ATOM     25  O   UNL d   1      25.567 -11.846  -4.938  0.00  0.00    -0.360 OA
ATOM     26  H   UNL d   1      24.780 -11.386  -5.278  0.00  0.00     0.217 HD
ENDBRANCH  22  25
ENDBRANCH   2  17
TORSDOF 5
ENDMDL
MODEL 4
REMARK VINA RESULT:    -7.196      8.485      9.819
REMARK INTER + INTRA:          -9.517
REMARK INTER:                  -8.687
REMARK INTRA:                  -0.830
REMARK CONF_INDEPENDENT:        1.492
REMARK UNBOUND:                -0.830
REMARK  5 active torsions:
REMARK  status: ('A' for Active; 'I' for Inactive)
REMARK       I    between atoms: C_2  and  N_3 
REMARK    1  A    between atoms: C_2  and  C_16 
REMARK    2  A    between atoms: N_3  and  N_4 
REMARK    3  A    between atoms: C_5  and  C_6 
REMARK    4  A    between atoms: C_19  and  O_20 
REMARK    5  A    between atoms: C_22  and  O_23 
ROOT
ATOM      1  O   UNL d   1      33.438 -21.574   1.373  0.00  0.00    -0.266 OA
ATOM      2  C   UNL d   1      32.272 -21.260   1.628  0.00  0.00     0.274 C 
ATOM      3  N   UNL d   1      31.326 -20.843   0.686  0.00  0.00    -0.243 N 
ATOM      4  H   UNL d   1      30.379 -20.625   0.983  0.00  0.00     0.192 HD
ENDROOT
BRANCH   3   5
ATOM      5  N   UNL d   1      31.645 -20.845  -0.655  0.00  0.00    -0.183 NA
ATOM      6  C   UNL d   1      31.120 -19.936  -1.420  0.00  0.00     0.151 C 
BRANCH   6   7
ATOM      7  C   UNL d   1      31.450 -19.890  -2.880  0.00  0.00    -0.006 A 
ATOM      8  C   UNL d   1      32.143 -20.986  -3.412  0.00  0.00     0.014 A 
ATOM      9  C   UNL d   1      32.559 -20.981  -4.742  0.00  0.00     0.002 A 
ATOM     10  C   UNL d   1      32.291 -19.881  -5.553  0.00  0.00     0.012 A 
ATOM     11  C   UNL d   1      31.560 -18.790  -5.063  0.00  0.00    -0.025 A 
ATOM     12  C   UNL d   1      31.275 -17.707  -5.915  0.00  0.00     0.012 A 
ATOM     13  C   UNL d   1      31.115 -18.780  -3.709  0.00  0.00    -0.014 A 
ATOM     14  C   UNL d   1      30.551 -16.611  -5.458  0.00  0.00     0.001 A 
ATOM     15  C   UNL d   1      30.107 -16.581  -4.142  0.00  0.00     0.001 A 
ATOM     16  C   UNL d   1      30.391 -17.645  -3.278  0.00  0.00     0.013 A 
ENDBRANCH   6   7
ENDBRANCH   3   5
BRANCH   2  17
ATOM     17  C   UNL d   1      31.838 -21.306   3.062  0.00  0.00     0.067 A 
ATOM     18  C   UNL d   1      32.794 -21.162   4.090  0.00  0.00     0.022 A 
ATOM     19  C   UNL d   1      32.420 -21.242   5.444  0.00  0.00     0.037 A 
ATOM     20  C   UNL d   1      31.091 -21.497   5.767  0.00  0.00     0.068 A 
ATOM     21  C   UNL d   1      30.142 -21.680   4.765  0.00  0.00     0.074 A 
ATOM     22  C   UNL d   1      30.513 -21.575   3.420  0.00  0.00     0.084 A 
BRANCH  20  23
ATOM     23  O   UNL d   1      30.662 -21.575   7.061  0.00  0.00    -0.361 OA
ATOM     24  H   UNL d   1      30.131 -22.380   7.185  0.00  0.00     0.217 HD
ENDBRANCH  20  23
BRANCH  22  25
ATOM     25  O   UNL d   1      29.570 -21.746   2.444  0.00  0.00    -0.360 OA
ATOM     26  H   UNL d   1      29.273 -20.873   2.134  0.00  0.00     0.217 HD
ENDBRANCH  22  25
ENDBRANCH   2  17
TORSDOF 5
ENDMDL
MODEL 5
REMARK VINA RESULT:    -7.109      6.006      9.097
REMARK INTER + INTRA:          -9.513
REMARK INTER:                  -8.601
REMARK INTRA:                  -0.912
REMARK CONF_INDEPENDENT:        1.492
REMARK UNBOUND:                -0.912
REMARK  5 active torsions:
REMARK  status: ('A' for Active; 'I' for Inactive)
REMARK       I    between atoms: C_2  and  N_3 
REMARK    1  A    between atoms: C_2  and  C_16 
REMARK    2  A    between atoms: N_3  and  N_4 
REMARK    3  A    between atoms: C_5  and  C_6 
REMARK    4  A    between atoms: C_19  and  O_20 
REMARK    5  A    between atoms: C_22  and  O_23 
ROOT
ATOM      1  O   UNL d   1      27.023 -12.832   3.635  0.00  0.00    -0.266 OA
ATOM      2  C   UNL d   1      27.825 -13.726   3.917  0.00  0.00     0.274 C 
ATOM      3  N   UNL d   1      28.156 -14.803   3.088  0.00  0.00    -0.243 N 
ATOM      4  H   UNL d   1      28.846 -15.483   3.393  0.00  0.00     0.192 HD
ENDROOT
BRANCH   3   5
ATOM      5  N   UNL d   1      27.636 -14.872   1.813  0.00  0.00    -0.183 NA
ATOM      6  C   UNL d   1      27.404 -16.042   1.299  0.00  0.00     0.151 C 
BRANCH   6   7
ATOM      7  C   UNL d   1      26.826 -16.166  -0.077  0.00  0.00    -0.006 A 
ATOM      8  C   UNL d   1      27.427 -15.409  -1.092  0.00  0.00     0.014 A 
ATOM      9  C   UNL d   1      26.897 -15.405  -2.380  0.00  0.00     0.002 A 
ATOM     10  C   UNL d   1      25.758 -16.154  -2.668  0.00  0.00     0.012 A 
ATOM     11  C   UNL d   1      25.161 -16.957  -1.686  0.00  0.00    -0.025 A 
ATOM     12  C   UNL d   1      24.031 -17.729  -2.014  0.00  0.00     0.012 A 
ATOM     13  C   UNL d   1      25.695 -16.984  -0.365  0.00  0.00    -0.014 A 
ATOM     14  C   UNL d   1      23.417 -18.536  -1.061  0.00  0.00     0.001 A 
ATOM     15  C   UNL d   1      23.923 -18.578   0.232  0.00  0.00     0.001 A 
ATOM     16  C   UNL d   1      25.039 -17.808   0.578  0.00  0.00     0.013 A 
ENDBRANCH   6   7
ENDBRANCH   3   5
BRANCH   2  17
ATOM     17  C   UNL d   1      28.482 -13.670   5.264  0.00  0.00     0.067 A 
ATOM     18  C   UNL d   1      27.884 -12.933   6.307  0.00  0.00     0.022 A 
ATOM     19  C   UNL d   1      28.500 -12.831   7.568  0.00  0.00     0.037 A 
ATOM     20  C   UNL d   1      29.732 -13.444   7.774  0.00  0.00     0.068 A 
ATOM     21  C   UNL d   1      30.355 -14.143   6.743  0.00  0.00     0.074 A 
ATOM     22  C   UNL d   1      29.727 -14.264   5.498  0.00  0.00     0.084 A 
BRANCH  20  23
ATOM     23  O   UNL d   1      30.376 -13.392   8.976  0.00  0.00    -0.361 OA
ATOM     24  H   UNL d   1      31.111 -14.028   8.985  0.00  0.00     0.217 HD
ENDBRANCH  20  23
BRANCH  22  25
ATOM     25  O   UNL d   1      30.343 -14.962   4.496  0.00  0.00    -0.360 OA
ATOM     26  H   UNL d   1      31.289 -15.044   4.703  0.00  0.00     0.217 HD
ENDBRANCH  22  25
ENDBRANCH   2  17
TORSDOF 5
ENDMDL
MODEL 6
REMARK VINA RESULT:    -6.997      8.877     10.434
REMARK INTER + INTRA:          -9.354
REMARK INTER:                  -8.489
REMARK INTRA:                  -0.866
REMARK CONF_INDEPENDENT:        1.492
REMARK UNBOUND:                -0.866
REMARK  5 active torsions:
REMARK  status: ('A' for Active; 'I' for Inactive)
REMARK       I    between atoms: C_2  and  N_3 
REMARK    1  A    between atoms: C_2  and  C_16 
REMARK    2  A    between atoms: N_3  and  N_4 
REMARK    3  A    between atoms: C_5  and  C_6 
REMARK    4  A    between atoms: C_19  and  O_20 
REMARK    5  A    between atoms: C_22  and  O_23 
ROOT
ATOM      1  O   UNL d   1      33.476 -21.388   1.311  0.00  0.00    -0.266 OA
ATOM      2  C   UNL d   1      32.311 -21.091   1.589  0.00  0.00     0.274 C 
ATOM      3  N   UNL d   1      31.350 -20.655   0.671  0.00  0.00    -0.243 N 
ATOM      4  H   UNL d   1      30.405 -20.453   0.986  0.00  0.00     0.192 HD
ENDROOT
BRANCH   3   5
ATOM      5  N   UNL d   1      31.653 -20.615  -0.672  0.00  0.00    -0.183 NA
ATOM      6  C   UNL d   1      30.993 -19.795  -1.434  0.00  0.00     0.151 C 
BRANCH   6   7
ATOM      7  C   UNL d   1      31.298 -19.706  -2.897  0.00  0.00    -0.006 A 
ATOM      8  C   UNL d   1      31.331 -18.425  -3.465  0.00  0.00     0.014 A 
ATOM      9  C   UNL d   1      31.525 -18.263  -4.835  0.00  0.00     0.002 A 
ATOM     10  C   UNL d   1      31.685 -19.379  -5.654  0.00  0.00     0.012 A 
ATOM     11  C   UNL d   1      31.704 -20.670  -5.110  0.00  0.00    -0.025 A 
ATOM     12  C   UNL d   1      31.901 -21.776  -5.957  0.00  0.00     0.012 A 
ATOM     13  C   UNL d   1      31.518 -20.857  -3.709  0.00  0.00    -0.014 A 
ATOM     14  C   UNL d   1      31.925 -23.071  -5.446  0.00  0.00     0.001 A 
ATOM     15  C   UNL d   1      31.748 -23.274  -4.084  0.00  0.00     0.001 A 
ATOM     16  C   UNL d   1      31.539 -22.185  -3.229  0.00  0.00     0.013 A 
ENDBRANCH   6   7
ENDBRANCH   3   5
BRANCH   2  17
ATOM     17  C   UNL d   1      31.894 -21.183   3.027  0.00  0.00     0.067 A 
ATOM     18  C   UNL d   1      32.841 -20.955   4.048  0.00  0.00     0.022 A 
ATOM     19  C   UNL d   1      32.487 -21.074   5.404  0.00  0.00     0.037 A 
ATOM     20  C   UNL d   1      31.190 -21.453   5.736  0.00  0.00     0.068 A 
ATOM     21  C   UNL d   1      30.253 -21.720   4.741  0.00  0.00     0.074 A 
ATOM     22  C   UNL d   1      30.603 -21.575   3.393  0.00  0.00     0.084 A 
BRANCH  20  23
ATOM     23  O   UNL d   1      30.780 -21.575   7.033  0.00  0.00    -0.361 OA
ATOM     24  H   UNL d   1      30.209 -22.357   7.127  0.00  0.00     0.217 HD
ENDBRANCH  20  23
BRANCH  22  25
ATOM     25  O   UNL d   1      29.672 -21.830   2.423  0.00  0.00    -0.360 OA
ATOM     26  H   UNL d   1      29.302 -20.987   2.111  0.00  0.00     0.217 HD
ENDBRANCH  22  25
ENDBRANCH   2  17
TORSDOF 5
ENDMDL
