MODEL 1
REMARK VINA RESULT:   -10.729      0.000      0.000
REMARK INTER + INTRA:         -14.127
REMARK INTER:                 -12.221
REMARK INTRA:                  -1.906
REMARK CONF_INDEPENDENT:        1.492
REMARK UNBOUND:                -1.906
REMARK  5 active torsions:
REMARK  status: ('A' for Active; 'I' for Inactive)
REMARK    1  A    between atoms: C_7  and  N_8 
REMARK       I    between atoms: N_8  and  C_9 
REMARK       I    between atoms: C_9  and  N_11 
REMARK    2  A    between atoms: N_11  and  C_12 
REMARK    3  A    between atoms: C_14  and  N_15 
REMARK       I    between atoms: N_15  and  C_16 
REMARK    4  A    between atoms: C_16  and  C_18 
REMARK    5  A    between atoms: C_27  and  N_28 
ROOT
ATOM      1  C   UNL d   1      24.901 -15.747  -1.565  0.00  0.00     0.065 A 
ATOM      2  C   UNL d   1      23.629 -16.327  -1.259  0.00  0.00     0.061 A 
ATOM      3  C   UNL d   1      23.528 -17.459  -0.417  0.00  0.00     0.037 A 
ATOM      4  C   UNL d   1      24.716 -18.061  -0.014  0.00  0.00     0.032 A 
ATOM      5  C   UNL d   1      25.959 -17.508  -0.306  0.00  0.00     0.034 A 
ATOM      6  C   UNL d   1      26.094 -16.337  -1.050  0.00  0.00     0.057 A 
ENDROOT
BRANCH   1   7
ATOM      7  N   UNL d   1      24.971 -14.553  -2.376  0.00  0.00    -0.306 N 
ATOM      8  C   UNL d   1      25.641 -14.597  -3.594  0.00  0.00     0.325 C 
ATOM      9  N   UNL d   1      25.918 -13.363  -4.188  0.00  0.00    -0.308 N 
ATOM     10  O   UNL d   1      25.983 -15.677  -4.084  0.00  0.00    -0.247 OA
ATOM     11  H   UNL d   1      25.464 -12.537  -3.830  0.00  0.00     0.170 HD
ATOM     12  H   UNL d   1      24.276 -13.838  -2.226  0.00  0.00     0.170 HD
BRANCH   9  13
ATOM     13  C   UNL d   1      26.824 -13.191  -5.309  0.00  0.00     0.042 A 
ATOM     14  C   UNL d   1      26.837 -12.020  -6.089  0.00  0.00    -0.035 A 
ATOM     15  C   UNL d   1      27.760 -11.908  -7.162  0.00  0.00     0.009 A 
ATOM     16  C   UNL d   1      25.902 -10.872  -5.850  0.00  0.00     0.050 C 
ATOM     17  C   UNL d   1      28.685 -12.915  -7.451  0.00  0.00     0.007 A 
ATOM     18  C   UNL d   1      28.713 -14.057  -6.671  0.00  0.00    -0.060 A 
ATOM     19  C   UNL d   1      29.699 -15.165  -6.896  0.00  0.00     0.048 C 
ATOM     20  C   UNL d   1      27.780 -14.176  -5.633  0.00  0.00     0.037 A 
ENDBRANCH   9  13
ENDBRANCH   1   7
BRANCH   6  21
ATOM     21  N   UNL d   1      27.371 -15.812  -1.124  0.00  0.00    -0.379 N 
ATOM     22  C   UNL d   1      27.708 -14.454  -0.752  0.00  0.00     0.123 C 
ATOM     23  C   UNL d   1      28.649 -13.999  -1.848  0.00  0.00     0.021 C 
ATOM     24  C   UNL d   1      29.375 -15.263  -2.272  0.00  0.00     0.021 C 
ATOM     25  C   UNL d   1      28.394 -16.411  -1.986  0.00  0.00     0.123 C 
ENDBRANCH   6  21
BRANCH   3  26
ATOM     26  N   UNL d   1      22.263 -17.947   0.063  0.00  0.00    -0.323 N 
ATOM     27  C   UNL d   1      21.467 -18.863  -0.634  0.00  0.00     0.256 C 
ATOM     28  O   UNL d   1      21.686 -19.321  -1.760  0.00  0.00    -0.267 OA
ATOM     29  H   UNL d   1      22.023 -17.738   1.024  0.00  0.00     0.169 HD
BRANCH  27  30
ATOM     30  C   UNL d   1      20.222 -19.385  -0.024  0.00  0.00     0.032 A 
ATOM     31  C   UNL d   1      20.256 -19.693   1.355  0.00  0.00     0.020 A 
ATOM     32  C   UNL d   1      19.245 -20.453   1.940  0.00  0.00     0.043 A 
ATOM     33  C   UNL d   1      18.163 -20.839   1.164  0.00  0.00     0.116 A 
ATOM     34  F   UNL d   1      17.165 -21.534   1.728  0.00  0.00    -0.206 F 
ATOM     35  C   UNL d   1      18.098 -20.517  -0.192  0.00  0.00     0.043 A 
ATOM     36  C   UNL d   1      19.134 -19.795  -0.797  0.00  0.00     0.020 A 
ENDBRANCH  27  30
ENDBRANCH   3  26
TORSDOF 5
ENDMDL
MODEL 2
REMARK VINA RESULT:   -10.523      0.900      1.891
REMARK INTER + INTRA:         -13.346
REMARK INTER:                 -12.014
REMARK INTRA:                  -1.332
REMARK CONF_INDEPENDENT:        1.492
REMARK UNBOUND:                -1.332
REMARK  5 active torsions:
REMARK  status: ('A' for Active; 'I' for Inactive)
REMARK    1  A    between atoms: C_7  and  N_8 
REMARK       I    between atoms: N_8  and  C_9 
REMARK       I    between atoms: C_9  and  N_11 
REMARK    2  A    between atoms: N_11  and  C_12 
REMARK    3  A    between atoms: C_14  and  N_15 
REMARK       I    between atoms: N_15  and  C_16 
REMARK    4  A    between atoms: C_16  and  C_18 
REMARK    5  A    between atoms: C_27  and  N_28 
ROOT
ATOM      1  C   UNL d   1      25.411 -15.745  -1.257  0.00  0.00     0.065 A 
ATOM      2  C   UNL d   1      24.089 -16.231  -1.001  0.00  0.00     0.061 A 
ATOM      3  C   UNL d   1      23.881 -17.498  -0.409  0.00  0.00     0.037 A 
ATOM      4  C   UNL d   1      25.002 -18.302  -0.213  0.00  0.00     0.032 A 
ATOM      5  C   UNL d   1      26.291 -17.842  -0.459  0.00  0.00     0.034 A 
ATOM      6  C   UNL d   1      26.541 -16.560  -0.950  0.00  0.00     0.057 A 
ENDROOT
BRANCH   1   7
ATOM      7  N   UNL d   1      25.597 -14.420  -1.805  0.00  0.00    -0.306 N 
ATOM      8  C   UNL d   1      25.820 -14.275  -3.170  0.00  0.00     0.325 C 
ATOM      9  N   UNL d   1      26.271 -13.020  -3.589  0.00  0.00    -0.308 N 
ATOM     10  O   UNL d   1      25.648 -15.224  -3.939  0.00  0.00    -0.247 OA
ATOM     11  H   UNL d   1      26.223 -12.245  -2.944  0.00  0.00     0.170 HD
ATOM     12  H   UNL d   1      25.234 -13.638  -1.283  0.00  0.00     0.170 HD
BRANCH   9  13
ATOM     13  C   UNL d   1      26.802 -12.753  -4.912  0.00  0.00     0.042 A 
ATOM     14  C   UNL d   1      27.707 -13.624  -5.547  0.00  0.00    -0.035 A 
ATOM     15  C   UNL d   1      28.176 -13.313  -6.850  0.00  0.00     0.009 A 
ATOM     16  C   UNL d   1      28.220 -14.877  -4.900  0.00  0.00     0.050 C 
ATOM     17  C   UNL d   1      27.741 -12.180  -7.542  0.00  0.00     0.007 A 
ATOM     18  C   UNL d   1      26.822 -11.332  -6.950  0.00  0.00    -0.060 A 
ATOM     19  C   UNL d   1      26.280 -10.116  -7.643  0.00  0.00     0.048 C 
ATOM     20  C   UNL d   1      26.386 -11.627  -5.652  0.00  0.00     0.037 A 
ENDBRANCH   9  13
ENDBRANCH   1   7
BRANCH   6  21
ATOM     21  N   UNL d   1      27.869 -16.178  -0.991  0.00  0.00    -0.379 N 
ATOM     22  C   UNL d   1      28.672 -16.179  -2.196  0.00  0.00     0.123 C 
ATOM     23  C   UNL d   1      29.998 -16.757  -1.749  0.00  0.00     0.021 C 
ATOM     24  C   UNL d   1      30.137 -16.312  -0.304  0.00  0.00     0.021 C 
ATOM     25  C   UNL d   1      28.698 -16.167   0.217  0.00  0.00     0.123 C 
ENDBRANCH   6  21
BRANCH   3  26
ATOM     26  N   UNL d   1      22.585 -17.934   0.036  0.00  0.00    -0.323 N 
ATOM     27  C   UNL d   1      21.782 -18.836  -0.671  0.00  0.00     0.256 C 
ATOM     28  O   UNL d   1      22.024 -19.325  -1.780  0.00  0.00    -0.267 OA
ATOM     29  H   UNL d   1      22.319 -17.698   0.984  0.00  0.00     0.169 HD
BRANCH  27  30
ATOM     30  C   UNL d   1      20.500 -19.304  -0.096  0.00  0.00     0.032 A 
ATOM     31  C   UNL d   1      20.449 -19.493   1.304  0.00  0.00     0.020 A 
ATOM     32  C   UNL d   1      19.400 -20.199   1.889  0.00  0.00     0.043 A 
ATOM     33  C   UNL d   1      18.364 -20.649   1.085  0.00  0.00     0.116 A 
ATOM     34  F   UNL d   1      17.330 -21.293   1.645  0.00  0.00    -0.206 F 
ATOM     35  C   UNL d   1      18.383 -20.444  -0.295  0.00  0.00     0.043 A 
ATOM     36  C   UNL d   1      19.458 -19.777  -0.895  0.00  0.00     0.020 A 
ENDBRANCH  27  30
ENDBRANCH   3  26
TORSDOF 5
ENDMDL
MODEL 3
REMARK VINA RESULT:    -9.624      2.534      5.037
REMARK INTER + INTRA:         -12.873
REMARK INTER:                 -11.116
REMARK INTRA:                  -1.758
REMARK CONF_INDEPENDENT:        1.492
REMARK UNBOUND:                -1.758
REMARK  5 active torsions:
REMARK  status: ('A' for Active; 'I' for Inactive)
REMARK    1  A    between atoms: C_7  and  N_8 
REMARK       I    between atoms: N_8  and  C_9 
REMARK       I    between atoms: C_9  and  N_11 
REMARK    2  A    between atoms: N_11  and  C_12 
REMARK    3  A    between atoms: C_14  and  N_15 
REMARK       I    between atoms: N_15  and  C_16 
REMARK    4  A    between atoms: C_16  and  C_18 
REMARK    5  A    between atoms: C_27  and  N_28 
ROOT
ATOM      1  C   UNL d   1      26.135 -17.010  -0.202  0.00  0.00     0.065 A 
ATOM      2  C   UNL d   1      25.010 -17.646   0.412  0.00  0.00     0.061 A 
ATOM      3  C   UNL d   1      23.865 -17.990  -0.345  0.00  0.00     0.037 A 
ATOM      4  C   UNL d   1      23.827 -17.565  -1.671  0.00  0.00     0.032 A 
ATOM      5  C   UNL d   1      24.914 -16.945  -2.277  0.00  0.00     0.034 A 
ATOM      6  C   UNL d   1      26.097 -16.678  -1.589  0.00  0.00     0.057 A 
ENDROOT
BRANCH   1   7
ATOM      7  N   UNL d   1      27.317 -16.727   0.582  0.00  0.00    -0.306 N 
ATOM      8  C   UNL d   1      27.544 -15.428   1.023  0.00  0.00     0.325 C 
ATOM      9  N   UNL d   1      28.823 -15.162   1.521  0.00  0.00    -0.308 N 
ATOM     10  O   UNL d   1      26.658 -14.573   0.942  0.00  0.00    -0.247 OA
ATOM     11  H   UNL d   1      29.437 -15.937   1.721  0.00  0.00     0.170 HD
ATOM     12  H   UNL d   1      27.755 -17.493   1.070  0.00  0.00     0.170 HD
BRANCH   9  13
ATOM     13  C   UNL d   1      29.328 -13.827   1.780  0.00  0.00     0.042 A 
ATOM     14  C   UNL d   1      29.135 -13.179   3.014  0.00  0.00    -0.035 A 
ATOM     15  C   UNL d   1      29.670 -11.879   3.209  0.00  0.00     0.009 A 
ATOM     16  C   UNL d   1      28.369 -13.796   4.147  0.00  0.00     0.050 C 
ATOM     17  C   UNL d   1      30.416 -11.229   2.222  0.00  0.00     0.007 A 
ATOM     18  C   UNL d   1      30.648 -11.866   1.016  0.00  0.00    -0.060 A 
ATOM     19  C   UNL d   1      31.469 -11.250  -0.078  0.00  0.00     0.048 C 
ATOM     20  C   UNL d   1      30.092 -13.136   0.817  0.00  0.00     0.037 A 
ENDBRANCH   9  13
ENDBRANCH   1   7
BRANCH   6  21
ATOM     21  N   UNL d   1      27.150 -16.211  -2.354  0.00  0.00    -0.379 N 
ATOM     22  C   UNL d   1      28.532 -16.579  -2.134  0.00  0.00     0.123 C 
ATOM     23  C   UNL d   1      29.286 -15.275  -2.289  0.00  0.00     0.021 C 
ATOM     24  C   UNL d   1      28.477 -14.490  -3.307  0.00  0.00     0.021 C 
ATOM     25  C   UNL d   1      27.031 -14.984  -3.147  0.00  0.00     0.123 C 
ENDBRANCH   6  21
BRANCH   3  26
ATOM     26  N   UNL d   1      22.803 -18.797   0.193  0.00  0.00    -0.323 N 
ATOM     27  C   UNL d   1      21.457 -18.643  -0.154  0.00  0.00     0.256 C 
ATOM     28  O   UNL d   1      20.982 -17.775  -0.895  0.00  0.00    -0.267 OA
ATOM     29  H   UNL d   1      23.070 -19.618   0.722  0.00  0.00     0.169 HD
BRANCH  27  30
ATOM     30  C   UNL d   1      20.438 -19.578   0.376  0.00  0.00     0.032 A 
ATOM     31  C   UNL d   1      19.478 -20.074  -0.535  0.00  0.00     0.020 A 
ATOM     32  C   UNL d   1      18.326 -20.711  -0.079  0.00  0.00     0.043 A 
ATOM     33  C   UNL d   1      18.170 -20.921   1.283  0.00  0.00     0.116 A 
ATOM     34  F   UNL d   1      17.085 -21.569   1.728  0.00  0.00    -0.206 F 
ATOM     35  C   UNL d   1      19.123 -20.464   2.195  0.00  0.00     0.043 A 
ATOM     36  C   UNL d   1      20.259 -19.781   1.746  0.00  0.00     0.020 A 
ENDBRANCH  27  30
ENDBRANCH   3  26
TORSDOF 5
ENDMDL
MODEL 4
REMARK VINA RESULT:    -9.538      2.546      5.155
REMARK INTER + INTRA:         -12.734
REMARK INTER:                 -11.030
REMARK INTRA:                  -1.704
REMARK CONF_INDEPENDENT:        1.492
REMARK UNBOUND:                -1.704
REMARK  5 active torsions:
REMARK  status: ('A' for Active; 'I' for Inactive)
REMARK    1  A    between atoms: C_7  and  N_8 
REMARK       I    between atoms: N_8  and  C_9 
REMARK       I    between atoms: C_9  and  N_11 
REMARK    2  A    between atoms: N_11  and  C_12 
REMARK    3  A    between atoms: C_14  and  N_15 
REMARK       I    between atoms: N_15  and  C_16 
REMARK    4  A    between atoms: C_16  and  C_18 
REMARK    5  A    between atoms: C_27  and  N_28 
ROOT
ATOM      1  C   UNL d   1      26.133 -16.965  -0.298  0.00  0.00     0.065 A 
ATOM      2  C   UNL d   1      25.024 -17.615   0.329  0.00  0.00     0.061 A 
ATOM      3  C   UNL d   1      23.857 -17.934  -0.405  0.00  0.00     0.037 A 
ATOM      4  C   UNL d   1      23.782 -17.470  -1.716  0.00  0.00     0.032 A 
ATOM      5  C   UNL d   1      24.853 -16.836  -2.335  0.00  0.00     0.034 A 
ATOM      6  C   UNL d   1      26.057 -16.592  -1.673  0.00  0.00     0.057 A 
ENDROOT
BRANCH   1   7
ATOM      7  N   UNL d   1      27.338 -16.708   0.459  0.00  0.00    -0.306 N 
ATOM      8  C   UNL d   1      27.562 -15.433   0.967  0.00  0.00     0.325 C 
ATOM      9  N   UNL d   1      28.853 -15.176   1.435  0.00  0.00    -0.308 N 
ATOM     10  O   UNL d   1      26.660 -14.590   0.968  0.00  0.00    -0.247 OA
ATOM     11  H   UNL d   1      29.486 -15.950   1.568  0.00  0.00     0.170 HD
ATOM     12  H   UNL d   1      27.805 -17.493   0.885  0.00  0.00     0.170 HD
BRANCH   9  13
ATOM     13  C   UNL d   1      29.347 -13.849   1.755  0.00  0.00     0.042 A 
ATOM     14  C   UNL d   1      30.457 -13.284   1.098  0.00  0.00    -0.035 A 
ATOM     15  C   UNL d   1      30.879 -11.974   1.447  0.00  0.00     0.009 A 
ATOM     16  C   UNL d   1      31.237 -14.012   0.044  0.00  0.00     0.050 C 
ATOM     17  C   UNL d   1      30.205 -11.208   2.401  0.00  0.00     0.007 A 
ATOM     18  C   UNL d   1      29.089 -11.732   3.029  0.00  0.00    -0.060 A 
ATOM     19  C   UNL d   1      28.292 -10.959   4.038  0.00  0.00     0.048 C 
ATOM     20  C   UNL d   1      28.695 -13.037   2.705  0.00  0.00     0.037 A 
ENDBRANCH   9  13
ENDBRANCH   1   7
BRANCH   6  21
ATOM     21  N   UNL d   1      27.089 -16.106  -2.455  0.00  0.00    -0.379 N 
ATOM     22  C   UNL d   1      28.490 -16.347  -2.181  0.00  0.00     0.123 C 
ATOM     23  C   UNL d   1      29.145 -15.004  -2.428  0.00  0.00     0.021 C 
ATOM     24  C   UNL d   1      28.304 -14.367  -3.519  0.00  0.00     0.021 C 
ATOM     25  C   UNL d   1      26.896 -14.958  -3.345  0.00  0.00     0.123 C 
ENDBRANCH   6  21
BRANCH   3  26
ATOM     26  N   UNL d   1      22.808 -18.753   0.140  0.00  0.00    -0.323 N 
ATOM     27  C   UNL d   1      21.455 -18.599  -0.180  0.00  0.00     0.256 C 
ATOM     28  O   UNL d   1      20.963 -17.721  -0.897  0.00  0.00    -0.267 OA
ATOM     29  H   UNL d   1      23.088 -19.581   0.651  0.00  0.00     0.169 HD
BRANCH  27  30
ATOM     30  C   UNL d   1      20.449 -19.545   0.355  0.00  0.00     0.032 A 
ATOM     31  C   UNL d   1      19.492 -20.054  -0.553  0.00  0.00     0.020 A 
ATOM     32  C   UNL d   1      18.349 -20.704  -0.093  0.00  0.00     0.043 A 
ATOM     33  C   UNL d   1      18.201 -20.915   1.270  0.00  0.00     0.116 A 
ATOM     34  F   UNL d   1      17.125 -21.577   1.719  0.00  0.00    -0.206 F 
ATOM     35  C   UNL d   1      19.151 -20.446   2.178  0.00  0.00     0.043 A 
ATOM     36  C   UNL d   1      20.277 -19.750   1.725  0.00  0.00     0.020 A 
ENDBRANCH  27  30
ENDBRANCH   3  26
TORSDOF 5
ENDMDL
MODEL 5
REMARK VINA RESULT:    -9.517      2.565      5.042
REMARK INTER + INTRA:         -12.524
REMARK INTER:                 -11.008
REMARK INTRA:                  -1.515
REMARK CONF_INDEPENDENT:        1.492
REMARK UNBOUND:                -1.515
REMARK  5 active torsions:
REMARK  status: ('A' for Active; 'I' for Inactive)
REMARK    1  A    between atoms: C_7  and  N_8 
REMARK       I    between atoms: N_8  and  C_9 
REMARK       I    between atoms: C_9  and  N_11 
REMARK    2  A    between atoms: N_11  and  C_12 
REMARK    3  A    between atoms: C_14  and  N_15 
REMARK       I    between atoms: N_15  and  C_16 
REMARK    4  A    between atoms: C_16  and  C_18 
REMARK    5  A    between atoms: C_27  and  N_28 
ROOT
ATOM      1  C   UNL d   1      26.596 -17.237  -0.518  0.00  0.00     0.065 A 
ATOM      2  C   UNL d   1      25.507 -17.904   0.127  0.00  0.00     0.061 A 
ATOM      3  C   UNL d   1      24.189 -17.801  -0.376  0.00  0.00     0.037 A 
ATOM      4  C   UNL d   1      23.978 -16.921  -1.434  0.00  0.00     0.032 A 
ATOM      5  C   UNL d   1      25.028 -16.265  -2.068  0.00  0.00     0.034 A 
ATOM      6  C   UNL d   1      26.353 -16.420  -1.663  0.00  0.00     0.057 A 
ENDROOT
BRANCH   1   7
ATOM      7  N   UNL d   1      27.942 -17.411  -0.021  0.00  0.00    -0.306 N 
ATOM      8  C   UNL d   1      28.688 -16.289   0.327  0.00  0.00     0.325 C 
ATOM      9  N   UNL d   1      30.056 -16.498   0.525  0.00  0.00    -0.308 N 
ATOM     10  O   UNL d   1      28.151 -15.183   0.422  0.00  0.00    -0.247 OA
ATOM     11  H   UNL d   1      30.398 -17.444   0.604  0.00  0.00     0.170 HD
ATOM     12  H   UNL d   1      28.188 -18.304   0.377  0.00  0.00     0.170 HD
BRANCH   9  13
ATOM     13  C   UNL d   1      31.029 -15.427   0.634  0.00  0.00     0.042 A 
ATOM     14  C   UNL d   1      31.955 -15.149  -0.388  0.00  0.00    -0.035 A 
ATOM     15  C   UNL d   1      32.870 -14.075  -0.226  0.00  0.00     0.009 A 
ATOM     16  C   UNL d   1      32.038 -15.951  -1.653  0.00  0.00     0.050 C 
ATOM     17  C   UNL d   1      32.859 -13.258   0.907  0.00  0.00     0.007 A 
ATOM     18  C   UNL d   1      31.929 -13.492   1.905  0.00  0.00    -0.060 A 
ATOM     19  C   UNL d   1      31.831 -12.637   3.134  0.00  0.00     0.048 C 
ATOM     20  C   UNL d   1      31.050 -14.571   1.754  0.00  0.00     0.037 A 
ENDBRANCH   9  13
ENDBRANCH   1   7
BRANCH   6  21
ATOM     21  N   UNL d   1      27.307 -15.843  -2.481  0.00  0.00    -0.379 N 
ATOM     22  C   UNL d   1      27.018 -14.805  -3.448  0.00  0.00     0.123 C 
ATOM     23  C   UNL d   1      27.813 -15.214  -4.670  0.00  0.00     0.021 C 
ATOM     24  C   UNL d   1      29.033 -15.922  -4.108  0.00  0.00     0.021 C 
ATOM     25  C   UNL d   1      28.576 -16.517  -2.766  0.00  0.00     0.123 C 
ENDBRANCH   6  21
BRANCH   3  26
ATOM     26  N   UNL d   1      23.110 -18.607   0.129  0.00  0.00    -0.323 N 
ATOM     27  C   UNL d   1      21.766 -18.404  -0.203  0.00  0.00     0.256 C 
ATOM     28  O   UNL d   1      21.309 -17.490  -0.898  0.00  0.00    -0.267 OA
ATOM     29  H   UNL d   1      23.359 -19.459   0.616  0.00  0.00     0.169 HD
BRANCH  27  30
ATOM     30  C   UNL d   1      20.727 -19.338   0.288  0.00  0.00     0.032 A 
ATOM     31  C   UNL d   1      19.784 -19.809  -0.653  0.00  0.00     0.020 A 
ATOM     32  C   UNL d   1      18.616 -20.443  -0.235  0.00  0.00     0.043 A 
ATOM     33  C   UNL d   1      18.427 -20.676   1.119  0.00  0.00     0.116 A 
ATOM     34  F   UNL d   1      17.327 -21.322   1.528  0.00  0.00    -0.206 F 
ATOM     35  C   UNL d   1      19.364 -20.245   2.060  0.00  0.00     0.043 A 
ATOM     36  C   UNL d   1      20.516 -19.564   1.649  0.00  0.00     0.020 A 
ENDBRANCH  27  30
ENDBRANCH   3  26
TORSDOF 5
ENDMDL
MODEL 6
REMARK VINA RESULT:    -9.483      1.816      2.772
REMARK INTER + INTRA:         -12.313
REMARK INTER:                 -10.975
REMARK INTRA:                  -1.339
REMARK CONF_INDEPENDENT:        1.492
REMARK UNBOUND:                -1.339
REMARK  5 active torsions:
REMARK  status: ('A' for Active; 'I' for Inactive)
REMARK    1  A    between atoms: C_7  and  N_8 
REMARK       I    between atoms: N_8  and  C_9 
REMARK       I    between atoms: C_9  and  N_11 
REMARK    2  A    between atoms: N_11  and  C_12 
REMARK    3  A    between atoms: C_14  and  N_15 
REMARK       I    between atoms: N_15  and  C_16 
REMARK    4  A    between atoms: C_16  and  C_18 
REMARK    5  A    between atoms: C_27  and  N_28 
ROOT
ATOM      1  C   UNL d   1      25.616 -16.439  -1.786  0.00  0.00     0.065 A 
ATOM      2  C   UNL d   1      24.313 -16.943  -1.477  0.00  0.00     0.061 A 
ATOM      3  C   UNL d   1      24.108 -17.801  -0.371  0.00  0.00     0.037 A 
ATOM      4  C   UNL d   1      25.238 -18.240   0.313  0.00  0.00     0.032 A 
ATOM      5  C   UNL d   1      26.510 -17.759   0.021  0.00  0.00     0.034 A 
ATOM      6  C   UNL d   1      26.738 -16.834  -0.999  0.00  0.00     0.057 A 
ENDROOT
BRANCH   1   7
ATOM      7  N   UNL d   1      25.787 -15.513  -2.883  0.00  0.00    -0.306 N 
ATOM      8  C   UNL d   1      26.280 -14.238  -2.625  0.00  0.00     0.325 C 
ATOM      9  N   UNL d   1      26.154 -13.309  -3.661  0.00  0.00    -0.308 N 
ATOM     10  O   UNL d   1      26.771 -13.965  -1.526  0.00  0.00    -0.247 OA
ATOM     11  H   UNL d   1      25.908 -13.638  -4.583  0.00  0.00     0.170 HD
ATOM     12  H   UNL d   1      25.874 -15.892  -3.813  0.00  0.00     0.170 HD
BRANCH   9  13
ATOM     13  C   UNL d   1      26.366 -11.883  -3.498  0.00  0.00     0.042 A 
ATOM     14  C   UNL d   1      26.279 -10.984  -4.577  0.00  0.00    -0.035 A 
ATOM     15  C   UNL d   1      26.481  -9.597  -4.346  0.00  0.00     0.009 A 
ATOM     16  C   UNL d   1      25.995 -11.423  -5.983  0.00  0.00     0.050 C 
ATOM     17  C   UNL d   1      26.731  -9.088  -3.069  0.00  0.00     0.007 A 
ATOM     18  C   UNL d   1      26.781  -9.952  -1.990  0.00  0.00    -0.060 A 
ATOM     19  C   UNL d   1      27.009  -9.478  -0.585  0.00  0.00     0.048 C 
ATOM     20  C   UNL d   1      26.613 -11.322  -2.227  0.00  0.00     0.037 A 
ENDBRANCH   9  13
ENDBRANCH   1   7
BRANCH   6  21
ATOM     21  N   UNL d   1      28.019 -16.319  -1.072  0.00  0.00    -0.379 N 
ATOM     22  C   UNL d   1      28.924 -16.562  -2.176  0.00  0.00     0.123 C 
ATOM     23  C   UNL d   1      30.256 -16.824  -1.504  0.00  0.00     0.021 C 
ATOM     24  C   UNL d   1      30.217 -15.976  -0.244  0.00  0.00     0.021 C 
ATOM     25  C   UNL d   1      28.730 -15.867   0.127  0.00  0.00     0.123 C 
ENDBRANCH   6  21
BRANCH   3  26
ATOM     26  N   UNL d   1      22.793 -18.169   0.081  0.00  0.00    -0.323 N 
ATOM     27  C   UNL d   1      21.894 -18.928  -0.676  0.00  0.00     0.256 C 
ATOM     28  O   UNL d   1      22.058 -19.324  -1.835  0.00  0.00    -0.267 OA
ATOM     29  H   UNL d   1      22.578 -18.006   1.057  0.00  0.00     0.169 HD
BRANCH  27  30
ATOM     30  C   UNL d   1      20.595 -19.342  -0.097  0.00  0.00     0.032 A 
ATOM     31  C   UNL d   1      20.561 -19.619   1.288  0.00  0.00     0.020 A 
ATOM     32  C   UNL d   1      19.478 -20.288   1.855  0.00  0.00     0.043 A 
ATOM     33  C   UNL d   1      18.395 -20.609   1.052  0.00  0.00     0.116 A 
ATOM     34  F   UNL d   1      17.330 -21.215   1.596  0.00  0.00    -0.206 F 
ATOM     35  C   UNL d   1      18.397 -20.315  -0.312  0.00  0.00     0.043 A 
ATOM     36  C   UNL d   1      19.503 -19.687  -0.897  0.00  0.00     0.020 A 
ENDBRANCH  27  30
ENDBRANCH   3  26
TORSDOF 5
ENDMDL
MODEL 7
REMARK VINA RESULT:    -9.134      3.041      5.583
REMARK INTER + INTRA:         -12.039
REMARK INTER:                 -10.626
REMARK INTRA:                  -1.413
REMARK CONF_INDEPENDENT:        1.492
REMARK UNBOUND:                -1.413
REMARK  5 active torsions:
REMARK  status: ('A' for Active; 'I' for Inactive)
REMARK    1  A    between atoms: C_7  and  N_8 
REMARK       I    between atoms: N_8  and  C_9 
REMARK       I    between atoms: C_9  and  N_11 
REMARK    2  A    between atoms: N_11  and  C_12 
REMARK    3  A    between atoms: C_14  and  N_15 
REMARK       I    between atoms: N_15  and  C_16 
REMARK    4  A    between atoms: C_16  and  C_18 
REMARK    5  A    between atoms: C_27  and  N_28 
ROOT
ATOM      1  C   UNL d   1      26.465 -16.273  -0.271  0.00  0.00     0.065 A 
ATOM      2  C   UNL d   1      25.167 -16.619   0.222  0.00  0.00     0.061 A 
ATOM      3  C   UNL d   1      24.080 -16.813  -0.662  0.00  0.00     0.037 A 
ATOM      4  C   UNL d   1      24.293 -16.522  -2.007  0.00  0.00     0.032 A 
ATOM      5  C   UNL d   1      25.550 -16.183  -2.498  0.00  0.00     0.034 A 
ATOM      6  C   UNL d   1      26.667 -16.080  -1.670  0.00  0.00     0.057 A 
ENDROOT
BRANCH   1   7
ATOM      7  N   UNL d   1      27.572 -16.144   0.650  0.00  0.00    -0.306 N 
ATOM      8  C   UNL d   1      27.708 -14.973   1.388  0.00  0.00     0.325 C 
ATOM      9  N   UNL d   1      28.934 -14.792   2.034  0.00  0.00    -0.308 N 
ATOM     10  O   UNL d   1      26.793 -14.146   1.429  0.00  0.00    -0.247 OA
ATOM     11  H   UNL d   1      29.567 -15.575   2.105  0.00  0.00     0.170 HD
ATOM     12  H   UNL d   1      28.007 -16.987   0.987  0.00  0.00     0.170 HD
BRANCH   9  13
ATOM     13  C   UNL d   1      29.358 -13.538   2.626  0.00  0.00     0.042 A 
ATOM     14  C   UNL d   1      29.517 -13.380   4.016  0.00  0.00    -0.035 A 
ATOM     15  C   UNL d   1      29.952 -12.130   4.530  0.00  0.00     0.009 A 
ATOM     16  C   UNL d   1      29.232 -14.478   4.998  0.00  0.00     0.050 C 
ATOM     17  C   UNL d   1      30.263 -11.054   3.695  0.00  0.00     0.007 A 
ATOM     18  C   UNL d   1      30.149 -11.202   2.324  0.00  0.00    -0.060 A 
ATOM     19  C   UNL d   1      30.498 -10.105   1.361  0.00  0.00     0.048 C 
ATOM     20  C   UNL d   1      29.690 -12.427   1.824  0.00  0.00     0.037 A 
ENDBRANCH   9  13
ENDBRANCH   1   7
BRANCH   6  21
ATOM     21  N   UNL d   1      27.880 -15.899  -2.310  0.00  0.00    -0.379 N 
ATOM     22  C   UNL d   1      28.035 -15.172  -3.552  0.00  0.00     0.123 C 
ATOM     23  C   UNL d   1      28.993 -16.026  -4.356  0.00  0.00     0.021 C 
ATOM     24  C   UNL d   1      29.883 -16.679  -3.314  0.00  0.00     0.021 C 
ATOM     25  C   UNL d   1      29.020 -16.781  -2.047  0.00  0.00     0.123 C 
ENDBRANCH   6  21
BRANCH   3  26
ATOM     26  N   UNL d   1      22.818 -17.345  -0.223  0.00  0.00    -0.323 N 
ATOM     27  C   UNL d   1      22.159 -18.406  -0.854  0.00  0.00     0.256 C 
ATOM     28  O   UNL d   1      22.511 -18.980  -1.890  0.00  0.00    -0.267 OA
ATOM     29  H   UNL d   1      22.478 -17.040   0.681  0.00  0.00     0.169 HD
BRANCH  27  30
ATOM     30  C   UNL d   1      20.908 -18.954  -0.281  0.00  0.00     0.032 A 
ATOM     31  C   UNL d   1      20.929 -19.325   1.083  0.00  0.00     0.020 A 
ATOM     32  C   UNL d   1      19.912 -20.110   1.623  0.00  0.00     0.043 A 
ATOM     33  C   UNL d   1      18.837 -20.459   0.821  0.00  0.00     0.116 A 
ATOM     34  F   UNL d   1      17.834 -21.178   1.343  0.00  0.00    -0.206 F 
ATOM     35  C   UNL d   1      18.785 -20.075  -0.520  0.00  0.00     0.043 A 
ATOM     36  C   UNL d   1      19.827 -19.327  -1.081  0.00  0.00     0.020 A 
ENDBRANCH  27  30
ENDBRANCH   3  26
TORSDOF 5
ENDMDL
MODEL 8
REMARK VINA RESULT:    -8.979      4.720     10.035
REMARK INTER + INTRA:         -11.853
REMARK INTER:                 -10.470
REMARK INTRA:                  -1.383
REMARK CONF_INDEPENDENT:        1.492
REMARK UNBOUND:                -1.383
REMARK  5 active torsions:
REMARK  status: ('A' for Active; 'I' for Inactive)
REMARK    1  A    between atoms: C_7  and  N_8 
REMARK       I    between atoms: N_8  and  C_9 
REMARK       I    between atoms: C_9  and  N_11 
REMARK    2  A    between atoms: N_11  and  C_12 
REMARK    3  A    between atoms: C_14  and  N_15 
REMARK       I    between atoms: N_15  and  C_16 
REMARK    4  A    between atoms: C_16  and  C_18 
REMARK    5  A    between atoms: C_27  and  N_28 
ROOT
ATOM      1  C   UNL d   1      26.845 -15.682  -1.121  0.00  0.00     0.065 A 
ATOM      2  C   UNL d   1      27.556 -14.922  -2.103  0.00  0.00     0.061 A 
ATOM      3  C   UNL d   1      27.044 -14.763  -3.412  0.00  0.00     0.037 A 
ATOM      4  C   UNL d   1      25.898 -15.484  -3.740  0.00  0.00     0.032 A 
ATOM      5  C   UNL d   1      25.199 -16.227  -2.794  0.00  0.00     0.034 A 
ATOM      6  C   UNL d   1      25.620 -16.327  -1.468  0.00  0.00     0.057 A 
ENDROOT
BRANCH   1   7
ATOM      7  N   UNL d   1      27.360 -15.775   0.227  0.00  0.00    -0.306 N 
ATOM      8  C   UNL d   1      27.040 -14.782   1.146  0.00  0.00     0.325 C 
ATOM      9  N   UNL d   1      27.787 -14.774   2.327  0.00  0.00    -0.308 N 
ATOM     10  O   UNL d   1      26.162 -13.953   0.894  0.00  0.00    -0.247 OA
ATOM     11  H   UNL d   1      28.361 -15.574   2.545  0.00  0.00     0.170 HD
ATOM     12  H   UNL d   1      27.638 -16.683   0.565  0.00  0.00     0.170 HD
BRANCH   9  13
ATOM     13  C   UNL d   1      27.783 -13.679   3.279  0.00  0.00     0.042 A 
ATOM     14  C   UNL d   1      28.114 -13.861   4.634  0.00  0.00    -0.035 A 
ATOM     15  C   UNL d   1      28.108 -12.744   5.510  0.00  0.00     0.009 A 
ATOM     16  C   UNL d   1      28.464 -15.200   5.213  0.00  0.00     0.050 C 
ATOM     17  C   UNL d   1      27.815 -11.453   5.061  0.00  0.00     0.007 A 
ATOM     18  C   UNL d   1      27.525 -11.248   3.724  0.00  0.00    -0.060 A 
ATOM     19  C   UNL d   1      27.235  -9.888   3.159  0.00  0.00     0.048 C 
ATOM     20  C   UNL d   1      27.502 -12.358   2.870  0.00  0.00     0.037 A 
ENDBRANCH   9  13
ENDBRANCH   1   7
BRANCH   6  21
ATOM     21  N   UNL d   1      24.747 -16.958  -0.602  0.00  0.00    -0.379 N 
ATOM     22  C   UNL d   1      24.974 -18.275  -0.046  0.00  0.00     0.123 C 
ATOM     23  C   UNL d   1      23.622 -18.950  -0.145  0.00  0.00     0.021 C 
ATOM     24  C   UNL d   1      22.622 -17.818   0.012  0.00  0.00     0.021 C 
ATOM     25  C   UNL d   1      23.337 -16.566  -0.520  0.00  0.00     0.123 C 
ENDBRANCH   6  21
BRANCH   3  26
ATOM     26  N   UNL d   1      27.629 -13.854  -4.361  0.00  0.00    -0.323 N 
ATOM     27  C   UNL d   1      27.772 -14.137  -5.724  0.00  0.00     0.256 C 
ATOM     28  O   UNL d   1      27.492 -15.200  -6.288  0.00  0.00    -0.267 OA
ATOM     29  H   UNL d   1      27.794 -12.905  -4.049  0.00  0.00     0.169 HD
BRANCH  27  30
ATOM     30  C   UNL d   1      28.301 -13.108  -6.648  0.00  0.00     0.032 A 
ATOM     31  C   UNL d   1      27.574 -11.901  -6.758  0.00  0.00     0.020 A 
ATOM     32  C   UNL d   1      27.823 -11.012  -7.802  0.00  0.00     0.043 A 
ATOM     33  C   UNL d   1      28.851 -11.291  -8.689  0.00  0.00     0.116 A 
ATOM     34  F   UNL d   1      29.126 -10.422  -9.671  0.00  0.00    -0.206 F 
ATOM     35  C   UNL d   1      29.600 -12.464  -8.576  0.00  0.00     0.043 A 
ATOM     36  C   UNL d   1      29.322 -13.384  -7.559  0.00  0.00     0.020 A 
ENDBRANCH  27  30
ENDBRANCH   3  26
TORSDOF 5
ENDMDL
MODEL 9
REMARK VINA RESULT:    -8.668      3.422      6.123
REMARK INTER + INTRA:         -11.758
REMARK INTER:                 -10.160
REMARK INTRA:                  -1.598
REMARK CONF_INDEPENDENT:        1.492
REMARK UNBOUND:                -1.598
REMARK  5 active torsions:
REMARK  status: ('A' for Active; 'I' for Inactive)
REMARK    1  A    between atoms: C_7  and  N_8 
REMARK       I    between atoms: N_8  and  C_9 
REMARK       I    between atoms: C_9  and  N_11 
REMARK    2  A    between atoms: N_11  and  C_12 
REMARK    3  A    between atoms: C_14  and  N_15 
REMARK       I    between atoms: N_15  and  C_16 
REMARK    4  A    between atoms: C_16  and  C_18 
REMARK    5  A    between atoms: C_27  and  N_28 
ROOT
ATOM      1  C   UNL d   1      26.987 -15.963  -0.328  0.00  0.00     0.065 A 
ATOM      2  C   UNL d   1      25.612 -16.262  -0.070  0.00  0.00     0.061 A 
ATOM      3  C   UNL d   1      24.696 -16.450  -1.132  0.00  0.00     0.037 A 
ATOM      4  C   UNL d   1      25.156 -16.200  -2.422  0.00  0.00     0.032 A 
ATOM      5  C   UNL d   1      26.490 -15.907  -2.685  0.00  0.00     0.034 A 
ATOM      6  C   UNL d   1      27.444 -15.812  -1.672  0.00  0.00     0.057 A 
ENDROOT
BRANCH   1   7
ATOM      7  N   UNL d   1      27.915 -15.839   0.774  0.00  0.00    -0.306 N 
ATOM      8  C   UNL d   1      27.733 -14.820   1.703  0.00  0.00     0.325 C 
ATOM      9  N   UNL d   1      28.805 -14.577   2.567  0.00  0.00    -0.308 N 
ATOM     10  O   UNL d   1      26.686 -14.168   1.723  0.00  0.00    -0.247 OA
ATOM     11  H   UNL d   1      29.553 -15.252   2.615  0.00  0.00     0.170 HD
ATOM     12  H   UNL d   1      28.446 -16.654   1.039  0.00  0.00     0.170 HD
BRANCH   9  13
ATOM     13  C   UNL d   1      28.908 -13.406   3.416  0.00  0.00     0.042 A 
ATOM     14  C   UNL d   1      29.302 -12.150   2.917  0.00  0.00    -0.035 A 
ATOM     15  C   UNL d   1      29.366 -11.039   3.799  0.00  0.00     0.009 A 
ATOM     16  C   UNL d   1      29.678 -11.926   1.483  0.00  0.00     0.050 C 
ATOM     17  C   UNL d   1      29.017 -11.143   5.148  0.00  0.00     0.007 A 
ATOM     18  C   UNL d   1      28.589 -12.361   5.648  0.00  0.00    -0.060 A 
ATOM     19  C   UNL d   1      28.163 -12.543   7.075  0.00  0.00     0.048 C 
ATOM     20  C   UNL d   1      28.558 -13.460   4.781  0.00  0.00     0.037 A 
ENDBRANCH   9  13
ENDBRANCH   1   7
BRANCH   6  21
ATOM     21  N   UNL d   1      28.756 -15.680  -2.087  0.00  0.00    -0.379 N 
ATOM     22  C   UNL d   1      29.520 -16.749  -2.694  0.00  0.00     0.123 C 
ATOM     23  C   UNL d   1      30.879 -16.646  -2.033  0.00  0.00     0.021 C 
ATOM     24  C   UNL d   1      31.047 -15.165  -1.743  0.00  0.00     0.021 C 
ATOM     25  C   UNL d   1      29.621 -14.622  -1.558  0.00  0.00     0.123 C 
ENDBRANCH   6  21
BRANCH   3  26
ATOM     26  N   UNL d   1      23.360 -16.937  -0.915  0.00  0.00    -0.323 N 
ATOM     27  C   UNL d   1      23.062 -18.255  -0.553  0.00  0.00     0.256 C 
ATOM     28  O   UNL d   1      23.866 -19.187  -0.438  0.00  0.00    -0.267 OA
ATOM     29  H   UNL d   1      22.620 -16.248  -0.865  0.00  0.00     0.169 HD
BRANCH  27  30
ATOM     30  C   UNL d   1      21.666 -18.651  -0.259  0.00  0.00     0.032 A 
ATOM     31  C   UNL d   1      21.347 -18.950   1.085  0.00  0.00     0.020 A 
ATOM     32  C   UNL d   1      20.160 -19.605   1.407  0.00  0.00     0.043 A 
ATOM     33  C   UNL d   1      19.257 -19.890   0.394  0.00  0.00     0.116 A 
ATOM     34  F   UNL d   1      18.094 -20.482   0.699  0.00  0.00    -0.206 F 
ATOM     35  C   UNL d   1      19.541 -19.574  -0.935  0.00  0.00     0.043 A 
ATOM     36  C   UNL d   1      20.754 -18.960  -1.270  0.00  0.00     0.020 A 
ENDBRANCH  27  30
ENDBRANCH   3  26
TORSDOF 5
ENDMDL
