MODEL 1
REMARK VINA RESULT:    -8.403      0.000      0.000
REMARK INTER + INTRA:         -13.323
REMARK INTER:                 -11.684
REMARK INTRA:                  -1.639
REMARK CONF_INDEPENDENT:        3.281
REMARK UNBOUND:                -1.639
REMARK  11 active torsions:
REMARK  status: ('A' for Active; 'I' for Inactive)
REMARK    1  A    between atoms: C_2  and  C_3 
REMARK    2  A    between atoms: C_3  and  O_4 
REMARK    3  A    between atoms: O_4  and  C_5 
REMARK    4  A    between atoms: C_5  and  C_7 
REMARK    5  A    between atoms: C_7  and  C_8 
REMARK    6  A    between atoms: C_8  and  C_9 
REMARK       I    between atoms: C_9  and  N_11 
REMARK    7  A    between atoms: N_11  and  C_12 
REMARK    8  A    between atoms: C_12  and  N_14 
REMARK    9  A    between atoms: N_14  and  C_15 
REMARK   10  A    between atoms: C_19  and  N_20 
REMARK       I    between atoms: N_20  and  C_21 
REMARK   11  A    between atoms: C_21  and  C_23 
ROOT
ATOM      1  N   UNL d   1      25.142 -15.796  -2.738  0.00  0.00    -0.333 N 
ATOM      2  H   UNL d   1      24.140 -15.911  -2.797  0.00  0.00     0.168 HD
ENDROOT
BRANCH   1   3
ATOM      3  C   UNL d   1      25.905 -16.446  -1.721  0.00  0.00     0.178 C 
ATOM      4  S   UNL d   1      27.556 -16.121  -1.478  0.00  0.00    -0.040 SA
BRANCH   3   5
ATOM      5  N   UNL d   1      25.171 -17.321  -0.873  0.00  0.00    -0.304 N 
ATOM      6  C   UNL d   1      23.798 -17.176  -0.580  0.00  0.00     0.224 C 
ATOM      7  O   UNL d   1      23.118 -16.211  -0.927  0.00  0.00    -0.273 OA
ATOM      8  H   UNL d   1      25.653 -18.118  -0.478  0.00  0.00     0.171 HD
BRANCH   6   9
ATOM      9  C   UNL d   1      23.074 -18.245   0.230  0.00  0.00     0.113 C 
BRANCH   9  10
ATOM     10  C   UNL d   1      22.420 -19.274  -0.752  0.00  0.00     0.120 C 
BRANCH  10  11
ATOM     11  C   UNL d   1      21.021 -18.885  -1.157  0.00  0.00     0.259 C 
ATOM     12  O   UNL d   1      20.653 -17.713  -1.270  0.00  0.00    -0.265 OA
BRANCH  11  13
ATOM     13  O   UNL d   1      20.216 -19.969  -1.382  0.00  0.00    -0.321 OA
BRANCH  13  14
ATOM     14  C   UNL d   1      19.088 -20.056  -0.486  0.00  0.00     0.178 C 
BRANCH  14  15
ATOM     15  C   UNL d   1      19.468 -19.625   0.934  0.00  0.00     0.022 C 
ATOM     16  C   UNL d   1      18.847 -20.541   1.985  0.00  0.00     0.007 C 
ENDBRANCH  14  15
ENDBRANCH  13  14
ENDBRANCH  11  13
ENDBRANCH  10  11
ENDBRANCH   9  10
ENDBRANCH   6   9
ENDBRANCH   3   5
ENDBRANCH   1   3
BRANCH   1  17
ATOM     17  C   UNL d   1      25.702 -14.796  -3.624  0.00  0.00     0.036 A 
ATOM     18  C   UNL d   1      25.307 -13.467  -3.678  0.00  0.00     0.029 A 
ATOM     19  C   UNL d   1      25.956 -12.583  -4.575  0.00  0.00     0.004 A 
ATOM     20  C   UNL d   1      27.024 -13.010  -5.397  0.00  0.00     0.029 A 
ATOM     21  C   UNL d   1      27.398 -14.351  -5.381  0.00  0.00     0.036 A 
ATOM     22  C   UNL d   1      26.692 -15.192  -4.518  0.00  0.00     0.059 A 
BRANCH  21  23
ATOM     23  N   UNL d   1      28.438 -14.867  -6.215  0.00  0.00    -0.327 N 
ATOM     24  C   UNL d   1      29.331 -15.859  -5.808  0.00  0.00     0.225 C 
ATOM     25  O   UNL d   1      29.319 -16.423  -4.715  0.00  0.00    -0.273 OA
ATOM     26  H   UNL d   1      28.513 -14.491  -7.151  0.00  0.00     0.169 HD
BRANCH  24  27
ATOM     27  C   UNL d   1      30.369 -16.334  -6.812  0.00  0.00     0.070 C 
ATOM     28  C   UNL d   1      31.588 -15.429  -6.837  0.00  0.00     0.019 C 
ATOM     29  C   UNL d   1      30.803 -17.756  -6.395  0.00  0.00     0.019 C 
ENDBRANCH  24  27
ENDBRANCH  21  23
ENDBRANCH   1  17
TORSDOF 11
ENDMDL
MODEL 2
REMARK VINA RESULT:    -8.365      2.531      9.101
REMARK INTER + INTRA:         -13.223
REMARK INTER:                 -11.647
REMARK INTRA:                  -1.577
REMARK CONF_INDEPENDENT:        3.281
REMARK UNBOUND:                -1.577
REMARK  11 active torsions:
REMARK  status: ('A' for Active; 'I' for Inactive)
REMARK    1  A    between atoms: C_2  and  C_3 
REMARK    2  A    between atoms: C_3  and  O_4 
REMARK    3  A    between atoms: O_4  and  C_5 
REMARK    4  A    between atoms: C_5  and  C_7 
REMARK    5  A    between atoms: C_7  and  C_8 
REMARK    6  A    between atoms: C_8  and  C_9 
REMARK       I    between atoms: C_9  and  N_11 
REMARK    7  A    between atoms: N_11  and  C_12 
REMARK    8  A    between atoms: C_12  and  N_14 
REMARK    9  A    between atoms: N_14  and  C_15 
REMARK   10  A    between atoms: C_19  and  N_20 
REMARK       I    between atoms: N_20  and  C_21 
REMARK   11  A    between atoms: C_21  and  C_23 
ROOT
ATOM      1  N   UNL d   1      24.281 -14.921  -2.519  0.00  0.00    -0.333 N 
ATOM      2  H   UNL d   1      23.322 -14.615  -2.432  0.00  0.00     0.168 HD
ENDROOT
BRANCH   1   3
ATOM      3  C   UNL d   1      25.121 -14.442  -3.569  0.00  0.00     0.178 C 
ATOM      4  S   UNL d   1      25.976 -15.492  -4.597  0.00  0.00    -0.040 SA
BRANCH   3   5
ATOM      5  N   UNL d   1      25.130 -13.030  -3.748  0.00  0.00    -0.304 N 
ATOM      6  C   UNL d   1      25.892 -12.136  -2.966  0.00  0.00     0.224 C 
ATOM      7  O   UNL d   1      26.535 -12.467  -1.970  0.00  0.00    -0.273 OA
ATOM      8  H   UNL d   1      24.581 -12.642  -4.504  0.00  0.00     0.171 HD
BRANCH   6   9
ATOM      9  C   UNL d   1      25.938 -10.656  -3.327  0.00  0.00     0.113 C 
BRANCH   9  10
ATOM     10  C   UNL d   1      26.627 -10.492  -4.724  0.00  0.00     0.120 C 
BRANCH  10  11
ATOM     11  C   UNL d   1      26.051 -11.412  -5.769  0.00  0.00     0.259 C 
ATOM     12  O   UNL d   1      25.156 -11.074  -6.546  0.00  0.00    -0.265 OA
BRANCH  11  13
ATOM     13  O   UNL d   1      26.629 -12.653  -5.755  0.00  0.00    -0.321 OA
BRANCH  13  14
ATOM     14  C   UNL d   1      27.868 -12.730  -6.494  0.00  0.00     0.178 C 
BRANCH  14  15
ATOM     15  C   UNL d   1      28.855 -13.692  -5.828  0.00  0.00     0.022 C 
ATOM     16  C   UNL d   1      28.869 -15.053  -6.520  0.00  0.00     0.007 C 
ENDBRANCH  14  15
ENDBRANCH  13  14
ENDBRANCH  11  13
ENDBRANCH  10  11
ENDBRANCH   9  10
ENDBRANCH   6   9
ENDBRANCH   3   5
ENDBRANCH   1   3
BRANCH   1  17
ATOM     17  C   UNL d   1      24.665 -16.002  -1.634  0.00  0.00     0.036 A 
ATOM     18  C   UNL d   1      25.928 -16.175  -1.085  0.00  0.00     0.029 A 
ATOM     19  C   UNL d   1      26.164 -17.265  -0.211  0.00  0.00     0.004 A 
ATOM     20  C   UNL d   1      25.136 -18.167   0.147  0.00  0.00     0.029 A 
ATOM     21  C   UNL d   1      23.878 -18.027  -0.432  0.00  0.00     0.036 A 
ATOM     22  C   UNL d   1      23.711 -16.968  -1.328  0.00  0.00     0.059 A 
BRANCH  21  23
ATOM     23  N   UNL d   1      22.802 -18.924  -0.153  0.00  0.00    -0.327 N 
ATOM     24  C   UNL d   1      21.461 -18.620  -0.395  0.00  0.00     0.225 C 
ATOM     25  O   UNL d   1      21.048 -17.574  -0.895  0.00  0.00    -0.273 OA
ATOM     26  H   UNL d   1      23.039 -19.830   0.230  0.00  0.00     0.169 HD
BRANCH  24  27
ATOM     27  C   UNL d   1      20.423 -19.683  -0.078  0.00  0.00     0.070 C 
ATOM     28  C   UNL d   1      20.071 -19.709   1.399  0.00  0.00     0.019 C 
ATOM     29  C   UNL d   1      19.155 -19.354  -0.895  0.00  0.00     0.019 C 
ENDBRANCH  24  27
ENDBRANCH  21  23
ENDBRANCH   1  17
TORSDOF 11
ENDMDL
MODEL 3
REMARK VINA RESULT:    -8.246      3.365      9.435
REMARK INTER + INTRA:         -13.191
REMARK INTER:                 -11.527
REMARK INTRA:                  -1.664
REMARK CONF_INDEPENDENT:        3.281
REMARK UNBOUND:                -1.664
REMARK  11 active torsions:
REMARK  status: ('A' for Active; 'I' for Inactive)
REMARK    1  A    between atoms: C_2  and  C_3 
REMARK    2  A    between atoms: C_3  and  O_4 
REMARK    3  A    between atoms: O_4  and  C_5 
REMARK    4  A    between atoms: C_5  and  C_7 
REMARK    5  A    between atoms: C_7  and  C_8 
REMARK    6  A    between atoms: C_8  and  C_9 
REMARK       I    between atoms: C_9  and  N_11 
REMARK    7  A    between atoms: N_11  and  C_12 
REMARK    8  A    between atoms: C_12  and  N_14 
REMARK    9  A    between atoms: N_14  and  C_15 
REMARK   10  A    between atoms: C_19  and  N_20 
REMARK       I    between atoms: N_20  and  C_21 
REMARK   11  A    between atoms: C_21  and  C_23 
ROOT
ATOM      1  N   UNL d   1      24.308 -14.878  -2.509  0.00  0.00    -0.333 N 
ATOM      2  H   UNL d   1      23.345 -14.595  -2.392  0.00  0.00     0.168 HD
ENDROOT
BRANCH   1   3
ATOM      3  C   UNL d   1      25.117 -14.340  -3.554  0.00  0.00     0.178 C 
ATOM      4  S   UNL d   1      25.968 -15.330  -4.644  0.00  0.00    -0.040 SA
BRANCH   3   5
ATOM      5  N   UNL d   1      25.097 -12.922  -3.675  0.00  0.00    -0.304 N 
ATOM      6  C   UNL d   1      25.927 -12.052  -2.936  0.00  0.00     0.224 C 
ATOM      7  O   UNL d   1      26.667 -12.416  -2.022  0.00  0.00    -0.273 OA
ATOM      8  H   UNL d   1      24.473 -12.510  -4.356  0.00  0.00     0.171 HD
BRANCH   6   9
ATOM      9  C   UNL d   1      25.925 -10.558  -3.237  0.00  0.00     0.113 C 
BRANCH   9  10
ATOM     10  C   UNL d   1      26.675 -10.309  -4.589  0.00  0.00     0.120 C 
BRANCH  10  11
ATOM     11  C   UNL d   1      25.792 -10.523  -5.792  0.00  0.00     0.259 C 
ATOM     12  O   UNL d   1      25.368 -11.630  -6.129  0.00  0.00    -0.265 OA
BRANCH  11  13
ATOM     13  O   UNL d   1      25.521  -9.359  -6.460  0.00  0.00    -0.321 OA
BRANCH  13  14
ATOM     14  C   UNL d   1      25.444  -8.198  -5.605  0.00  0.00     0.178 C 
BRANCH  14  15
ATOM     15  C   UNL d   1      24.040  -8.031  -5.017  0.00  0.00     0.022 C 
ATOM     16  C   UNL d   1      23.103  -7.321  -5.990  0.00  0.00     0.007 C 
ENDBRANCH  14  15
ENDBRANCH  13  14
ENDBRANCH  11  13
ENDBRANCH  10  11
ENDBRANCH   9  10
ENDBRANCH   6   9
ENDBRANCH   3   5
ENDBRANCH   1   3
BRANCH   1  17
ATOM     17  C   UNL d   1      24.731 -15.984  -1.676  0.00  0.00     0.036 A 
ATOM     18  C   UNL d   1      26.021 -16.182  -1.204  0.00  0.00     0.029 A 
ATOM     19  C   UNL d   1      26.296 -17.297  -0.373  0.00  0.00     0.004 A 
ATOM     20  C   UNL d   1      25.281 -18.199   0.019  0.00  0.00     0.029 A 
ATOM     21  C   UNL d   1      23.994 -18.034  -0.484  0.00  0.00     0.036 A 
ATOM     22  C   UNL d   1      23.786 -16.951  -1.341  0.00  0.00     0.059 A 
BRANCH  21  23
ATOM     23  N   UNL d   1      22.927 -18.930  -0.167  0.00  0.00    -0.327 N 
ATOM     24  C   UNL d   1      21.580 -18.634  -0.387  0.00  0.00     0.225 C 
ATOM     25  O   UNL d   1      21.153 -17.598  -0.896  0.00  0.00    -0.273 OA
ATOM     26  H   UNL d   1      23.174 -19.828   0.227  0.00  0.00     0.169 HD
BRANCH  24  27
ATOM     27  C   UNL d   1      20.552 -19.695  -0.030  0.00  0.00     0.070 C 
ATOM     28  C   UNL d   1      20.163 -19.635   1.436  0.00  0.00     0.019 C 
ATOM     29  C   UNL d   1      19.301 -19.440  -0.897  0.00  0.00     0.019 C 
ENDBRANCH  24  27
ENDBRANCH  21  23
ENDBRANCH   1  17
TORSDOF 11
ENDMDL
MODEL 4
REMARK VINA RESULT:    -8.194      4.636      9.035
REMARK INTER + INTRA:         -13.221
REMARK INTER:                 -11.475
REMARK INTRA:                  -1.746
REMARK CONF_INDEPENDENT:        3.281
REMARK UNBOUND:                -1.746
REMARK  11 active torsions:
REMARK  status: ('A' for Active; 'I' for Inactive)
REMARK    1  A    between atoms: C_2  and  C_3 
REMARK    2  A    between atoms: C_3  and  O_4 
REMARK    3  A    between atoms: O_4  and  C_5 
REMARK    4  A    between atoms: C_5  and  C_7 
REMARK    5  A    between atoms: C_7  and  C_8 
REMARK    6  A    between atoms: C_8  and  C_9 
REMARK       I    between atoms: C_9  and  N_11 
REMARK    7  A    between atoms: N_11  and  C_12 
REMARK    8  A    between atoms: C_12  and  N_14 
REMARK    9  A    between atoms: N_14  and  C_15 
REMARK   10  A    between atoms: C_19  and  N_20 
REMARK       I    between atoms: N_20  and  C_21 
REMARK   11  A    between atoms: C_21  and  C_23 
ROOT
ATOM      1  N   UNL d   1      26.958 -17.489   0.734  0.00  0.00    -0.333 N 
ATOM      2  H   UNL d   1      26.915 -18.126   1.517  0.00  0.00     0.168 HD
ENDROOT
BRANCH   1   3
ATOM      3  C   UNL d   1      28.027 -16.552   0.600  0.00  0.00     0.178 C 
ATOM      4  S   UNL d   1      29.283 -16.764  -0.526  0.00  0.00    -0.040 SA
BRANCH   3   5
ATOM      5  N   UNL d   1      27.926 -15.389   1.413  0.00  0.00    -0.304 N 
ATOM      6  C   UNL d   1      27.255 -14.208   1.029  0.00  0.00     0.224 C 
ATOM      7  O   UNL d   1      26.792 -14.012  -0.095  0.00  0.00    -0.273 OA
ATOM      8  H   UNL d   1      28.331 -15.418   2.340  0.00  0.00     0.171 HD
BRANCH   6   9
ATOM      9  C   UNL d   1      27.086 -13.067   2.026  0.00  0.00     0.113 C 
BRANCH   9  10
ATOM     10  C   UNL d   1      28.096 -13.268   3.207  0.00  0.00     0.120 C 
BRANCH  10  11
ATOM     11  C   UNL d   1      27.581 -14.216   4.259  0.00  0.00     0.259 C 
ATOM     12  O   UNL d   1      26.491 -14.077   4.817  0.00  0.00    -0.265 OA
BRANCH  11  13
ATOM     13  O   UNL d   1      28.455 -15.237   4.521  0.00  0.00    -0.321 OA
BRANCH  13  14
ATOM     14  C   UNL d   1      29.684 -14.809   5.145  0.00  0.00     0.178 C 
BRANCH  14  15
ATOM     15  C   UNL d   1      29.459 -14.413   6.607  0.00  0.00     0.022 C 
ATOM     16  C   UNL d   1      29.122 -12.930   6.742  0.00  0.00     0.007 C 
ENDBRANCH  14  15
ENDBRANCH  13  14
ENDBRANCH  11  13
ENDBRANCH  10  11
ENDBRANCH   9  10
ENDBRANCH   6   9
ENDBRANCH   3   5
ENDBRANCH   1   3
BRANCH   1  17
ATOM     17  C   UNL d   1      25.783 -17.469  -0.111  0.00  0.00     0.036 A 
ATOM     18  C   UNL d   1      25.634 -16.699  -1.255  0.00  0.00     0.029 A 
ATOM     19  C   UNL d   1      24.437 -16.793  -2.009  0.00  0.00     0.004 A 
ATOM     20  C   UNL d   1      23.399 -17.680  -1.645  0.00  0.00     0.029 A 
ATOM     21  C   UNL d   1      23.520 -18.425  -0.476  0.00  0.00     0.036 A 
ATOM     22  C   UNL d   1      24.696 -18.257   0.260  0.00  0.00     0.059 A 
BRANCH  21  23
ATOM     23  N   UNL d   1      22.495 -19.310  -0.020  0.00  0.00    -0.327 N 
ATOM     24  C   UNL d   1      21.135 -19.106  -0.263  0.00  0.00     0.225 C 
ATOM     25  O   UNL d   1      20.660 -18.174  -0.911  0.00  0.00    -0.273 OA
ATOM     26  H   UNL d   1      22.784 -20.130   0.496  0.00  0.00     0.169 HD
BRANCH  24  27
ATOM     27  C   UNL d   1      20.157 -20.148   0.255  0.00  0.00     0.070 C 
ATOM     28  C   UNL d   1      19.900 -19.991   1.744  0.00  0.00     0.019 C 
ATOM     29  C   UNL d   1      18.830 -19.962  -0.511  0.00  0.00     0.019 C 
ENDBRANCH  24  27
ENDBRANCH  21  23
ENDBRANCH   1  17
TORSDOF 11
ENDMDL
MODEL 5
REMARK VINA RESULT:    -8.021      1.779      8.944
REMARK INTER + INTRA:         -13.151
REMARK INTER:                 -11.303
REMARK INTRA:                  -1.849
REMARK CONF_INDEPENDENT:        3.281
REMARK UNBOUND:                -1.849
REMARK  11 active torsions:
REMARK  status: ('A' for Active; 'I' for Inactive)
REMARK    1  A    between atoms: C_2  and  C_3 
REMARK    2  A    between atoms: C_3  and  O_4 
REMARK    3  A    between atoms: O_4  and  C_5 
REMARK    4  A    between atoms: C_5  and  C_7 
REMARK    5  A    between atoms: C_7  and  C_8 
REMARK    6  A    between atoms: C_8  and  C_9 
REMARK       I    between atoms: C_9  and  N_11 
REMARK    7  A    between atoms: N_11  and  C_12 
REMARK    8  A    between atoms: C_12  and  N_14 
REMARK    9  A    between atoms: N_14  and  C_15 
REMARK   10  A    between atoms: C_19  and  N_20 
REMARK       I    between atoms: N_20  and  C_21 
REMARK   11  A    between atoms: C_21  and  C_23 
ROOT
ATOM      1  N   UNL d   1      25.402 -16.005  -3.086  0.00  0.00    -0.333 N 
ATOM      2  H   UNL d   1      24.946 -16.494  -3.843  0.00  0.00     0.168 HD
ENDROOT
BRANCH   1   3
ATOM      3  C   UNL d   1      26.088 -14.773  -3.305  0.00  0.00     0.178 C 
ATOM      4  S   UNL d   1      25.469 -13.281  -2.774  0.00  0.00    -0.040 SA
BRANCH   3   5
ATOM      5  N   UNL d   1      27.364 -14.886  -3.926  0.00  0.00    -0.304 N 
ATOM      6  C   UNL d   1      27.558 -15.200  -5.288  0.00  0.00     0.224 C 
ATOM      7  O   UNL d   1      26.653 -15.528  -6.056  0.00  0.00    -0.273 OA
ATOM      8  H   UNL d   1      28.185 -14.699  -3.366  0.00  0.00     0.171 HD
BRANCH   6   9
ATOM      9  C   UNL d   1      28.959 -15.163  -5.888  0.00  0.00     0.113 C 
BRANCH   9  10
ATOM     10  C   UNL d   1      30.003 -15.483  -4.766  0.00  0.00     0.120 C 
BRANCH  10  11
ATOM     11  C   UNL d   1      29.601 -16.661  -3.916  0.00  0.00     0.259 C 
ATOM     12  O   UNL d   1      29.187 -16.549  -2.760  0.00  0.00    -0.265 OA
BRANCH  11  13
ATOM     13  O   UNL d   1      29.748 -17.856  -4.567  0.00  0.00    -0.321 OA
BRANCH  13  14
ATOM     14  C   UNL d   1      30.731 -17.829  -5.625  0.00  0.00     0.178 C 
BRANCH  14  15
ATOM     15  C   UNL d   1      30.849 -19.192  -6.312  0.00  0.00     0.022 C 
ATOM     16  C   UNL d   1      30.406 -20.326  -5.393  0.00  0.00     0.007 C 
ENDBRANCH  14  15
ENDBRANCH  13  14
ENDBRANCH  11  13
ENDBRANCH  10  11
ENDBRANCH   9  10
ENDBRANCH   6   9
ENDBRANCH   3   5
ENDBRANCH   1   3
BRANCH   1  17
ATOM     17  C   UNL d   1      25.468 -16.731  -1.834  0.00  0.00     0.036 A 
ATOM     18  C   UNL d   1      26.510 -16.655  -0.921  0.00  0.00     0.029 A 
ATOM     19  C   UNL d   1      26.438 -17.401   0.282  0.00  0.00     0.004 A 
ATOM     20  C   UNL d   1      25.314 -18.199   0.595  0.00  0.00     0.029 A 
ATOM     21  C   UNL d   1      24.284 -18.315  -0.333  0.00  0.00     0.036 A 
ATOM     22  C   UNL d   1      24.427 -17.601  -1.526  0.00  0.00     0.059 A 
BRANCH  21  23
ATOM     23  N   UNL d   1      23.136 -19.135  -0.107  0.00  0.00    -0.327 N 
ATOM     24  C   UNL d   1      21.831 -18.732  -0.393  0.00  0.00     0.225 C 
ATOM     25  O   UNL d   1      21.512 -17.653  -0.893  0.00  0.00    -0.273 OA
ATOM     26  H   UNL d   1      23.293 -20.060   0.273  0.00  0.00     0.169 HD
BRANCH  24  27
ATOM     27  C   UNL d   1      20.708 -19.721  -0.129  0.00  0.00     0.070 C 
ATOM     28  C   UNL d   1      20.273 -19.710   1.325  0.00  0.00     0.019 C 
ATOM     29  C   UNL d   1      19.512 -19.316  -1.018  0.00  0.00     0.019 C 
ENDBRANCH  24  27
ENDBRANCH  21  23
ENDBRANCH   1  17
TORSDOF 11
ENDMDL
MODEL 6
REMARK VINA RESULT:    -8.001      2.045      8.756
REMARK INTER + INTRA:         -13.971
REMARK INTER:                 -11.283
REMARK INTRA:                  -2.689
REMARK CONF_INDEPENDENT:        3.281
REMARK UNBOUND:                -2.689
REMARK  11 active torsions:
REMARK  status: ('A' for Active; 'I' for Inactive)
REMARK    1  A    between atoms: C_2  and  C_3 
REMARK    2  A    between atoms: C_3  and  O_4 
REMARK    3  A    between atoms: O_4  and  C_5 
REMARK    4  A    between atoms: C_5  and  C_7 
REMARK    5  A    between atoms: C_7  and  C_8 
REMARK    6  A    between atoms: C_8  and  C_9 
REMARK       I    between atoms: C_9  and  N_11 
REMARK    7  A    between atoms: N_11  and  C_12 
REMARK    8  A    between atoms: C_12  and  N_14 
REMARK    9  A    between atoms: N_14  and  C_15 
REMARK   10  A    between atoms: C_19  and  N_20 
REMARK       I    between atoms: N_20  and  C_21 
REMARK   11  A    between atoms: C_21  and  C_23 
ROOT
ATOM      1  N   UNL d   1      24.950 -15.092  -2.120  0.00  0.00    -0.333 N 
ATOM      2  H   UNL d   1      24.338 -15.078  -2.924  0.00  0.00     0.168 HD
ENDROOT
BRANCH   1   3
ATOM      3  C   UNL d   1      25.929 -14.074  -1.916  0.00  0.00     0.178 C 
ATOM      4  S   UNL d   1      26.634 -13.785  -0.396  0.00  0.00    -0.040 SA
BRANCH   3   5
ATOM      5  N   UNL d   1      26.334 -13.372  -3.085  0.00  0.00    -0.304 N 
ATOM      6  C   UNL d   1      25.520 -13.191  -4.224  0.00  0.00     0.224 C 
ATOM      7  O   UNL d   1      24.421 -13.723  -4.377  0.00  0.00    -0.273 OA
ATOM      8  H   UNL d   1      27.252 -12.946  -3.092  0.00  0.00     0.171 HD
BRANCH   6   9
ATOM      9  C   UNL d   1      25.997 -12.307  -5.370  0.00  0.00     0.113 C 
BRANCH   9  10
ATOM     10  C   UNL d   1      27.401 -12.807  -5.850  0.00  0.00     0.120 C 
BRANCH  10  11
ATOM     11  C   UNL d   1      27.668 -14.242  -5.474  0.00  0.00     0.259 C 
ATOM     12  O   UNL d   1      27.287 -15.199  -6.151  0.00  0.00    -0.265 OA
BRANCH  11  13
ATOM     13  O   UNL d   1      28.374 -14.358  -4.307  0.00  0.00    -0.321 OA
BRANCH  13  14
ATOM     14  C   UNL d   1      28.998 -15.648  -4.126  0.00  0.00     0.178 C 
BRANCH  14  15
ATOM     15  C   UNL d   1      28.650 -16.249  -2.761  0.00  0.00     0.022 C 
ATOM     16  C   UNL d   1      29.895 -16.453  -1.902  0.00  0.00     0.007 C 
ENDBRANCH  14  15
ENDBRANCH  13  14
ENDBRANCH  11  13
ENDBRANCH  10  11
ENDBRANCH   9  10
ENDBRANCH   6   9
ENDBRANCH   3   5
ENDBRANCH   1   3
BRANCH   1  17
ATOM     17  C   UNL d   1      24.888 -16.297  -1.319  0.00  0.00     0.036 A 
ATOM     18  C   UNL d   1      25.980 -17.075  -0.960  0.00  0.00     0.029 A 
ATOM     19  C   UNL d   1      25.784 -18.220  -0.148  0.00  0.00     0.004 A 
ATOM     20  C   UNL d   1      24.505 -18.575   0.337  0.00  0.00     0.029 A 
ATOM     21  C   UNL d   1      23.398 -17.827  -0.053  0.00  0.00     0.036 A 
ATOM     22  C   UNL d   1      23.638 -16.739  -0.896  0.00  0.00     0.059 A 
BRANCH  21  23
ATOM     23  N   UNL d   1      22.069 -18.149   0.362  0.00  0.00    -0.327 N 
ATOM     24  C   UNL d   1      21.167 -18.865  -0.427  0.00  0.00     0.225 C 
ATOM     25  O   UNL d   1      21.405 -19.323  -1.544  0.00  0.00    -0.273 OA
ATOM     26  H   UNL d   1      21.783 -17.846   1.284  0.00  0.00     0.169 HD
BRANCH  24  27
ATOM     27  C   UNL d   1      19.795 -19.163   0.156  0.00  0.00     0.070 C 
ATOM     28  C   UNL d   1      18.841 -19.706  -0.893  0.00  0.00     0.019 C 
ATOM     29  C   UNL d   1      19.981 -20.219   1.266  0.00  0.00     0.019 C 
ENDBRANCH  24  27
ENDBRANCH  21  23
ENDBRANCH   1  17
TORSDOF 11
ENDMDL
MODEL 7
REMARK VINA RESULT:    -7.940      1.992      8.499
REMARK INTER + INTRA:         -13.254
REMARK INTER:                 -11.221
REMARK INTRA:                  -2.033
REMARK CONF_INDEPENDENT:        3.281
REMARK UNBOUND:                -2.033
REMARK  11 active torsions:
REMARK  status: ('A' for Active; 'I' for Inactive)
REMARK    1  A    between atoms: C_2  and  C_3 
REMARK    2  A    between atoms: C_3  and  O_4 
REMARK    3  A    between atoms: O_4  and  C_5 
REMARK    4  A    between atoms: C_5  and  C_7 
REMARK    5  A    between atoms: C_7  and  C_8 
REMARK    6  A    between atoms: C_8  and  C_9 
REMARK       I    between atoms: C_9  and  N_11 
REMARK    7  A    between atoms: N_11  and  C_12 
REMARK    8  A    between atoms: C_12  and  N_14 
REMARK    9  A    between atoms: N_14  and  C_15 
REMARK   10  A    between atoms: C_19  and  N_20 
REMARK       I    between atoms: N_20  and  C_21 
REMARK   11  A    between atoms: C_21  and  C_23 
ROOT
ATOM      1  N   UNL d   1      26.817 -17.615  -0.776  0.00  0.00    -0.333 N 
ATOM      2  H   UNL d   1      27.039 -18.415  -0.199  0.00  0.00     0.168 HD
ENDROOT
BRANCH   1   3
ATOM      3  C   UNL d   1      27.843 -16.793  -1.331  0.00  0.00     0.178 C 
ATOM      4  S   UNL d   1      29.296 -16.474  -0.506  0.00  0.00    -0.040 SA
BRANCH   3   5
ATOM      5  N   UNL d   1      27.603 -16.325  -2.653  0.00  0.00    -0.304 N 
ATOM      6  C   UNL d   1      28.604 -15.816  -3.508  0.00  0.00     0.224 C 
ATOM      7  O   UNL d   1      29.766 -15.608  -3.161  0.00  0.00    -0.273 OA
ATOM      8  H   UNL d   1      26.662 -16.390  -3.018  0.00  0.00     0.171 HD
BRANCH   6   9
ATOM      9  C   UNL d   1      28.268 -15.468  -4.953  0.00  0.00     0.113 C 
BRANCH   9  10
ATOM     10  C   UNL d   1      27.120 -14.402  -4.968  0.00  0.00     0.120 C 
BRANCH  10  11
ATOM     11  C   UNL d   1      25.759 -15.008  -4.747  0.00  0.00     0.259 C 
ATOM     12  O   UNL d   1      25.530 -16.215  -4.864  0.00  0.00    -0.265 OA
BRANCH  11  13
ATOM     13  O   UNL d   1      24.816 -14.077  -4.407  0.00  0.00    -0.321 OA
BRANCH  13  14
ATOM     14  C   UNL d   1      25.131 -13.336  -3.208  0.00  0.00     0.178 C 
BRANCH  14  15
ATOM     15  C   UNL d   1      25.532 -11.894  -3.533  0.00  0.00     0.022 C 
ATOM     16  C   UNL d   1      26.836 -11.503  -2.842  0.00  0.00     0.007 C 
ENDBRANCH  14  15
ENDBRANCH  13  14
ENDBRANCH  11  13
ENDBRANCH  10  11
ENDBRANCH   9  10
ENDBRANCH   6   9
ENDBRANCH   3   5
ENDBRANCH   1   3
BRANCH   1  17
ATOM     17  C   UNL d   1      25.412 -17.266  -0.831  0.00  0.00     0.036 A 
ATOM     18  C   UNL d   1      24.901 -16.093  -1.367  0.00  0.00     0.029 A 
ATOM     19  C   UNL d   1      23.498 -15.886  -1.382  0.00  0.00     0.004 A 
ATOM     20  C   UNL d   1      22.599 -16.862  -0.896  0.00  0.00     0.029 A 
ATOM     21  C   UNL d   1      23.104 -18.023  -0.318  0.00  0.00     0.036 A 
ATOM     22  C   UNL d   1      24.494 -18.156  -0.280  0.00  0.00     0.059 A 
BRANCH  21  23
ATOM     23  N   UNL d   1      22.259 -19.036   0.233  0.00  0.00    -0.327 N 
ATOM     24  C   UNL d   1      20.902 -19.158  -0.070  0.00  0.00     0.225 C 
ATOM     25  O   UNL d   1      20.281 -18.443  -0.856  0.00  0.00    -0.273 OA
ATOM     26  H   UNL d   1      22.682 -19.700   0.869  0.00  0.00     0.169 HD
BRANCH  24  27
ATOM     27  C   UNL d   1      20.132 -20.303   0.567  0.00  0.00     0.070 C 
ATOM     28  C   UNL d   1      19.904 -20.075   2.051  0.00  0.00     0.019 C 
ATOM     29  C   UNL d   1      18.766 -20.399  -0.146  0.00  0.00     0.019 C 
ENDBRANCH  24  27
ENDBRANCH  21  23
ENDBRANCH   1  17
TORSDOF 11
ENDMDL
MODEL 8
REMARK VINA RESULT:    -7.720      2.452      8.496
REMARK INTER + INTRA:         -13.165
REMARK INTER:                 -11.002
REMARK INTRA:                  -2.163
REMARK CONF_INDEPENDENT:        3.281
REMARK UNBOUND:                -2.163
REMARK  11 active torsions:
REMARK  status: ('A' for Active; 'I' for Inactive)
REMARK    1  A    between atoms: C_2  and  C_3 
REMARK    2  A    between atoms: C_3  and  O_4 
REMARK    3  A    between atoms: O_4  and  C_5 
REMARK    4  A    between atoms: C_5  and  C_7 
REMARK    5  A    between atoms: C_7  and  C_8 
REMARK    6  A    between atoms: C_8  and  C_9 
REMARK       I    between atoms: C_9  and  N_11 
REMARK    7  A    between atoms: N_11  and  C_12 
REMARK    8  A    between atoms: C_12  and  N_14 
REMARK    9  A    between atoms: N_14  and  C_15 
REMARK   10  A    between atoms: C_19  and  N_20 
REMARK       I    between atoms: N_20  and  C_21 
REMARK   11  A    between atoms: C_21  and  C_23 
ROOT
ATOM      1  N   UNL d   1      24.412 -15.147  -2.379  0.00  0.00    -0.333 N 
ATOM      2  H   UNL d   1      23.450 -14.844  -2.315  0.00  0.00     0.168 HD
ENDROOT
BRANCH   1   3
ATOM      3  C   UNL d   1      25.289 -14.622  -3.376  0.00  0.00     0.178 C 
ATOM      4  S   UNL d   1      24.847 -13.324  -4.382  0.00  0.00    -0.040 SA
BRANCH   3   5
ATOM      5  N   UNL d   1      26.586 -15.205  -3.417  0.00  0.00    -0.304 N 
ATOM      6  C   UNL d   1      27.310 -15.449  -4.604  0.00  0.00     0.224 C 
ATOM      7  O   UNL d   1      26.849 -15.299  -5.735  0.00  0.00    -0.273 OA
ATOM      8  H   UNL d   1      27.036 -15.430  -2.539  0.00  0.00     0.171 HD
BRANCH   6   9
ATOM      9  C   UNL d   1      28.747 -15.951  -4.532  0.00  0.00     0.113 C 
BRANCH   9  10
ATOM     10  C   UNL d   1      29.584 -14.975  -3.636  0.00  0.00     0.120 C 
BRANCH  10  11
ATOM     11  C   UNL d   1      29.167 -15.013  -2.188  0.00  0.00     0.259 C 
ATOM     12  O   UNL d   1      29.466 -15.934  -1.424  0.00  0.00    -0.265 OA
BRANCH  11  13
ATOM     13  O   UNL d   1      28.427 -13.921  -1.824  0.00  0.00    -0.321 OA
BRANCH  13  14
ATOM     14  C   UNL d   1      28.311 -13.742  -0.396  0.00  0.00     0.178 C 
BRANCH  14  15
ATOM     15  C   UNL d   1      26.898 -13.305  -0.001  0.00  0.00     0.022 C 
ATOM     16  C   UNL d   1      26.660 -13.457   1.499  0.00  0.00     0.007 C 
ENDBRANCH  14  15
ENDBRANCH  13  14
ENDBRANCH  11  13
ENDBRANCH  10  11
ENDBRANCH   9  10
ENDBRANCH   6   9
ENDBRANCH   3   5
ENDBRANCH   1   3
BRANCH   1  17
ATOM     17  C   UNL d   1      24.765 -16.265  -1.530  0.00  0.00     0.036 A 
ATOM     18  C   UNL d   1      26.022 -16.489  -0.985  0.00  0.00     0.029 A 
ATOM     19  C   UNL d   1      26.227 -17.613  -0.146  0.00  0.00     0.004 A 
ATOM     20  C   UNL d   1      25.175 -18.498   0.182  0.00  0.00     0.029 A 
ATOM     21  C   UNL d   1      23.922 -18.306  -0.394  0.00  0.00     0.036 A 
ATOM     22  C   UNL d   1      23.785 -17.214  -1.255  0.00  0.00     0.059 A 
BRANCH  21  23
ATOM     23  N   UNL d   1      22.821 -19.182  -0.145  0.00  0.00    -0.327 N 
ATOM     24  C   UNL d   1      21.492 -18.844  -0.405  0.00  0.00     0.225 C 
ATOM     25  O   UNL d   1      21.110 -17.783  -0.897  0.00  0.00    -0.273 OA
ATOM     26  H   UNL d   1      23.032 -20.098   0.230  0.00  0.00     0.169 HD
BRANCH  24  27
ATOM     27  C   UNL d   1      20.425 -19.888  -0.119  0.00  0.00     0.070 C 
ATOM     28  C   UNL d   1      20.098 -19.973   1.361  0.00  0.00     0.019 C 
ATOM     29  C   UNL d   1      19.155 -19.480  -0.896  0.00  0.00     0.019 C 
ENDBRANCH  24  27
ENDBRANCH  21  23
ENDBRANCH   1  17
TORSDOF 11
ENDMDL
MODEL 9
REMARK VINA RESULT:    -7.717      4.339      6.307
REMARK INTER + INTRA:         -13.129
REMARK INTER:                 -10.998
REMARK INTRA:                  -2.131
REMARK CONF_INDEPENDENT:        3.281
REMARK UNBOUND:                -2.131
REMARK  11 active torsions:
REMARK  status: ('A' for Active; 'I' for Inactive)
REMARK    1  A    between atoms: C_2  and  C_3 
REMARK    2  A    between atoms: C_3  and  O_4 
REMARK    3  A    between atoms: O_4  and  C_5 
REMARK    4  A    between atoms: C_5  and  C_7 
REMARK    5  A    between atoms: C_7  and  C_8 
REMARK    6  A    between atoms: C_8  and  C_9 
REMARK       I    between atoms: C_9  and  N_11 
REMARK    7  A    between atoms: N_11  and  C_12 
REMARK    8  A    between atoms: C_12  and  N_14 
REMARK    9  A    between atoms: N_14  and  C_15 
REMARK   10  A    between atoms: C_19  and  N_20 
REMARK       I    between atoms: N_20  and  C_21 
REMARK   11  A    between atoms: C_21  and  C_23 
ROOT
ATOM      1  N   UNL d   1      26.828 -16.228  -1.074  0.00  0.00    -0.333 N 
ATOM      2  H   UNL d   1      27.380 -17.072  -1.146  0.00  0.00     0.168 HD
ENDROOT
BRANCH   1   3
ATOM      3  C   UNL d   1      25.579 -16.098  -1.752  0.00  0.00     0.178 C 
ATOM      4  S   UNL d   1      25.323 -14.937  -2.968  0.00  0.00    -0.040 SA
BRANCH   3   5
ATOM      5  N   UNL d   1      24.590 -17.058  -1.399  0.00  0.00    -0.304 N 
ATOM      6  C   UNL d   1      24.830 -18.179  -0.576  0.00  0.00     0.224 C 
ATOM      7  O   UNL d   1      25.945 -18.514  -0.176  0.00  0.00    -0.273 OA
ATOM      8  H   UNL d   1      23.645 -16.913  -1.731  0.00  0.00     0.171 HD
BRANCH   6   9
ATOM      9  C   UNL d   1      23.672 -19.071  -0.146  0.00  0.00     0.113 C 
BRANCH   9  10
ATOM     10  C   UNL d   1      22.515 -18.948  -1.195  0.00  0.00     0.120 C 
BRANCH  10  11
ATOM     11  C   UNL d   1      21.576 -17.809  -0.895  0.00  0.00     0.259 C 
ATOM     12  O   UNL d   1      21.962 -16.682  -0.577  0.00  0.00    -0.265 OA
BRANCH  11  13
ATOM     13  O   UNL d   1      20.260 -18.165  -1.013  0.00  0.00    -0.321 OA
BRANCH  13  14
ATOM     14  C   UNL d   1      20.025 -19.585  -0.890  0.00  0.00     0.178 C 
BRANCH  14  15
ATOM     15  C   UNL d   1      19.105 -19.897   0.294  0.00  0.00     0.022 C 
ATOM     16  C   UNL d   1      19.892 -20.397   1.502  0.00  0.00     0.007 C 
ENDBRANCH  14  15
ENDBRANCH  13  14
ENDBRANCH  11  13
ENDBRANCH  10  11
ENDBRANCH   9  10
ENDBRANCH   6   9
ENDBRANCH   3   5
ENDBRANCH   1   3
BRANCH   1  17
ATOM     17  C   UNL d   1      27.480 -15.121  -0.406  0.00  0.00     0.036 A 
ATOM     18  C   UNL d   1      27.855 -13.930  -1.012  0.00  0.00     0.029 A 
ATOM     19  C   UNL d   1      28.464 -12.913  -0.235  0.00  0.00     0.004 A 
ATOM     20  C   UNL d   1      28.672 -13.065   1.155  0.00  0.00     0.029 A 
ATOM     21  C   UNL d   1      28.340 -14.272   1.763  0.00  0.00     0.036 A 
ATOM     22  C   UNL d   1      27.791 -15.261   0.944  0.00  0.00     0.059 A 
BRANCH  21  23
ATOM     23  N   UNL d   1      28.560 -14.516   3.154  0.00  0.00    -0.327 N 
ATOM     24  C   UNL d   1      27.901 -13.825   4.172  0.00  0.00     0.225 C 
ATOM     25  O   UNL d   1      27.045 -12.957   4.005  0.00  0.00    -0.273 OA
ATOM     26  H   UNL d   1      29.224 -15.238   3.400  0.00  0.00     0.169 HD
BRANCH  24  27
ATOM     27  C   UNL d   1      28.211 -14.211   5.609  0.00  0.00     0.070 C 
ATOM     28  C   UNL d   1      29.597 -14.818   5.745  0.00  0.00     0.019 C 
ATOM     29  C   UNL d   1      28.135 -12.927   6.463  0.00  0.00     0.019 C 
ENDBRANCH  24  27
ENDBRANCH  21  23
ENDBRANCH   1  17
TORSDOF 11
ENDMDL
