MODEL 1
REMARK VINA RESULT:    -8.801      0.000      0.000
REMARK INTER + INTRA:         -12.028
REMARK INTER:                 -10.889
REMARK INTRA:                  -1.139
REMARK CONF_INDEPENDENT:        2.088
REMARK UNBOUND:                -1.139
REMARK  7 active torsions:
REMARK  status: ('A' for Active; 'I' for Inactive)
REMARK    1  A    between atoms: C_3  and  N_4 
REMARK    2  A    between atoms: N_4  and  N_5 
REMARK       I    between atoms: N_5  and  C_6 
REMARK    3  A    between atoms: C_6  and  C_8 
REMARK    4  A    between atoms: C_10  and  O_11 
REMARK    5  A    between atoms: C_13  and  O_14 
REMARK    6  A    between atoms: N_18  and  S_19 
REMARK    7  A    between atoms: S_19  and  C_22 
ROOT
ATOM      1  O   UNL d   1      27.411 -14.899  -6.425  0.00  0.00    -0.285 OA
ATOM      2  C   UNL d   1      27.557 -15.147  -5.231  0.00  0.00     0.207 A 
ATOM      3  C   UNL d   1      26.537 -14.731  -4.225  0.00  0.00     0.101 A 
ATOM      4  C   UNL d   1      26.785 -15.040  -2.954  0.00  0.00     0.068 A 
ATOM      5  C   UNL d   1      27.945 -15.753  -2.397  0.00  0.00     0.079 A 
ATOM      6  N   UNL d   1      28.094 -16.016  -1.134  0.00  0.00    -0.160 NA
ATOM      7  C   UNL d   1      28.954 -16.164  -3.417  0.00  0.00    -0.015 A 
ATOM      8  C   UNL d   1      28.761 -15.878  -4.723  0.00  0.00     0.007 A 
ATOM      9  C   UNL d   1      29.732 -16.305  -5.791  0.00  0.00     0.070 C 
ATOM     10  C   UNL d   1      30.693 -17.366  -5.332  0.00  0.00    -0.026 C 
ATOM     11  C   UNL d   1      30.888 -17.653  -4.036  0.00  0.00    -0.026 C 
ATOM     12  C   UNL d   1      30.158 -16.937  -2.931  0.00  0.00     0.068 C 
ENDROOT
BRANCH   3  13
ATOM     13  N   UNL d   1      25.384 -14.061  -4.606  0.00  0.00    -0.294 N 
ATOM     14  H   UNL d   1      24.660 -14.590  -5.106  0.00  0.00     0.187 HD
BRANCH  13  15
ATOM     15  N   UNL d   1      25.211 -12.667  -4.464  0.00  0.00    -0.265 N 
ATOM     16  C   UNL d   1      25.904 -11.786  -5.262  0.00  0.00     0.270 C 
ATOM     17  O   UNL d   1      26.757 -12.125  -6.079  0.00  0.00    -0.266 OA
ATOM     18  H   UNL d   1      24.404 -12.333  -3.952  0.00  0.00     0.190 HD
BRANCH  16  19
ATOM     19  C   UNL d   1      25.530 -10.345  -5.087  0.00  0.00     0.038 A 
ATOM     20  C   UNL d   1      24.958  -9.588  -6.126  0.00  0.00     0.053 A 
ATOM     21  C   UNL d   1      24.583  -8.263  -5.879  0.00  0.00     0.069 A 
ATOM     22  C   UNL d   1      24.792  -7.672  -4.634  0.00  0.00     0.073 A 
ATOM     23  C   UNL d   1      25.371  -8.426  -3.622  0.00  0.00     0.069 A 
ATOM     24  C   UNL d   1      25.729  -9.756  -3.832  0.00  0.00     0.053 A 
BRANCH  21  25
ATOM     25  O   UNL d   1      23.987  -7.489  -6.834  0.00  0.00    -0.361 OA
ATOM     26  H   UNL d   1      23.082  -7.804  -6.999  0.00  0.00     0.217 HD
ENDBRANCH  21  25
BRANCH  23  27
ATOM     27  O   UNL d   1      25.605  -7.898  -2.386  0.00  0.00    -0.361 OA
ATOM     28  H   UNL d   1      24.780  -7.526  -2.032  0.00  0.00     0.217 HD
ENDBRANCH  23  27
ENDBRANCH  16  19
ENDBRANCH  13  15
ENDBRANCH   3  13
BRANCH   6  29
ATOM     29  S   UNL d   1      26.940 -15.547  -0.072  0.00  0.00     0.283 S 
ATOM     30  O   UNL d   1      27.400 -15.869   1.268  0.00  0.00    -0.198 OA
ATOM     31  O   UNL d   1      26.543 -14.187  -0.385  0.00  0.00    -0.198 OA
BRANCH  29  32
ATOM     32  C   UNL d   1      25.530 -16.556  -0.356  0.00  0.00     0.081 A 
ATOM     33  C   UNL d   1      24.359 -15.950  -0.827  0.00  0.00     0.025 A 
ATOM     34  C   UNL d   1      23.192 -16.703  -0.896  0.00  0.00     0.002 A 
ATOM     35  C   UNL d   1      23.222 -18.061  -0.578  0.00  0.00     0.000 A 
ATOM     36  C   UNL d   1      24.407 -18.663  -0.147  0.00  0.00     0.002 A 
ATOM     37  C   UNL d   1      25.566 -17.908  -0.026  0.00  0.00     0.025 A 
ENDBRANCH  29  32
ENDBRANCH   6  29
TORSDOF 7
ENDMDL
MODEL 2
REMARK VINA RESULT:    -8.701      3.869      8.214
REMARK INTER + INTRA:         -12.071
REMARK INTER:                 -10.789
REMARK INTRA:                  -1.282
REMARK CONF_INDEPENDENT:        2.088
REMARK UNBOUND:                -1.282
REMARK  7 active torsions:
REMARK  status: ('A' for Active; 'I' for Inactive)
REMARK    1  A    between atoms: C_3  and  N_4 
REMARK    2  A    between atoms: N_4  and  N_5 
REMARK       I    between atoms: N_5  and  C_6 
REMARK    3  A    between atoms: C_6  and  C_8 
REMARK    4  A    between atoms: C_10  and  O_11 
REMARK    5  A    between atoms: C_13  and  O_14 
REMARK    6  A    between atoms: N_18  and  S_19 
REMARK    7  A    between atoms: S_19  and  C_22 
ROOT
ATOM      1  O   UNL d   1      27.436 -17.154   1.212  0.00  0.00    -0.285 OA
ATOM      2  C   UNL d   1      26.850 -16.607   0.281  0.00  0.00     0.207 A 
ATOM      3  C   UNL d   1      27.463 -15.461  -0.452  0.00  0.00     0.101 A 
ATOM      4  C   UNL d   1      26.749 -14.931  -1.443  0.00  0.00     0.068 A 
ATOM      5  C   UNL d   1      25.419 -15.331  -1.927  0.00  0.00     0.079 A 
ATOM      6  N   UNL d   1      24.804 -14.754  -2.914  0.00  0.00    -0.160 NA
ATOM      7  C   UNL d   1      24.822 -16.481  -1.184  0.00  0.00    -0.015 A 
ATOM      8  C   UNL d   1      25.495 -17.060  -0.167  0.00  0.00     0.007 A 
ATOM      9  C   UNL d   1      24.950 -18.245   0.585  0.00  0.00     0.070 C 
ATOM     10  C   UNL d   1      23.815 -18.929  -0.124  0.00  0.00    -0.026 C 
ATOM     11  C   UNL d   1      23.144 -18.357  -1.135  0.00  0.00    -0.026 C 
ATOM     12  C   UNL d   1      23.472 -16.979  -1.645  0.00  0.00     0.068 C 
ENDROOT
BRANCH   3  13
ATOM     13  N   UNL d   1      28.719 -14.983  -0.115  0.00  0.00    -0.294 N 
ATOM     14  H   UNL d   1      29.407 -14.854  -0.867  0.00  0.00     0.187 HD
BRANCH  13  15
ATOM     15  N   UNL d   1      29.148 -14.792   1.217  0.00  0.00    -0.265 N 
ATOM     16  C   UNL d   1      28.582 -13.819   2.007  0.00  0.00     0.270 C 
ATOM     17  O   UNL d   1      27.744 -13.013   1.609  0.00  0.00    -0.266 OA
ATOM     18  H   UNL d   1      29.689 -15.526   1.657  0.00  0.00     0.190 HD
BRANCH  16  19
ATOM     19  C   UNL d   1      29.046 -13.812   3.432  0.00  0.00     0.038 A 
ATOM     20  C   UNL d   1      30.067 -12.954   3.884  0.00  0.00     0.053 A 
ATOM     21  C   UNL d   1      30.415 -12.961   5.239  0.00  0.00     0.069 A 
ATOM     22  C   UNL d   1      29.792 -13.820   6.142  0.00  0.00     0.073 A 
ATOM     23  C   UNL d   1      28.795 -14.672   5.680  0.00  0.00     0.069 A 
ATOM     24  C   UNL d   1      28.410 -14.666   4.341  0.00  0.00     0.053 A 
BRANCH  21  25
ATOM     25  O   UNL d   1      31.369 -12.125   5.746  0.00  0.00    -0.361 OA
ATOM     26  H   UNL d   1      32.190 -12.619   5.912  0.00  0.00     0.217 HD
ENDBRANCH  21  25
BRANCH  23  27
ATOM     27  O   UNL d   1      28.156 -15.538   6.518  0.00  0.00    -0.361 OA
ATOM     28  H   UNL d   1      28.628 -15.575   7.366  0.00  0.00     0.217 HD
ENDBRANCH  23  27
ENDBRANCH  16  19
ENDBRANCH  13  15
ENDBRANCH   3  13
BRANCH   6  29
ATOM     29  S   UNL d   1      25.524 -13.507  -3.692  0.00  0.00     0.283 S 
ATOM     30  O   UNL d   1      24.784 -13.248  -4.915  0.00  0.00    -0.198 OA
ATOM     31  O   UNL d   1      25.742 -12.429  -2.746  0.00  0.00    -0.198 OA
BRANCH  29  32
ATOM     32  C   UNL d   1      27.115 -14.058  -4.197  0.00  0.00     0.081 A 
ATOM     33  C   UNL d   1      28.226 -13.268  -3.879  0.00  0.00     0.025 A 
ATOM     34  C   UNL d   1      29.466 -13.603  -4.414  0.00  0.00     0.002 A 
ATOM     35  C   UNL d   1      29.600 -14.759  -5.185  0.00  0.00     0.000 A 
ATOM     36  C   UNL d   1      28.489 -15.560  -5.461  0.00  0.00     0.002 A 
ATOM     37  C   UNL d   1      27.238 -15.206  -4.974  0.00  0.00     0.025 A 
ENDBRANCH  29  32
ENDBRANCH   6  29
TORSDOF 7
ENDMDL
MODEL 3
REMARK VINA RESULT:    -8.650      3.772      8.084
REMARK INTER + INTRA:         -11.944
REMARK INTER:                 -10.738
REMARK INTRA:                  -1.206
REMARK CONF_INDEPENDENT:        2.088
REMARK UNBOUND:                -1.206
REMARK  7 active torsions:
REMARK  status: ('A' for Active; 'I' for Inactive)
REMARK    1  A    between atoms: C_3  and  N_4 
REMARK    2  A    between atoms: N_4  and  N_5 
REMARK       I    between atoms: N_5  and  C_6 
REMARK    3  A    between atoms: C_6  and  C_8 
REMARK    4  A    between atoms: C_10  and  O_11 
REMARK    5  A    between atoms: C_13  and  O_14 
REMARK    6  A    between atoms: N_18  and  S_19 
REMARK    7  A    between atoms: S_19  and  C_22 
ROOT
ATOM      1  O   UNL d   1      27.405 -17.069   1.395  0.00  0.00    -0.285 OA
ATOM      2  C   UNL d   1      27.047 -16.823   0.246  0.00  0.00     0.207 A 
ATOM      3  C   UNL d   1      27.938 -16.094  -0.702  0.00  0.00     0.101 A 
ATOM      4  C   UNL d   1      27.459 -15.869  -1.925  0.00  0.00     0.068 A 
ATOM      5  C   UNL d   1      26.151 -16.252  -2.478  0.00  0.00     0.079 A 
ATOM      6  N   UNL d   1      25.777 -15.992  -3.694  0.00  0.00    -0.160 NA
ATOM      7  C   UNL d   1      25.274 -16.981  -1.517  0.00  0.00    -0.015 A 
ATOM      8  C   UNL d   1      25.700 -17.239  -0.262  0.00  0.00     0.007 A 
ATOM      9  C   UNL d   1      24.865 -18.004   0.730  0.00  0.00     0.070 C 
ATOM     10  C   UNL d   1      23.727 -18.753   0.096  0.00  0.00    -0.026 C 
ATOM     11  C   UNL d   1      23.300 -18.501  -1.150  0.00  0.00    -0.026 C 
ATOM     12  C   UNL d   1      23.926 -17.445  -2.020  0.00  0.00     0.068 C 
ENDROOT
BRANCH   3  13
ATOM     13  N   UNL d   1      29.206 -15.683  -0.324  0.00  0.00    -0.294 N 
ATOM     14  H   UNL d   1      29.971 -15.783  -1.002  0.00  0.00     0.187 HD
BRANCH  13  15
ATOM     15  N   UNL d   1      29.529 -15.260   0.985  0.00  0.00    -0.265 N 
ATOM     16  C   UNL d   1      28.884 -14.189   1.558  0.00  0.00     0.270 C 
ATOM     17  O   UNL d   1      28.061 -13.489   0.973  0.00  0.00    -0.266 OA
ATOM     18  H   UNL d   1      30.050 -15.893   1.578  0.00  0.00     0.190 HD
BRANCH  16  19
ATOM     19  C   UNL d   1      29.239 -13.931   2.992  0.00  0.00     0.038 A 
ATOM     20  C   UNL d   1      28.480 -14.452   4.057  0.00  0.00     0.053 A 
ATOM     21  C   UNL d   1      28.897 -14.218   5.371  0.00  0.00     0.069 A 
ATOM     22  C   UNL d   1      30.031 -13.455   5.646  0.00  0.00     0.073 A 
ATOM     23  C   UNL d   1      30.763 -12.935   4.586  0.00  0.00     0.069 A 
ATOM     24  C   UNL d   1      30.385 -13.176   3.266  0.00  0.00     0.053 A 
BRANCH  21  25
ATOM     25  O   UNL d   1      28.227 -14.729   6.446  0.00  0.00    -0.361 OA
ATOM     26  H   UNL d   1      28.573 -15.611   6.665  0.00  0.00     0.217 HD
ENDBRANCH  21  25
BRANCH  23  27
ATOM     27  O   UNL d   1      31.877 -12.176   4.795  0.00  0.00    -0.361 OA
ATOM     28  H   UNL d   1      32.411 -12.575   5.503  0.00  0.00     0.217 HD
ENDBRANCH  23  27
ENDBRANCH  16  19
ENDBRANCH  13  15
ENDBRANCH   3  13
BRANCH   6  29
ATOM     29  S   UNL d   1      26.797 -15.200  -4.700  0.00  0.00     0.283 S 
ATOM     30  O   UNL d   1      28.150 -15.648  -4.419  0.00  0.00    -0.198 OA
ATOM     31  O   UNL d   1      26.280 -15.287  -6.052  0.00  0.00    -0.198 OA
BRANCH  29  32
ATOM     32  C   UNL d   1      26.748 -13.500  -4.256  0.00  0.00     0.081 A 
ATOM     33  C   UNL d   1      27.958 -12.803  -4.151  0.00  0.00     0.025 A 
ATOM     34  C   UNL d   1      27.947 -11.509  -3.640  0.00  0.00     0.002 A 
ATOM     35  C   UNL d   1      26.733 -10.899  -3.320  0.00  0.00     0.000 A 
ATOM     36  C   UNL d   1      25.530 -11.593  -3.467  0.00  0.00     0.002 A 
ATOM     37  C   UNL d   1      25.534 -12.903  -3.928  0.00  0.00     0.025 A 
ENDBRANCH  29  32
ENDBRANCH   6  29
TORSDOF 7
ENDMDL
MODEL 4
REMARK VINA RESULT:    -8.578      2.697      7.268
REMARK INTER + INTRA:         -12.240
REMARK INTER:                 -10.666
REMARK INTRA:                  -1.574
REMARK CONF_INDEPENDENT:        2.088
REMARK UNBOUND:                -1.574
REMARK  7 active torsions:
REMARK  status: ('A' for Active; 'I' for Inactive)
REMARK    1  A    between atoms: C_3  and  N_4 
REMARK    2  A    between atoms: N_4  and  N_5 
REMARK       I    between atoms: N_5  and  C_6 
REMARK    3  A    between atoms: C_6  and  C_8 
REMARK    4  A    between atoms: C_10  and  O_11 
REMARK    5  A    between atoms: C_13  and  O_14 
REMARK    6  A    between atoms: N_18  and  S_19 
REMARK    7  A    between atoms: S_19  and  C_22 
ROOT
ATOM      1  O   UNL d   1      25.276 -10.423  -6.131  0.00  0.00    -0.285 OA
ATOM      2  C   UNL d   1      26.131 -11.301  -6.209  0.00  0.00     0.207 A 
ATOM      3  C   UNL d   1      26.270 -12.341  -5.149  0.00  0.00     0.101 A 
ATOM      4  C   UNL d   1      27.231 -13.248  -5.319  0.00  0.00     0.068 A 
ATOM      5  C   UNL d   1      28.186 -13.369  -6.431  0.00  0.00     0.079 A 
ATOM      6  N   UNL d   1      29.087 -14.300  -6.512  0.00  0.00    -0.160 NA
ATOM      7  C   UNL d   1      28.030 -12.322  -7.483  0.00  0.00    -0.015 A 
ATOM      8  C   UNL d   1      27.077 -11.373  -7.368  0.00  0.00     0.007 A 
ATOM      9  C   UNL d   1      26.859 -10.321  -8.421  0.00  0.00     0.070 C 
ATOM     10  C   UNL d   1      27.517 -10.647  -9.733  0.00  0.00    -0.026 C 
ATOM     11  C   UNL d   1      28.464 -11.588  -9.852  0.00  0.00    -0.026 C 
ATOM     12  C   UNL d   1      28.949 -12.400  -8.681  0.00  0.00     0.068 C 
ENDROOT
BRANCH   3  13
ATOM     13  N   UNL d   1      25.430 -12.360  -4.046  0.00  0.00    -0.294 N 
ATOM     14  H   UNL d   1      24.781 -11.575  -3.919  0.00  0.00     0.187 HD
BRANCH  13  15
ATOM     15  N   UNL d   1      25.513 -13.327  -3.021  0.00  0.00    -0.265 N 
ATOM     16  C   UNL d   1      25.403 -14.668  -3.308  0.00  0.00     0.270 C 
ATOM     17  O   UNL d   1      25.155 -15.114  -4.426  0.00  0.00    -0.266 OA
ATOM     18  H   UNL d   1      25.896 -13.047  -2.127  0.00  0.00     0.190 HD
BRANCH  16  19
ATOM     19  C   UNL d   1      25.634 -15.584  -2.144  0.00  0.00     0.038 A 
ATOM     20  C   UNL d   1      24.595 -16.339  -1.566  0.00  0.00     0.053 A 
ATOM     21  C   UNL d   1      24.889 -17.215  -0.516  0.00  0.00     0.069 A 
ATOM     22  C   UNL d   1      26.184 -17.333  -0.013  0.00  0.00     0.073 A 
ATOM     23  C   UNL d   1      27.197 -16.571  -0.582  0.00  0.00     0.069 A 
ATOM     24  C   UNL d   1      26.937 -15.711  -1.647  0.00  0.00     0.053 A 
BRANCH  21  25
ATOM     25  O   UNL d   1      23.933 -18.003   0.059  0.00  0.00    -0.361 OA
ATOM     26  H   UNL d   1      24.240 -18.318   0.925  0.00  0.00     0.217 HD
ENDBRANCH  21  25
BRANCH  23  27
ATOM     27  O   UNL d   1      28.481 -16.641  -0.126  0.00  0.00    -0.361 OA
ATOM     28  H   UNL d   1      28.476 -16.695   0.844  0.00  0.00     0.217 HD
ENDBRANCH  23  27
ENDBRANCH  16  19
ENDBRANCH  13  15
ENDBRANCH   3  13
BRANCH   6  29
ATOM     29  S   UNL d   1      29.192 -15.425  -5.327  0.00  0.00     0.283 S 
ATOM     30  O   UNL d   1      29.971 -14.865  -4.237  0.00  0.00    -0.198 OA
ATOM     31  O   UNL d   1      27.865 -15.950  -5.063  0.00  0.00    -0.198 OA
BRANCH  29  32
ATOM     32  C   UNL d   1      30.139 -16.763  -5.962  0.00  0.00     0.081 A 
ATOM     33  C   UNL d   1      30.780 -16.600  -7.196  0.00  0.00     0.025 A 
ATOM     34  C   UNL d   1      31.391 -17.701  -7.787  0.00  0.00     0.002 A 
ATOM     35  C   UNL d   1      31.430 -18.921  -7.110  0.00  0.00     0.000 A 
ATOM     36  C   UNL d   1      30.821 -19.058  -5.860  0.00  0.00     0.002 A 
ATOM     37  C   UNL d   1      30.163 -17.979  -5.284  0.00  0.00     0.025 A 
ENDBRANCH  29  32
ENDBRANCH   6  29
TORSDOF 7
ENDMDL
MODEL 5
REMARK VINA RESULT:    -8.171      2.598      5.784
REMARK INTER + INTRA:         -12.259
REMARK INTER:                 -10.259
REMARK INTRA:                  -2.000
REMARK CONF_INDEPENDENT:        2.088
REMARK UNBOUND:                -2.000
REMARK  7 active torsions:
REMARK  status: ('A' for Active; 'I' for Inactive)
REMARK    1  A    between atoms: C_3  and  N_4 
REMARK    2  A    between atoms: N_4  and  N_5 
REMARK       I    between atoms: N_5  and  C_6 
REMARK    3  A    between atoms: C_6  and  C_8 
REMARK    4  A    between atoms: C_10  and  O_11 
REMARK    5  A    between atoms: C_13  and  O_14 
REMARK    6  A    between atoms: N_18  and  S_19 
REMARK    7  A    between atoms: S_19  and  C_22 
ROOT
ATOM      1  O   UNL d   1      29.575 -17.101  -1.023  0.00  0.00    -0.285 OA
ATOM      2  C   UNL d   1      28.504 -16.640  -1.407  0.00  0.00     0.207 A 
ATOM      3  C   UNL d   1      28.435 -15.719  -2.578  0.00  0.00     0.101 A 
ATOM      4  C   UNL d   1      27.229 -15.266  -2.917  0.00  0.00     0.068 A 
ATOM      5  C   UNL d   1      25.933 -15.560  -2.286  0.00  0.00     0.079 A 
ATOM      6  N   UNL d   1      24.801 -15.073  -2.697  0.00  0.00    -0.160 NA
ATOM      7  C   UNL d   1      26.020 -16.485  -1.118  0.00  0.00    -0.015 A 
ATOM      8  C   UNL d   1      27.214 -16.977  -0.723  0.00  0.00     0.007 A 
ATOM      9  C   UNL d   1      27.347 -17.941   0.424  0.00  0.00     0.070 C 
ATOM     10  C   UNL d   1      26.043 -18.575   0.822  0.00  0.00    -0.026 C 
ATOM     11  C   UNL d   1      24.855 -18.090   0.433  0.00  0.00    -0.026 C 
ATOM     12  C   UNL d   1      24.727 -16.869  -0.437  0.00  0.00     0.068 C 
ENDROOT
BRANCH   3  13
ATOM     13  N   UNL d   1      29.576 -15.363  -3.280  0.00  0.00    -0.294 N 
ATOM     14  H   UNL d   1      30.484 -15.682  -2.923  0.00  0.00     0.187 HD
BRANCH  13  15
ATOM     15  N   UNL d   1      29.569 -14.475  -4.378  0.00  0.00    -0.265 N 
ATOM     16  C   UNL d   1      28.807 -14.739  -5.492  0.00  0.00     0.270 C 
ATOM     17  O   UNL d   1      28.155 -15.769  -5.651  0.00  0.00    -0.266 OA
ATOM     18  H   UNL d   1      29.926 -13.538  -4.240  0.00  0.00     0.190 HD
BRANCH  16  19
ATOM     19  C   UNL d   1      28.799 -13.652  -6.525  0.00  0.00     0.038 A 
ATOM     20  C   UNL d   1      29.779 -13.569  -7.532  0.00  0.00     0.053 A 
ATOM     21  C   UNL d   1      29.683 -12.560  -8.497  0.00  0.00     0.069 A 
ATOM     22  C   UNL d   1      28.654 -11.621  -8.462  0.00  0.00     0.073 A 
ATOM     23  C   UNL d   1      27.701 -11.706  -7.454  0.00  0.00     0.069 A 
ATOM     24  C   UNL d   1      27.758 -12.717  -6.497  0.00  0.00     0.053 A 
BRANCH  21  25
ATOM     25  O   UNL d   1      30.579 -12.451  -9.522  0.00  0.00    -0.361 OA
ATOM     26  H   UNL d   1      30.750 -13.326  -9.909  0.00  0.00     0.217 HD
ENDBRANCH  21  25
BRANCH  23  27
ATOM     27  O   UNL d   1      26.676 -10.811  -7.367  0.00  0.00    -0.361 OA
ATOM     28  H   UNL d   1      26.225 -10.752  -8.227  0.00  0.00     0.217 HD
ENDBRANCH  23  27
ENDBRANCH  16  19
ENDBRANCH  13  15
ENDBRANCH   3  13
BRANCH   6  29
ATOM     29  S   UNL d   1      24.778 -14.075  -3.994  0.00  0.00     0.283 S 
ATOM     30  O   UNL d   1      25.581 -14.677  -5.045  0.00  0.00    -0.198 OA
ATOM     31  O   UNL d   1      23.404 -13.700  -4.270  0.00  0.00    -0.198 OA
BRANCH  29  32
ATOM     32  C   UNL d   1      25.614 -12.600  -3.531  0.00  0.00     0.081 A 
ATOM     33  C   UNL d   1      25.668 -11.546  -4.451  0.00  0.00     0.025 A 
ATOM     34  C   UNL d   1      26.465 -10.442  -4.164  0.00  0.00     0.002 A 
ATOM     35  C   UNL d   1      27.128 -10.364  -2.938  0.00  0.00     0.000 A 
ATOM     36  C   UNL d   1      27.033 -11.406  -2.013  0.00  0.00     0.002 A 
ATOM     37  C   UNL d   1      26.280 -12.535  -2.310  0.00  0.00     0.025 A 
ENDBRANCH  29  32
ENDBRANCH   6  29
TORSDOF 7
ENDMDL
MODEL 6
REMARK VINA RESULT:    -8.048      3.792      9.505
REMARK INTER + INTRA:         -12.021
REMARK INTER:                 -10.136
REMARK INTRA:                  -1.885
REMARK CONF_INDEPENDENT:        2.088
REMARK UNBOUND:                -1.885
REMARK  7 active torsions:
REMARK  status: ('A' for Active; 'I' for Inactive)
REMARK    1  A    between atoms: C_3  and  N_4 
REMARK    2  A    between atoms: N_4  and  N_5 
REMARK       I    between atoms: N_5  and  C_6 
REMARK    3  A    between atoms: C_6  and  C_8 
REMARK    4  A    between atoms: C_10  and  O_11 
REMARK    5  A    between atoms: C_13  and  O_14 
REMARK    6  A    between atoms: N_18  and  S_19 
REMARK    7  A    between atoms: S_19  and  C_22 
ROOT
ATOM      1  O   UNL d   1      27.513 -18.431   0.477  0.00  0.00    -0.285 OA
ATOM      2  C   UNL d   1      26.989 -17.692  -0.353  0.00  0.00     0.207 A 
ATOM      3  C   UNL d   1      27.802 -17.003  -1.397  0.00  0.00     0.101 A 
ATOM      4  C   UNL d   1      27.145 -16.219  -2.249  0.00  0.00     0.068 A 
ATOM      5  C   UNL d   1      25.702 -15.938  -2.306  0.00  0.00     0.079 A 
ATOM      6  N   UNL d   1      25.150 -15.160  -3.187  0.00  0.00    -0.160 NA
ATOM      7  C   UNL d   1      24.904 -16.638  -1.256  0.00  0.00    -0.015 A 
ATOM      8  C   UNL d   1      25.512 -17.445  -0.361  0.00  0.00     0.007 A 
ATOM      9  C   UNL d   1      24.745 -18.200   0.691  0.00  0.00     0.070 C 
ATOM     10  C   UNL d   1      23.268 -18.268   0.417  0.00  0.00    -0.026 C 
ATOM     11  C   UNL d   1      22.660 -17.468  -0.471  0.00  0.00    -0.026 C 
ATOM     12  C   UNL d   1      23.407 -16.433  -1.270  0.00  0.00     0.068 C 
ENDROOT
BRANCH   3  13
ATOM     13  N   UNL d   1      29.174 -17.183  -1.474  0.00  0.00    -0.294 N 
ATOM     14  H   UNL d   1      29.666 -16.810  -2.294  0.00  0.00     0.187 HD
BRANCH  13  15
ATOM     15  N   UNL d   1      29.909 -17.966  -0.556  0.00  0.00    -0.265 N 
ATOM     16  C   UNL d   1      31.154 -18.450  -0.883  0.00  0.00     0.270 C 
ATOM     17  O   UNL d   1      31.677 -18.313  -1.986  0.00  0.00    -0.266 OA
ATOM     18  H   UNL d   1      29.625 -17.958   0.416  0.00  0.00     0.190 HD
BRANCH  16  19
ATOM     19  C   UNL d   1      31.869 -19.157   0.229  0.00  0.00     0.038 A 
ATOM     20  C   UNL d   1      32.831 -18.514   1.030  0.00  0.00     0.053 A 
ATOM     21  C   UNL d   1      33.422 -19.217   2.085  0.00  0.00     0.069 A 
ATOM     22  C   UNL d   1      33.096 -20.549   2.340  0.00  0.00     0.073 A 
ATOM     23  C   UNL d   1      32.155 -21.176   1.533  0.00  0.00     0.069 A 
ATOM     24  C   UNL d   1      31.532 -20.490   0.492  0.00  0.00     0.053 A 
BRANCH  21  25
ATOM     25  O   UNL d   1      34.332 -18.637   2.922  0.00  0.00    -0.361 OA
ATOM     26  H   UNL d   1      33.920 -17.899   3.401  0.00  0.00     0.217 HD
ENDBRANCH  21  25
BRANCH  23  27
ATOM     27  O   UNL d   1      31.803 -22.479   1.732  0.00  0.00    -0.361 OA
ATOM     28  H   UNL d   1      32.268 -22.823   2.513  0.00  0.00     0.217 HD
ENDBRANCH  23  27
ENDBRANCH  16  19
ENDBRANCH  13  15
ENDBRANCH   3  13
BRANCH   6  29
ATOM     29  S   UNL d   1      26.085 -14.435  -4.319  0.00  0.00     0.283 S 
ATOM     30  O   UNL d   1      26.768 -15.472  -5.075  0.00  0.00    -0.198 OA
ATOM     31  O   UNL d   1      25.288 -13.446  -5.019  0.00  0.00    -0.198 OA
BRANCH  29  32
ATOM     32  C   UNL d   1      27.342 -13.550  -3.467  0.00  0.00     0.081 A 
ATOM     33  C   UNL d   1      28.678 -13.802  -3.800  0.00  0.00     0.025 A 
ATOM     34  C   UNL d   1      29.684 -13.236  -3.022  0.00  0.00     0.002 A 
ATOM     35  C   UNL d   1      29.351 -12.366  -1.983  0.00  0.00     0.000 A 
ATOM     36  C   UNL d   1      28.014 -12.092  -1.687  0.00  0.00     0.002 A 
ATOM     37  C   UNL d   1      27.001 -12.692  -2.425  0.00  0.00     0.025 A 
ENDBRANCH  29  32
ENDBRANCH   6  29
TORSDOF 7
ENDMDL
MODEL 7
REMARK VINA RESULT:    -7.962      4.876      7.986
REMARK INTER + INTRA:         -11.702
REMARK INTER:                 -10.050
REMARK INTRA:                  -1.652
REMARK CONF_INDEPENDENT:        2.088
REMARK UNBOUND:                -1.652
REMARK  7 active torsions:
REMARK  status: ('A' for Active; 'I' for Inactive)
REMARK    1  A    between atoms: C_3  and  N_4 
REMARK    2  A    between atoms: N_4  and  N_5 
REMARK       I    between atoms: N_5  and  C_6 
REMARK    3  A    between atoms: C_6  and  C_8 
REMARK    4  A    between atoms: C_10  and  O_11 
REMARK    5  A    between atoms: C_13  and  O_14 
REMARK    6  A    between atoms: N_18  and  S_19 
REMARK    7  A    between atoms: S_19  and  C_22 
ROOT
ATOM      1  O   UNL d   1      30.638 -15.167   1.710  0.00  0.00    -0.285 OA
ATOM      2  C   UNL d   1      29.887 -15.343   0.754  0.00  0.00     0.207 A 
ATOM      3  C   UNL d   1      28.478 -14.855   0.778  0.00  0.00     0.101 A 
ATOM      4  C   UNL d   1      27.740 -15.097  -0.304  0.00  0.00     0.068 A 
ATOM      5  C   UNL d   1      28.132 -15.788  -1.542  0.00  0.00     0.079 A 
ATOM      6  N   UNL d   1      27.337 -15.969  -2.552  0.00  0.00    -0.160 NA
ATOM      7  C   UNL d   1      29.545 -16.268  -1.549  0.00  0.00    -0.015 A 
ATOM      8  C   UNL d   1      30.345 -16.055  -0.482  0.00  0.00     0.007 A 
ATOM      9  C   UNL d   1      31.786 -16.487  -0.459  0.00  0.00     0.070 C 
ATOM     10  C   UNL d   1      32.331 -16.816  -1.821  0.00  0.00    -0.026 C 
ATOM     11  C   UNL d   1      31.540 -17.028  -2.884  0.00  0.00    -0.026 C 
ATOM     12  C   UNL d   1      30.039 -16.954  -2.801  0.00  0.00     0.068 C 
ENDROOT
BRANCH   3  13
ATOM     13  N   UNL d   1      27.973 -14.174   1.874  0.00  0.00    -0.294 N 
ATOM     14  H   UNL d   1      27.092 -13.658   1.760  0.00  0.00     0.187 HD
BRANCH  13  15
ATOM     15  N   UNL d   1      28.668 -14.041   3.096  0.00  0.00    -0.265 N 
ATOM     16  C   UNL d   1      28.267 -13.123   4.039  0.00  0.00     0.270 C 
ATOM     17  O   UNL d   1      27.352 -12.320   3.869  0.00  0.00    -0.266 OA
ATOM     18  H   UNL d   1      29.299 -14.783   3.372  0.00  0.00     0.190 HD
BRANCH  16  19
ATOM     19  C   UNL d   1      29.019 -13.178   5.334  0.00  0.00     0.038 A 
ATOM     20  C   UNL d   1      28.530 -13.873   6.456  0.00  0.00     0.053 A 
ATOM     21  C   UNL d   1      29.307 -13.929   7.618  0.00  0.00     0.069 A 
ATOM     22  C   UNL d   1      30.541 -13.285   7.694  0.00  0.00     0.073 A 
ATOM     23  C   UNL d   1      31.005 -12.589   6.585  0.00  0.00     0.069 A 
ATOM     24  C   UNL d   1      30.263 -12.541   5.406  0.00  0.00     0.053 A 
BRANCH  21  25
ATOM     25  O   UNL d   1      28.906 -14.621   8.725  0.00  0.00    -0.361 OA
ATOM     26  H   UNL d   1      28.904 -15.575   8.538  0.00  0.00     0.217 HD
ENDBRANCH  21  25
BRANCH  23  27
ATOM     27  O   UNL d   1      32.202 -11.935   6.605  0.00  0.00    -0.361 OA
ATOM     28  H   UNL d   1      32.922 -12.576   6.480  0.00  0.00     0.217 HD
ENDBRANCH  23  27
ENDBRANCH  16  19
ENDBRANCH  13  15
ENDBRANCH   3  13
BRANCH   6  29
ATOM     29  S   UNL d   1      25.802 -15.404  -2.480  0.00  0.00     0.283 S 
ATOM     30  O   UNL d   1      25.825 -14.113  -1.815  0.00  0.00    -0.198 OA
ATOM     31  O   UNL d   1      25.200 -15.522  -3.795  0.00  0.00    -0.198 OA
BRANCH  29  32
ATOM     32  C   UNL d   1      24.900 -16.479  -1.421  0.00  0.00     0.081 A 
ATOM     33  C   UNL d   1      25.578 -17.547  -0.822  0.00  0.00     0.025 A 
ATOM     34  C   UNL d   1      24.845 -18.499  -0.119  0.00  0.00     0.002 A 
ATOM     35  C   UNL d   1      23.470 -18.332   0.049  0.00  0.00     0.000 A 
ATOM     36  C   UNL d   1      22.813 -17.239  -0.522  0.00  0.00     0.002 A 
ATOM     37  C   UNL d   1      23.527 -16.310  -1.268  0.00  0.00     0.025 A 
ENDBRANCH  29  32
ENDBRANCH   6  29
TORSDOF 7
ENDMDL
MODEL 8
REMARK VINA RESULT:    -7.538      3.053      7.196
REMARK INTER + INTRA:         -11.698
REMARK INTER:                  -9.626
REMARK INTRA:                  -2.072
REMARK CONF_INDEPENDENT:        2.088
REMARK UNBOUND:                -2.072
REMARK  7 active torsions:
REMARK  status: ('A' for Active; 'I' for Inactive)
REMARK    1  A    between atoms: C_3  and  N_4 
REMARK    2  A    between atoms: N_4  and  N_5 
REMARK       I    between atoms: N_5  and  C_6 
REMARK    3  A    between atoms: C_6  and  C_8 
REMARK    4  A    between atoms: C_10  and  O_11 
REMARK    5  A    between atoms: C_13  and  O_14 
REMARK    6  A    between atoms: N_18  and  S_19 
REMARK    7  A    between atoms: S_19  and  C_22 
ROOT
ATOM      1  O   UNL d   1      27.637 -18.217   0.218  0.00  0.00    -0.285 OA
ATOM      2  C   UNL d   1      27.020 -17.497  -0.563  0.00  0.00     0.207 A 
ATOM      3  C   UNL d   1      27.727 -16.721  -1.621  0.00  0.00     0.101 A 
ATOM      4  C   UNL d   1      26.974 -15.964  -2.417  0.00  0.00     0.068 A 
ATOM      5  C   UNL d   1      25.513 -15.790  -2.397  0.00  0.00     0.079 A 
ATOM      6  N   UNL d   1      24.864 -15.031  -3.226  0.00  0.00    -0.160 NA
ATOM      7  C   UNL d   1      24.822 -16.576  -1.333  0.00  0.00    -0.015 A 
ATOM      8  C   UNL d   1      25.530 -17.361  -0.493  0.00  0.00     0.007 A 
ATOM      9  C   UNL d   1      24.873 -18.200   0.570  0.00  0.00     0.070 C 
ATOM     10  C   UNL d   1      23.394 -18.370   0.363  0.00  0.00    -0.026 C 
ATOM     11  C   UNL d   1      22.686 -17.593  -0.470  0.00  0.00    -0.026 C 
ATOM     12  C   UNL d   1      23.314 -16.484  -1.270  0.00  0.00     0.068 C 
ENDROOT
BRANCH   3  13
ATOM     13  N   UNL d   1      29.104 -16.795  -1.768  0.00  0.00    -0.294 N 
ATOM     14  H   UNL d   1      29.647 -17.244  -1.021  0.00  0.00     0.187 HD
BRANCH  13  15
ATOM     15  N   UNL d   1      29.809 -16.172  -2.821  0.00  0.00    -0.265 N 
ATOM     16  C   UNL d   1      30.000 -16.817  -4.020  0.00  0.00     0.270 C 
ATOM     17  O   UNL d   1      29.655 -17.976  -4.239  0.00  0.00    -0.266 OA
ATOM     18  H   UNL d   1      29.953 -15.171  -2.774  0.00  0.00     0.190 HD
BRANCH  16  19
ATOM     19  C   UNL d   1      30.656 -15.991  -5.085  0.00  0.00     0.038 A 
ATOM     20  C   UNL d   1      32.046 -16.019  -5.307  0.00  0.00     0.053 A 
ATOM     21  C   UNL d   1      32.586 -15.263  -6.352  0.00  0.00     0.069 A 
ATOM     22  C   UNL d   1      31.779 -14.463  -7.159  0.00  0.00     0.073 A 
ATOM     23  C   UNL d   1      30.411 -14.433  -6.921  0.00  0.00     0.069 A 
ATOM     24  C   UNL d   1      29.843 -15.196  -5.903  0.00  0.00     0.053 A 
BRANCH  21  25
ATOM     25  O   UNL d   1      33.921 -15.280  -6.643  0.00  0.00    -0.361 OA
ATOM     26  H   UNL d   1      34.281 -16.171  -6.499  0.00  0.00     0.217 HD
ENDBRANCH  21  25
BRANCH  23  27
ATOM     27  O   UNL d   1      29.574 -13.662  -7.674  0.00  0.00    -0.361 OA
ATOM     28  H   UNL d   1      29.203 -14.198  -8.395  0.00  0.00     0.217 HD
ENDBRANCH  23  27
ENDBRANCH  16  19
ENDBRANCH  13  15
ENDBRANCH   3  13
BRANCH   6  29
ATOM     29  S   UNL d   1      25.686 -14.207  -4.377  0.00  0.00     0.283 S 
ATOM     30  O   UNL d   1      26.419 -15.167  -5.185  0.00  0.00    -0.198 OA
ATOM     31  O   UNL d   1      24.780 -13.274  -5.020  0.00  0.00    -0.198 OA
BRANCH  29  32
ATOM     32  C   UNL d   1      26.900 -13.237  -3.556  0.00  0.00     0.081 A 
ATOM     33  C   UNL d   1      26.580 -12.680  -2.312  0.00  0.00     0.025 A 
ATOM     34  C   UNL d   1      27.465 -11.777  -1.731  0.00  0.00     0.002 A 
ATOM     35  C   UNL d   1      28.686 -11.505  -2.350  0.00  0.00     0.000 A 
ATOM     36  C   UNL d   1      29.009 -12.099  -3.572  0.00  0.00     0.002 A 
ATOM     37  C   UNL d   1      28.111 -12.963  -4.186  0.00  0.00     0.025 A 
ENDBRANCH  29  32
ENDBRANCH   6  29
TORSDOF 7
ENDMDL
MODEL 9
REMARK VINA RESULT:    -7.496      2.669      7.128
REMARK INTER + INTRA:         -11.780
REMARK INTER:                  -9.584
REMARK INTRA:                  -2.196
REMARK CONF_INDEPENDENT:        2.088
REMARK UNBOUND:                -2.196
REMARK  7 active torsions:
REMARK  status: ('A' for Active; 'I' for Inactive)
REMARK    1  A    between atoms: C_3  and  N_4 
REMARK    2  A    between atoms: N_4  and  N_5 
REMARK       I    between atoms: N_5  and  C_6 
REMARK    3  A    between atoms: C_6  and  C_8 
REMARK    4  A    between atoms: C_10  and  O_11 
REMARK    5  A    between atoms: C_13  and  O_14 
REMARK    6  A    between atoms: N_18  and  S_19 
REMARK    7  A    between atoms: S_19  and  C_22 
ROOT
ATOM      1  O   UNL d   1      25.207  -9.787  -5.553  0.00  0.00    -0.285 OA
ATOM      2  C   UNL d   1      25.963 -10.715  -5.826  0.00  0.00     0.207 A 
ATOM      3  C   UNL d   1      26.013 -11.945  -4.984  0.00  0.00     0.101 A 
ATOM      4  C   UNL d   1      26.868 -12.895  -5.357  0.00  0.00     0.068 A 
ATOM      5  C   UNL d   1      27.783 -12.899  -6.509  0.00  0.00     0.079 A 
ATOM      6  N   UNL d   1      28.579 -13.883  -6.797  0.00  0.00    -0.160 NA
ATOM      7  C   UNL d   1      27.718 -11.662  -7.341  0.00  0.00    -0.015 A 
ATOM      8  C   UNL d   1      26.873 -10.661  -7.015  0.00  0.00     0.007 A 
ATOM      9  C   UNL d   1      26.746  -9.413  -7.845  0.00  0.00     0.070 C 
ATOM     10  C   UNL d   1      27.339  -9.549  -9.219  0.00  0.00    -0.026 C 
ATOM     11  C   UNL d   1      28.180 -10.541  -9.549  0.00  0.00    -0.026 C 
ATOM     12  C   UNL d   1      28.599 -11.604  -8.568  0.00  0.00     0.068 C 
ENDROOT
BRANCH   3  13
ATOM     13  N   UNL d   1      25.197 -12.087  -3.872  0.00  0.00    -0.294 N 
ATOM     14  H   UNL d   1      24.472 -11.379  -3.709  0.00  0.00     0.187 HD
BRANCH  13  15
ATOM     15  N   UNL d   1      25.397 -13.075  -2.882  0.00  0.00    -0.265 N 
ATOM     16  C   UNL d   1      25.203 -14.407  -3.167  0.00  0.00     0.270 C 
ATOM     17  O   UNL d   1      24.780 -14.825  -4.242  0.00  0.00    -0.266 OA
ATOM     18  H   UNL d   1      25.914 -12.822  -2.049  0.00  0.00     0.190 HD
BRANCH  16  19
ATOM     19  C   UNL d   1      25.570 -15.349  -2.061  0.00  0.00     0.038 A 
ATOM     20  C   UNL d   1      26.597 -15.063  -1.142  0.00  0.00     0.053 A 
ATOM     21  C   UNL d   1      26.853 -15.962  -0.101  0.00  0.00     0.069 A 
ATOM     22  C   UNL d   1      26.131 -17.147   0.026  0.00  0.00     0.073 A 
ATOM     23  C   UNL d   1      25.129 -17.424  -0.896  0.00  0.00     0.069 A 
ATOM     24  C   UNL d   1      24.836 -16.534  -1.927  0.00  0.00     0.053 A 
BRANCH  21  25
ATOM     25  O   UNL d   1      27.808 -15.721   0.845  0.00  0.00    -0.361 OA
ATOM     26  H   UNL d   1      28.405 -16.485   0.917  0.00  0.00     0.217 HD
ENDBRANCH  21  25
BRANCH  23  27
ATOM     27  O   UNL d   1      24.395 -18.572  -0.826  0.00  0.00    -0.361 OA
ATOM     28  H   UNL d   1      23.870 -18.569  -0.008  0.00  0.00     0.217 HD
ENDBRANCH  23  27
ENDBRANCH  16  19
ENDBRANCH  13  15
ENDBRANCH   3  13
BRANCH   6  29
ATOM     29  S   UNL d   1      28.588 -15.217  -5.846  0.00  0.00     0.283 S 
ATOM     30  O   UNL d   1      27.210 -15.575  -5.554  0.00  0.00    -0.198 OA
ATOM     31  O   UNL d   1      29.475 -16.203  -6.434  0.00  0.00    -0.198 OA
BRANCH  29  32
ATOM     32  C   UNL d   1      29.304 -14.755  -4.309  0.00  0.00     0.081 A 
ATOM     33  C   UNL d   1      29.317 -15.693  -3.270  0.00  0.00     0.025 A 
ATOM     34  C   UNL d   1      29.726 -15.289  -2.003  0.00  0.00     0.002 A 
ATOM     35  C   UNL d   1      30.193 -13.989  -1.806  0.00  0.00     0.000 A 
ATOM     36  C   UNL d   1      30.213 -13.074  -2.862  0.00  0.00     0.002 A 
ATOM     37  C   UNL d   1      29.759 -13.453  -4.119  0.00  0.00     0.025 A 
ENDBRANCH  29  32
ENDBRANCH   6  29
TORSDOF 7
ENDMDL
