MODEL 1
REMARK VINA RESULT:    -6.642      0.000      0.000
REMARK INTER + INTRA:         -11.467
REMARK INTER:                  -9.625
REMARK INTRA:                  -1.842
REMARK CONF_INDEPENDENT:        2.983
REMARK UNBOUND:                -1.842
REMARK  10 active torsions:
REMARK  status: ('A' for Active; 'I' for Inactive)
REMARK    1  A    between atoms: C_2  and  C_3 
REMARK    2  A    between atoms: C_3  and  C_4 
REMARK    3  A    between atoms: C_4  and  C_5 
REMARK    4  A    between atoms: C_5  and  N_6 
REMARK       I    between atoms: N_6  and  C_7 
REMARK       I    between atoms: C_7  and  N_9 
REMARK    5  A    between atoms: N_9  and  N_10 
REMARK       I    between atoms: N_10  and  C_11 
REMARK    6  A    between atoms: C_11  and  C_13 
REMARK    7  A    between atoms: C_15  and  O_16 
REMARK    8  A    between atoms: O_16  and  C_17 
REMARK    9  A    between atoms: C_19  and  O_20 
REMARK   10  A    between atoms: C_23  and  N_24 
ROOT
ATOM      1  N   UNL d   1      25.632 -15.878  -2.870  0.00  0.00    -0.262 N 
ATOM      2  C   UNL d   1      25.014 -14.662  -3.169  0.00  0.00     0.272 C 
ATOM      3  O   UNL d   1      23.843 -14.431  -2.875  0.00  0.00    -0.266 OA
ATOM      4  H   UNL d   1      26.477 -16.154  -3.374  0.00  0.00     0.190 HD
ENDROOT
BRANCH   2   5
ATOM      5  C   UNL d   1      25.807 -13.565  -3.872  0.00  0.00     0.069 A 
ATOM      6  C   UNL d   1      25.529 -12.216  -3.488  0.00  0.00     0.059 A 
ATOM      7  C   UNL d   1      26.026 -11.090  -4.207  0.00  0.00     0.103 A 
ATOM      8  C   UNL d   1      26.922 -11.303  -5.264  0.00  0.00     0.103 A 
ATOM      9  C   UNL d   1      27.196 -12.608  -5.656  0.00  0.00     0.076 A 
ATOM     10  C   UNL d   1      26.655 -13.733  -4.981  0.00  0.00     0.121 A 
BRANCH   7  11
ATOM     11  O   UNL d   1      25.536  -9.852  -3.816  0.00  0.00    -0.349 OA
BRANCH  11  12
ATOM     12  C   UNL d   1      24.882  -9.062  -4.831  0.00  0.00     0.171 C 
ATOM     13  C   UNL d   1      25.587  -7.744  -5.072  0.00  0.00     0.034 C 
ENDBRANCH  11  12
ENDBRANCH   7  11
BRANCH   8  14
ATOM     14  O   UNL d   1      27.505 -10.221  -5.854  0.00  0.00    -0.353 OA
ATOM     15  C   UNL d   1      28.800  -9.792  -5.480  0.00  0.00     0.210 C 
ENDBRANCH   8  14
BRANCH  10  16
ATOM     16  N   UNL d   1      27.048 -15.029  -5.552  0.00  0.00    -0.115 N 
ATOM     17  O   UNL d   1      26.221 -15.945  -5.528  0.00  0.00    -0.532 OA
ATOM     18  O   UNL d   1      28.168 -15.146  -6.056  0.00  0.00    -0.532 OA
ENDBRANCH  10  16
ENDBRANCH   2   5
BRANCH   1  19
ATOM     19  N   UNL d   1      24.849 -17.028  -2.487  0.00  0.00    -0.249 N 
ATOM     20  C   UNL d   1      24.222 -17.010  -1.244  0.00  0.00     0.334 C 
ATOM     21  N   UNL d   1      23.400 -18.092  -0.994  0.00  0.00    -0.342 N 
ATOM     22  O   UNL d   1      24.350 -16.077  -0.454  0.00  0.00    -0.246 OA
ATOM     23  H   UNL d   1      23.306 -18.816  -1.689  0.00  0.00     0.164 HD
ATOM     24  H   UNL d   1      24.868 -17.828  -3.110  0.00  0.00     0.192 HD
BRANCH  21  25
ATOM     25  C   UNL d   1      22.582 -18.164   0.221  0.00  0.00     0.124 C 
BRANCH  25  26
ATOM     26  C   UNL d   1      21.503 -19.254   0.173  0.00  0.00     0.020 C 
BRANCH  26  27
ATOM     27  C   UNL d   1      20.649 -19.166  -1.102  0.00  0.00     0.001 C 
BRANCH  27  28
ATOM     28  C   UNL d   1      19.164 -19.397  -0.804  0.00  0.00    -0.004 C 
ATOM     29  C   UNL d   1      18.975 -20.439   0.288  0.00  0.00     0.005 C 
ENDBRANCH  27  28
ENDBRANCH  26  27
ENDBRANCH  25  26
ENDBRANCH  21  25
ENDBRANCH   1  19
TORSDOF 10
ENDMDL
MODEL 2
REMARK VINA RESULT:    -6.623      3.564      4.659
REMARK INTER + INTRA:         -11.145
REMARK INTER:                  -9.606
REMARK INTRA:                  -1.539
REMARK CONF_INDEPENDENT:        2.983
REMARK UNBOUND:                -1.539
REMARK  10 active torsions:
REMARK  status: ('A' for Active; 'I' for Inactive)
REMARK    1  A    between atoms: C_2  and  C_3 
REMARK    2  A    between atoms: C_3  and  C_4 
REMARK    3  A    between atoms: C_4  and  C_5 
REMARK    4  A    between atoms: C_5  and  N_6 
REMARK       I    between atoms: N_6  and  C_7 
REMARK       I    between atoms: C_7  and  N_9 
REMARK    5  A    between atoms: N_9  and  N_10 
REMARK       I    between atoms: N_10  and  C_11 
REMARK    6  A    between atoms: C_11  and  C_13 
REMARK    7  A    between atoms: C_15  and  O_16 
REMARK    8  A    between atoms: O_16  and  C_17 
REMARK    9  A    between atoms: C_19  and  O_20 
REMARK   10  A    between atoms: C_23  and  N_24 
ROOT
ATOM      1  N   UNL d   1      24.063 -16.833  -1.176  0.00  0.00    -0.262 N 
ATOM      2  C   UNL d   1      24.714 -15.810  -1.868  0.00  0.00     0.272 C 
ATOM      3  O   UNL d   1      24.107 -14.861  -2.360  0.00  0.00    -0.266 OA
ATOM      4  H   UNL d   1      24.531 -17.732  -1.044  0.00  0.00     0.190 HD
ENDROOT
BRANCH   2   5
ATOM      5  C   UNL d   1      26.232 -15.847  -2.018  0.00  0.00     0.069 A 
ATOM      6  C   UNL d   1      27.000 -15.958  -0.816  0.00  0.00     0.059 A 
ATOM      7  C   UNL d   1      28.414 -15.782  -0.785  0.00  0.00     0.103 A 
ATOM      8  C   UNL d   1      29.102 -15.611  -1.993  0.00  0.00     0.103 A 
ATOM      9  C   UNL d   1      28.372 -15.493  -3.169  0.00  0.00     0.076 A 
ATOM     10  C   UNL d   1      26.957 -15.606  -3.198  0.00  0.00     0.121 A 
BRANCH   7  11
ATOM     11  O   UNL d   1      28.996 -15.753   0.475  0.00  0.00    -0.349 OA
BRANCH  11  12
ATOM     12  C   UNL d   1      28.428 -14.835   1.432  0.00  0.00     0.171 C 
ATOM     13  C   UNL d   1      28.275 -13.439   0.866  0.00  0.00     0.034 C 
ENDBRANCH  11  12
ENDBRANCH   7  11
BRANCH   8  14
ATOM     14  O   UNL d   1      30.465 -15.588  -1.971  0.00  0.00    -0.353 OA
ATOM     15  C   UNL d   1      31.208 -16.670  -1.441  0.00  0.00     0.210 C 
ENDBRANCH   8  14
BRANCH  10  16
ATOM     16  N   UNL d   1      26.363 -15.437  -4.531  0.00  0.00    -0.115 N 
ATOM     17  O   UNL d   1      27.100 -15.573  -5.513  0.00  0.00    -0.532 OA
ATOM     18  O   UNL d   1      25.157 -15.198  -4.624  0.00  0.00    -0.532 OA
ENDBRANCH  10  16
ENDBRANCH   2   5
BRANCH   1  19
ATOM     19  N   UNL d   1      22.632 -16.993  -1.270  0.00  0.00    -0.249 N 
ATOM     20  C   UNL d   1      22.104 -18.271  -1.113  0.00  0.00     0.334 C 
ATOM     21  N   UNL d   1      20.723 -18.330  -1.101  0.00  0.00    -0.342 N 
ATOM     22  O   UNL d   1      22.812 -19.262  -0.945  0.00  0.00    -0.246 OA
ATOM     23  H   UNL d   1      20.189 -17.483  -1.213  0.00  0.00     0.164 HD
ATOM     24  H   UNL d   1      22.093 -16.176  -1.533  0.00  0.00     0.192 HD
BRANCH  21  25
ATOM     25  C   UNL d   1      20.016 -19.586  -0.831  0.00  0.00     0.124 C 
BRANCH  25  26
ATOM     26  C   UNL d   1      20.431 -20.255   0.487  0.00  0.00     0.020 C 
BRANCH  26  27
ATOM     27  C   UNL d   1      19.688 -19.661   1.694  0.00  0.00     0.001 C 
BRANCH  27  28
ATOM     28  C   UNL d   1      18.404 -20.438   2.005  0.00  0.00    -0.004 C 
ATOM     29  C   UNL d   1      18.074 -21.425   0.896  0.00  0.00     0.005 C 
ENDBRANCH  27  28
ENDBRANCH  26  27
ENDBRANCH  25  26
ENDBRANCH  21  25
ENDBRANCH   1  19
TORSDOF 10
ENDMDL
MODEL 3
REMARK VINA RESULT:    -6.609      3.453      5.004
REMARK INTER + INTRA:         -11.404
REMARK INTER:                  -9.592
REMARK INTRA:                  -1.812
REMARK CONF_INDEPENDENT:        2.983
REMARK UNBOUND:                -1.812
REMARK  10 active torsions:
REMARK  status: ('A' for Active; 'I' for Inactive)
REMARK    1  A    between atoms: C_2  and  C_3 
REMARK    2  A    between atoms: C_3  and  C_4 
REMARK    3  A    between atoms: C_4  and  C_5 
REMARK    4  A    between atoms: C_5  and  N_6 
REMARK       I    between atoms: N_6  and  C_7 
REMARK       I    between atoms: C_7  and  N_9 
REMARK    5  A    between atoms: N_9  and  N_10 
REMARK       I    between atoms: N_10  and  C_11 
REMARK    6  A    between atoms: C_11  and  C_13 
REMARK    7  A    between atoms: C_15  and  O_16 
REMARK    8  A    between atoms: O_16  and  C_17 
REMARK    9  A    between atoms: C_19  and  O_20 
REMARK   10  A    between atoms: C_23  and  N_24 
ROOT
ATOM      1  N   UNL d   1      24.959 -17.375  -1.193  0.00  0.00    -0.262 N 
ATOM      2  C   UNL d   1      25.786 -16.256  -1.093  0.00  0.00     0.272 C 
ATOM      3  O   UNL d   1      25.620 -15.391  -0.235  0.00  0.00    -0.266 OA
ATOM      4  H   UNL d   1      24.927 -17.905  -2.067  0.00  0.00     0.190 HD
ENDROOT
BRANCH   2   5
ATOM      5  C   UNL d   1      26.951 -16.088  -2.063  0.00  0.00     0.069 A 
ATOM      6  C   UNL d   1      28.265 -16.311  -1.544  0.00  0.00     0.059 A 
ATOM      7  C   UNL d   1      29.447 -15.979  -2.267  0.00  0.00     0.103 A 
ATOM      8  C   UNL d   1      29.329 -15.526  -3.588  0.00  0.00     0.103 A 
ATOM      9  C   UNL d   1      28.060 -15.296  -4.105  0.00  0.00     0.076 A 
ATOM     10  C   UNL d   1      26.879 -15.567  -3.367  0.00  0.00     0.121 A 
BRANCH   7  11
ATOM     11  O   UNL d   1      30.642 -16.095  -1.570  0.00  0.00    -0.349 OA
BRANCH  11  12
ATOM     12  C   UNL d   1      30.718 -17.145  -0.582  0.00  0.00     0.171 C 
ATOM     13  C   UNL d   1      30.720 -18.522  -1.211  0.00  0.00     0.034 C 
ENDBRANCH  11  12
ENDBRANCH   7  11
BRANCH   8  14
ATOM     14  O   UNL d   1      30.464 -15.347  -4.322  0.00  0.00    -0.353 OA
ATOM     15  C   UNL d   1      30.800 -16.228  -5.377  0.00  0.00     0.210 C 
ENDBRANCH   8  14
BRANCH  10  16
ATOM     16  N   UNL d   1      25.633 -15.245  -4.077  0.00  0.00    -0.115 N 
ATOM     17  O   UNL d   1      24.776 -14.594  -3.473  0.00  0.00    -0.532 OA
ATOM     18  O   UNL d   1      25.501 -15.608  -5.249  0.00  0.00    -0.532 OA
ENDBRANCH  10  16
ENDBRANCH   2   5
BRANCH   1  19
ATOM     19  N   UNL d   1      23.691 -17.420  -0.505  0.00  0.00    -0.249 N 
ATOM     20  C   UNL d   1      22.707 -18.271  -1.000  0.00  0.00     0.334 C 
ATOM     21  N   UNL d   1      21.564 -18.347  -0.226  0.00  0.00    -0.342 N 
ATOM     22  O   UNL d   1      22.865 -18.943  -2.018  0.00  0.00    -0.246 OA
ATOM     23  H   UNL d   1      21.497 -17.798   0.616  0.00  0.00     0.164 HD
ATOM     24  H   UNL d   1      23.554 -16.762   0.254  0.00  0.00     0.192 HD
BRANCH  21  25
ATOM     25  C   UNL d   1      20.484 -19.284  -0.551  0.00  0.00     0.124 C 
BRANCH  25  26
ATOM     26  C   UNL d   1      20.359 -20.448   0.442  0.00  0.00     0.020 C 
BRANCH  26  27
ATOM     27  C   UNL d   1      19.843 -19.984   1.813  0.00  0.00     0.001 C 
BRANCH  27  28
ATOM     28  C   UNL d   1      18.407 -20.454   2.064  0.00  0.00    -0.004 C 
ATOM     29  C   UNL d   1      17.997 -21.532   1.072  0.00  0.00     0.005 C 
ENDBRANCH  27  28
ENDBRANCH  26  27
ENDBRANCH  25  26
ENDBRANCH  21  25
ENDBRANCH   1  19
TORSDOF 10
ENDMDL
MODEL 4
REMARK VINA RESULT:    -6.576      3.582      5.209
REMARK INTER + INTRA:         -12.231
REMARK INTER:                  -9.559
REMARK INTRA:                  -2.672
REMARK CONF_INDEPENDENT:        2.983
REMARK UNBOUND:                -2.672
REMARK  10 active torsions:
REMARK  status: ('A' for Active; 'I' for Inactive)
REMARK    1  A    between atoms: C_2  and  C_3 
REMARK    2  A    between atoms: C_3  and  C_4 
REMARK    3  A    between atoms: C_4  and  C_5 
REMARK    4  A    between atoms: C_5  and  N_6 
REMARK       I    between atoms: N_6  and  C_7 
REMARK       I    between atoms: C_7  and  N_9 
REMARK    5  A    between atoms: N_9  and  N_10 
REMARK       I    between atoms: N_10  and  C_11 
REMARK    6  A    between atoms: C_11  and  C_13 
REMARK    7  A    between atoms: C_15  and  O_16 
REMARK    8  A    between atoms: O_16  and  C_17 
REMARK    9  A    between atoms: C_19  and  O_20 
REMARK   10  A    between atoms: C_23  and  N_24 
ROOT
ATOM      1  N   UNL d   1      24.207 -17.843  -0.612  0.00  0.00    -0.262 N 
ATOM      2  C   UNL d   1      25.414 -17.603   0.048  0.00  0.00     0.272 C 
ATOM      3  O   UNL d   1      25.858 -18.369   0.902  0.00  0.00    -0.266 OA
ATOM      4  H   UNL d   1      23.724 -17.072  -1.078  0.00  0.00     0.190 HD
ENDROOT
BRANCH   2   5
ATOM      5  C   UNL d   1      26.231 -16.362  -0.297  0.00  0.00     0.069 A 
ATOM      6  C   UNL d   1      27.279 -16.003   0.608  0.00  0.00     0.059 A 
ATOM      7  C   UNL d   1      27.970 -14.759   0.532  0.00  0.00     0.103 A 
ATOM      8  C   UNL d   1      27.702 -13.898  -0.541  0.00  0.00     0.103 A 
ATOM      9  C   UNL d   1      26.681 -14.228  -1.424  0.00  0.00     0.076 A 
ATOM     10  C   UNL d   1      25.946 -15.437  -1.317  0.00  0.00     0.121 A 
BRANCH   7  11
ATOM     11  O   UNL d   1      28.842 -14.482   1.576  0.00  0.00    -0.349 OA
BRANCH  11  12
ATOM     12  C   UNL d   1      28.264 -14.371   2.893  0.00  0.00     0.171 C 
ATOM     13  C   UNL d   1      27.220 -13.278   2.969  0.00  0.00     0.034 C 
ENDBRANCH  11  12
ENDBRANCH   7  11
BRANCH   8  14
ATOM     14  O   UNL d   1      28.466 -12.779  -0.688  0.00  0.00    -0.353 OA
ATOM     15  C   UNL d   1      28.186 -11.599   0.043  0.00  0.00     0.210 C 
ENDBRANCH   8  14
BRANCH  10  16
ATOM     16  N   UNL d   1      24.898 -15.601  -2.334  0.00  0.00    -0.115 N 
ATOM     17  O   UNL d   1      23.721 -15.567  -1.960  0.00  0.00    -0.532 OA
ATOM     18  O   UNL d   1      25.225 -15.735  -3.516  0.00  0.00    -0.532 OA
ENDBRANCH  10  16
ENDBRANCH   2   5
BRANCH   1  19
ATOM     19  N   UNL d   1      23.274 -18.823  -0.111  0.00  0.00    -0.249 N 
ATOM     20  C   UNL d   1      21.924 -18.649  -0.400  0.00  0.00     0.334 C 
ATOM     21  N   UNL d   1      21.105 -19.683   0.013  0.00  0.00    -0.342 N 
ATOM     22  O   UNL d   1      21.501 -17.674  -1.019  0.00  0.00    -0.246 OA
ATOM     23  H   UNL d   1      21.507 -20.474   0.491  0.00  0.00     0.164 HD
ATOM     24  H   UNL d   1      23.644 -19.543   0.500  0.00  0.00     0.192 HD
BRANCH  21  25
ATOM     25  C   UNL d   1      19.676 -19.703  -0.317  0.00  0.00     0.124 C 
BRANCH  25  26
ATOM     26  C   UNL d   1      18.894 -20.812   0.402  0.00  0.00     0.020 C 
BRANCH  26  27
ATOM     27  C   UNL d   1      18.610 -20.459   1.871  0.00  0.00     0.001 C 
BRANCH  27  28
ATOM     28  C   UNL d   1      19.898 -20.133   2.633  0.00  0.00    -0.004 C 
ATOM     29  C   UNL d   1      19.904 -20.781   4.009  0.00  0.00     0.005 C 
ENDBRANCH  27  28
ENDBRANCH  26  27
ENDBRANCH  25  26
ENDBRANCH  21  25
ENDBRANCH   1  19
TORSDOF 10
ENDMDL
MODEL 5
REMARK VINA RESULT:    -6.315      2.549      3.609
REMARK INTER + INTRA:         -11.789
REMARK INTER:                  -9.298
REMARK INTRA:                  -2.491
REMARK CONF_INDEPENDENT:        2.983
REMARK UNBOUND:                -2.491
REMARK  10 active torsions:
REMARK  status: ('A' for Active; 'I' for Inactive)
REMARK    1  A    between atoms: C_2  and  C_3 
REMARK    2  A    between atoms: C_3  and  C_4 
REMARK    3  A    between atoms: C_4  and  C_5 
REMARK    4  A    between atoms: C_5  and  N_6 
REMARK       I    between atoms: N_6  and  C_7 
REMARK       I    between atoms: C_7  and  N_9 
REMARK    5  A    between atoms: N_9  and  N_10 
REMARK       I    between atoms: N_10  and  C_11 
REMARK    6  A    between atoms: C_11  and  C_13 
REMARK    7  A    between atoms: C_15  and  O_16 
REMARK    8  A    between atoms: O_16  and  C_17 
REMARK    9  A    between atoms: C_19  and  O_20 
REMARK   10  A    between atoms: C_23  and  N_24 
ROOT
ATOM      1  N   UNL d   1      24.709 -16.500  -1.354  0.00  0.00    -0.262 N 
ATOM      2  C   UNL d   1      26.009 -16.044  -1.124  0.00  0.00     0.272 C 
ATOM      3  O   UNL d   1      26.865 -16.745  -0.590  0.00  0.00    -0.266 OA
ATOM      4  H   UNL d   1      23.957 -15.827  -1.515  0.00  0.00     0.190 HD
ENDROOT
BRANCH   2   5
ATOM      5  C   UNL d   1      26.401 -14.635  -1.556  0.00  0.00     0.069 A 
ATOM      6  C   UNL d   1      27.341 -13.942  -0.729  0.00  0.00     0.059 A 
ATOM      7  C   UNL d   1      27.628 -12.554  -0.884  0.00  0.00     0.103 A 
ATOM      8  C   UNL d   1      27.061 -11.861  -1.962  0.00  0.00     0.103 A 
ATOM      9  C   UNL d   1      26.140 -12.516  -2.769  0.00  0.00     0.076 A 
ATOM     10  C   UNL d   1      25.803 -13.882  -2.582  0.00  0.00     0.121 A 
BRANCH   7  11
ATOM     11  O   UNL d   1      28.432 -11.986   0.095  0.00  0.00    -0.349 OA
BRANCH  11  12
ATOM     12  C   UNL d   1      27.759 -11.302   1.172  0.00  0.00     0.171 C 
ATOM     13  C   UNL d   1      27.007 -12.258   2.075  0.00  0.00     0.034 C 
ENDBRANCH  11  12
ENDBRANCH   7  11
BRANCH   8  14
ATOM     14  O   UNL d   1      27.451 -10.574  -2.188  0.00  0.00    -0.353 OA
ATOM     15  C   UNL d   1      26.780  -9.761  -3.133  0.00  0.00     0.210 C 
ENDBRANCH   8  14
BRANCH  10  16
ATOM     16  N   UNL d   1      24.799 -14.393  -3.525  0.00  0.00    -0.115 N 
ATOM     17  O   UNL d   1      23.626 -14.450  -3.145  0.00  0.00    -0.532 OA
ATOM     18  O   UNL d   1      25.155 -14.716  -4.661  0.00  0.00    -0.532 OA
ENDBRANCH  10  16
ENDBRANCH   2   5
BRANCH   1  19
ATOM     19  N   UNL d   1      24.219 -17.691  -0.703  0.00  0.00    -0.249 N 
ATOM     20  C   UNL d   1      22.864 -17.756  -0.391  0.00  0.00     0.334 C 
ATOM     21  N   UNL d   1      22.446 -18.968   0.126  0.00  0.00    -0.342 N 
ATOM     22  O   UNL d   1      22.091 -16.824  -0.607  0.00  0.00    -0.246 OA
ATOM     23  H   UNL d   1      23.116 -19.709   0.255  0.00  0.00     0.164 HD
ATOM     24  H   UNL d   1      24.907 -18.383  -0.428  0.00  0.00     0.192 HD
BRANCH  21  25
ATOM     25  C   UNL d   1      21.030 -19.233   0.399  0.00  0.00     0.124 C 
BRANCH  25  26
ATOM     26  C   UNL d   1      20.243 -19.700  -0.834  0.00  0.00     0.020 C 
BRANCH  26  27
ATOM     27  C   UNL d   1      18.780 -20.027  -0.495  0.00  0.00     0.001 C 
BRANCH  27  28
ATOM     28  C   UNL d   1      18.679 -21.089   0.605  0.00  0.00    -0.004 C 
ATOM     29  C   UNL d   1      18.513 -20.451   1.975  0.00  0.00     0.005 C 
ENDBRANCH  27  28
ENDBRANCH  26  27
ENDBRANCH  25  26
ENDBRANCH  21  25
ENDBRANCH   1  19
TORSDOF 10
ENDMDL
MODEL 6
REMARK VINA RESULT:    -6.177      1.651      1.924
REMARK INTER + INTRA:         -11.673
REMARK INTER:                  -9.160
REMARK INTRA:                  -2.513
REMARK CONF_INDEPENDENT:        2.983
REMARK UNBOUND:                -2.513
REMARK  10 active torsions:
REMARK  status: ('A' for Active; 'I' for Inactive)
REMARK    1  A    between atoms: C_2  and  C_3 
REMARK    2  A    between atoms: C_3  and  C_4 
REMARK    3  A    between atoms: C_4  and  C_5 
REMARK    4  A    between atoms: C_5  and  N_6 
REMARK       I    between atoms: N_6  and  C_7 
REMARK       I    between atoms: C_7  and  N_9 
REMARK    5  A    between atoms: N_9  and  N_10 
REMARK       I    between atoms: N_10  and  C_11 
REMARK    6  A    between atoms: C_11  and  C_13 
REMARK    7  A    between atoms: C_15  and  O_16 
REMARK    8  A    between atoms: O_16  and  C_17 
REMARK    9  A    between atoms: C_19  and  O_20 
REMARK   10  A    between atoms: C_23  and  N_24 
ROOT
ATOM      1  N   UNL d   1      26.128 -15.314  -2.001  0.00  0.00    -0.262 N 
ATOM      2  C   UNL d   1      26.285 -13.940  -1.804  0.00  0.00     0.272 C 
ATOM      3  O   UNL d   1      26.383 -13.445  -0.683  0.00  0.00    -0.266 OA
ATOM      4  H   UNL d   1      25.758 -15.659  -2.889  0.00  0.00     0.190 HD
ENDROOT
BRANCH   2   5
ATOM      5  C   UNL d   1      26.354 -13.008  -3.009  0.00  0.00     0.069 A 
ATOM      6  C   UNL d   1      26.379 -11.603  -2.742  0.00  0.00     0.059 A 
ATOM      7  C   UNL d   1      26.220 -10.620  -3.762  0.00  0.00     0.103 A 
ATOM      8  C   UNL d   1      26.156 -11.036  -5.099  0.00  0.00     0.103 A 
ATOM      9  C   UNL d   1      26.122 -12.397  -5.376  0.00  0.00     0.076 A 
ATOM     10  C   UNL d   1      26.217 -13.381  -4.358  0.00  0.00     0.121 A 
BRANCH   7  11
ATOM     11  O   UNL d   1      26.098  -9.307  -3.329  0.00  0.00    -0.349 OA
BRANCH  11  12
ATOM     12  C   UNL d   1      26.708  -8.981  -2.063  0.00  0.00     0.171 C 
ATOM     13  C   UNL d   1      25.807  -8.125  -1.198  0.00  0.00     0.034 C 
ENDBRANCH  11  12
ENDBRANCH   7  11
BRANCH   8  14
ATOM     14  O   UNL d   1      26.149 -10.087  -6.078  0.00  0.00    -0.353 OA
ATOM     15  C   UNL d   1      25.119  -9.118  -6.151  0.00  0.00     0.210 C 
ENDBRANCH   8  14
BRANCH  10  16
ATOM     16  N   UNL d   1      26.148 -14.765  -4.846  0.00  0.00    -0.115 N 
ATOM     17  O   UNL d   1      27.106 -15.198  -5.493  0.00  0.00    -0.532 OA
ATOM     18  O   UNL d   1      25.159 -15.449  -4.569  0.00  0.00    -0.532 OA
ENDBRANCH  10  16
ENDBRANCH   2   5
BRANCH   1  19
ATOM     19  N   UNL d   1      25.762 -16.179  -0.906  0.00  0.00    -0.249 N 
ATOM     20  C   UNL d   1      24.705 -17.065  -1.097  0.00  0.00     0.334 C 
ATOM     21  N   UNL d   1      24.485 -17.939  -0.049  0.00  0.00    -0.342 N 
ATOM     22  O   UNL d   1      24.053 -17.101  -2.139  0.00  0.00    -0.246 OA
ATOM     23  H   UNL d   1      25.068 -17.887   0.771  0.00  0.00     0.164 HD
ATOM     24  H   UNL d   1      26.238 -16.034  -0.023  0.00  0.00     0.192 HD
BRANCH  21  25
ATOM     25  C   UNL d   1      23.485 -19.006  -0.143  0.00  0.00     0.124 C 
BRANCH  25  26
ATOM     26  C   UNL d   1      22.038 -18.505  -0.037  0.00  0.00     0.020 C 
BRANCH  26  27
ATOM     27  C   UNL d   1      21.077 -19.322  -0.916  0.00  0.00     0.001 C 
BRANCH  27  28
ATOM     28  C   UNL d   1      19.692 -19.447  -0.273  0.00  0.00    -0.004 C 
ATOM     29  C   UNL d   1      19.769 -20.153   1.072  0.00  0.00     0.005 C 
ENDBRANCH  27  28
ENDBRANCH  26  27
ENDBRANCH  25  26
ENDBRANCH  21  25
ENDBRANCH   1  19
TORSDOF 10
ENDMDL
MODEL 7
REMARK VINA RESULT:    -6.142      1.421      1.602
REMARK INTER + INTRA:         -11.727
REMARK INTER:                  -9.125
REMARK INTRA:                  -2.602
REMARK CONF_INDEPENDENT:        2.983
REMARK UNBOUND:                -2.602
REMARK  10 active torsions:
REMARK  status: ('A' for Active; 'I' for Inactive)
REMARK    1  A    between atoms: C_2  and  C_3 
REMARK    2  A    between atoms: C_3  and  C_4 
REMARK    3  A    between atoms: C_4  and  C_5 
REMARK    4  A    between atoms: C_5  and  N_6 
REMARK       I    between atoms: N_6  and  C_7 
REMARK       I    between atoms: C_7  and  N_9 
REMARK    5  A    between atoms: N_9  and  N_10 
REMARK       I    between atoms: N_10  and  C_11 
REMARK    6  A    between atoms: C_11  and  C_13 
REMARK    7  A    between atoms: C_15  and  O_16 
REMARK    8  A    between atoms: O_16  and  C_17 
REMARK    9  A    between atoms: C_19  and  O_20 
REMARK   10  A    between atoms: C_23  and  N_24 
ROOT
ATOM      1  N   UNL d   1      25.744 -15.227  -2.006  0.00  0.00    -0.262 N 
ATOM      2  C   UNL d   1      26.216 -13.928  -1.810  0.00  0.00     0.272 C 
ATOM      3  O   UNL d   1      26.424 -13.467  -0.690  0.00  0.00    -0.266 OA
ATOM      4  H   UNL d   1      25.305 -15.478  -2.895  0.00  0.00     0.190 HD
ENDROOT
BRANCH   2   5
ATOM      5  C   UNL d   1      26.502 -13.039  -3.016  0.00  0.00     0.069 A 
ATOM      6  C   UNL d   1      26.683 -11.642  -2.764  0.00  0.00     0.059 A 
ATOM      7  C   UNL d   1      26.735 -10.671  -3.805  0.00  0.00     0.103 A 
ATOM      8  C   UNL d   1      26.730 -11.105  -5.138  0.00  0.00     0.103 A 
ATOM      9  C   UNL d   1      26.547 -12.456  -5.401  0.00  0.00     0.076 A 
ATOM     10  C   UNL d   1      26.433 -13.422  -4.367  0.00  0.00     0.121 A 
BRANCH   7  11
ATOM     11  O   UNL d   1      26.745  -9.343  -3.400  0.00  0.00    -0.349 OA
BRANCH  11  12
ATOM     12  C   UNL d   1      25.465  -8.686  -3.297  0.00  0.00     0.171 C 
ATOM     13  C   UNL d   1      24.883  -8.352  -4.655  0.00  0.00     0.034 C 
ENDBRANCH  11  12
ENDBRANCH   7  11
BRANCH   8  14
ATOM     14  O   UNL d   1      26.925 -10.184  -6.125  0.00  0.00    -0.353 OA
ATOM     15  C   UNL d   1      27.044 -10.578  -7.480  0.00  0.00     0.210 C 
ENDBRANCH   8  14
BRANCH  10  16
ATOM     16  N   UNL d   1      26.229 -14.797  -4.843  0.00  0.00    -0.115 N 
ATOM     17  O   UNL d   1      27.164 -15.349  -5.432  0.00  0.00    -0.532 OA
ATOM     18  O   UNL d   1      25.155 -15.358  -4.612  0.00  0.00    -0.532 OA
ENDBRANCH  10  16
ENDBRANCH   2   5
BRANCH   1  19
ATOM     19  N   UNL d   1      25.184 -15.982  -0.911  0.00  0.00    -0.249 N 
ATOM     20  C   UNL d   1      24.413 -17.101  -1.214  0.00  0.00     0.334 C 
ATOM     21  N   UNL d   1      24.006 -17.837  -0.117  0.00  0.00    -0.342 N 
ATOM     22  O   UNL d   1      24.158 -17.435  -2.370  0.00  0.00    -0.246 OA
ATOM     23  H   UNL d   1      24.267 -17.536   0.808  0.00  0.00     0.164 HD
ATOM     24  H   UNL d   1      25.310 -15.606   0.021  0.00  0.00     0.192 HD
BRANCH  21  25
ATOM     25  C   UNL d   1      23.284 -19.104  -0.275  0.00  0.00     0.124 C 
BRANCH  25  26
ATOM     26  C   UNL d   1      21.846 -18.934  -0.786  0.00  0.00     0.020 C 
BRANCH  26  27
ATOM     27  C   UNL d   1      20.807 -19.368   0.260  0.00  0.00     0.001 C 
BRANCH  27  28
ATOM     28  C   UNL d   1      19.572 -19.994  -0.397  0.00  0.00    -0.004 C 
ATOM     29  C   UNL d   1      18.792 -20.845   0.593  0.00  0.00     0.005 C 
ENDBRANCH  27  28
ENDBRANCH  26  27
ENDBRANCH  25  26
ENDBRANCH  21  25
ENDBRANCH   1  19
TORSDOF 10
ENDMDL
MODEL 8
REMARK VINA RESULT:    -5.973      3.492      5.265
REMARK INTER + INTRA:         -11.428
REMARK INTER:                  -8.956
REMARK INTRA:                  -2.472
REMARK CONF_INDEPENDENT:        2.983
REMARK UNBOUND:                -2.472
REMARK  10 active torsions:
REMARK  status: ('A' for Active; 'I' for Inactive)
REMARK    1  A    between atoms: C_2  and  C_3 
REMARK    2  A    between atoms: C_3  and  C_4 
REMARK    3  A    between atoms: C_4  and  C_5 
REMARK    4  A    between atoms: C_5  and  N_6 
REMARK       I    between atoms: N_6  and  C_7 
REMARK       I    between atoms: C_7  and  N_9 
REMARK    5  A    between atoms: N_9  and  N_10 
REMARK       I    between atoms: N_10  and  C_11 
REMARK    6  A    between atoms: C_11  and  C_13 
REMARK    7  A    between atoms: C_15  and  O_16 
REMARK    8  A    between atoms: O_16  and  C_17 
REMARK    9  A    between atoms: C_19  and  O_20 
REMARK   10  A    between atoms: C_23  and  N_24 
ROOT
ATOM      1  N   UNL d   1      23.345 -16.923  -0.517  0.00  0.00    -0.262 N 
ATOM      2  C   UNL d   1      24.138 -16.129  -1.347  0.00  0.00     0.272 C 
ATOM      3  O   UNL d   1      23.658 -15.286  -2.103  0.00  0.00    -0.266 OA
ATOM      4  H   UNL d   1      23.724 -17.793  -0.136  0.00  0.00     0.190 HD
ENDROOT
BRANCH   2   5
ATOM      5  C   UNL d   1      25.655 -16.287  -1.320  0.00  0.00     0.069 A 
ATOM      6  C   UNL d   1      26.412 -15.428  -2.178  0.00  0.00     0.059 A 
ATOM      7  C   UNL d   1      27.805 -15.613  -2.420  0.00  0.00     0.103 A 
ATOM      8  C   UNL d   1      28.493 -16.599  -1.700  0.00  0.00     0.103 A 
ATOM      9  C   UNL d   1      27.771 -17.447  -0.869  0.00  0.00     0.076 A 
ATOM     10  C   UNL d   1      26.373 -17.308  -0.672  0.00  0.00     0.121 A 
BRANCH   7  11
ATOM     11  O   UNL d   1      28.364 -14.807  -3.401  0.00  0.00    -0.349 OA
BRANCH  11  12
ATOM     12  C   UNL d   1      27.555 -14.546  -4.567  0.00  0.00     0.171 C 
ATOM     13  C   UNL d   1      28.300 -14.826  -5.855  0.00  0.00     0.034 C 
ENDBRANCH  11  12
ENDBRANCH   7  11
BRANCH   8  14
ATOM     14  O   UNL d   1      29.848 -16.676  -1.829  0.00  0.00    -0.353 OA
ATOM     15  C   UNL d   1      30.688 -16.753  -0.692  0.00  0.00     0.210 C 
ENDBRANCH   8  14
BRANCH  10  16
ATOM     16  N   UNL d   1      25.785 -18.307   0.231  0.00  0.00    -0.115 N 
ATOM     17  O   UNL d   1      26.262 -18.412   1.365  0.00  0.00    -0.532 OA
ATOM     18  O   UNL d   1      24.828 -18.979  -0.161  0.00  0.00    -0.532 OA
ENDBRANCH  10  16
ENDBRANCH   2   5
BRANCH   1  19
ATOM     19  N   UNL d   1      21.921 -17.017  -0.727  0.00  0.00    -0.249 N 
ATOM     20  C   UNL d   1      21.356 -18.285  -0.832  0.00  0.00     0.334 C 
ATOM     21  N   UNL d   1      19.977 -18.300  -0.917  0.00  0.00    -0.342 N 
ATOM     22  O   UNL d   1      22.031 -19.313  -0.800  0.00  0.00    -0.246 OA
ATOM     23  H   UNL d   1      19.470 -17.430  -0.909  0.00  0.00     0.164 HD
ATOM     24  H   UNL d   1      21.417 -16.149  -0.873  0.00  0.00     0.192 HD
BRANCH  21  25
ATOM     25  C   UNL d   1      19.227 -19.560  -0.919  0.00  0.00     0.124 C 
BRANCH  25  26
ATOM     26  C   UNL d   1      19.773 -20.603   0.066  0.00  0.00     0.020 C 
BRANCH  26  27
ATOM     27  C   UNL d   1      18.714 -21.041   1.090  0.00  0.00     0.001 C 
BRANCH  27  28
ATOM     28  C   UNL d   1      18.991 -20.450   2.476  0.00  0.00    -0.004 C 
ATOM     29  C   UNL d   1      20.279 -19.641   2.484  0.00  0.00     0.005 C 
ENDBRANCH  27  28
ENDBRANCH  26  27
ENDBRANCH  25  26
ENDBRANCH  21  25
ENDBRANCH   1  19
TORSDOF 10
ENDMDL
MODEL 9
REMARK VINA RESULT:    -5.813      2.791      8.820
REMARK INTER + INTRA:         -11.507
REMARK INTER:                  -8.796
REMARK INTRA:                  -2.711
REMARK CONF_INDEPENDENT:        2.983
REMARK UNBOUND:                -2.711
REMARK  10 active torsions:
REMARK  status: ('A' for Active; 'I' for Inactive)
REMARK    1  A    between atoms: C_2  and  C_3 
REMARK    2  A    between atoms: C_3  and  C_4 
REMARK    3  A    between atoms: C_4  and  C_5 
REMARK    4  A    between atoms: C_5  and  N_6 
REMARK       I    between atoms: N_6  and  C_7 
REMARK       I    between atoms: C_7  and  N_9 
REMARK    5  A    between atoms: N_9  and  N_10 
REMARK       I    between atoms: N_10  and  C_11 
REMARK    6  A    between atoms: C_11  and  C_13 
REMARK    7  A    between atoms: C_15  and  O_16 
REMARK    8  A    between atoms: O_16  and  C_17 
REMARK    9  A    between atoms: C_19  and  O_20 
REMARK   10  A    between atoms: C_23  and  N_24 
ROOT
ATOM      1  N   UNL d   1      25.921 -12.870  -3.435  0.00  0.00    -0.262 N 
ATOM      2  C   UNL d   1      25.283 -14.111  -3.392  0.00  0.00     0.272 C 
ATOM      3  O   UNL d   1      24.445 -14.448  -4.226  0.00  0.00    -0.266 OA
ATOM      4  H   UNL d   1      26.371 -12.502  -2.594  0.00  0.00     0.190 HD
ENDROOT
BRANCH   2   5
ATOM      5  C   UNL d   1      25.634 -15.103  -2.288  0.00  0.00     0.069 A 
ATOM      6  C   UNL d   1      24.921 -16.343  -2.278  0.00  0.00     0.059 A 
ATOM      7  C   UNL d   1      24.985 -17.261  -1.190  0.00  0.00     0.103 A 
ATOM      8  C   UNL d   1      25.871 -17.003  -0.136  0.00  0.00     0.103 A 
ATOM      9  C   UNL d   1      26.565 -15.799  -0.125  0.00  0.00     0.076 A 
ATOM     10  C   UNL d   1      26.459 -14.852  -1.176  0.00  0.00     0.121 A 
BRANCH   7  11
ATOM     11  O   UNL d   1      24.111 -18.338  -1.250  0.00  0.00    -0.349 OA
BRANCH  11  12
ATOM     12  C   UNL d   1      23.094 -18.407  -0.230  0.00  0.00     0.171 C 
ATOM     13  C   UNL d   1      21.741 -18.783  -0.796  0.00  0.00     0.034 C 
ENDBRANCH  11  12
ENDBRANCH   7  11
BRANCH   8  14
ATOM     14  O   UNL d   1      26.033 -17.952   0.829  0.00  0.00    -0.353 OA
ATOM     15  C   UNL d   1      27.030 -18.951   0.714  0.00  0.00     0.210 C 
ENDBRANCH   8  14
BRANCH  10  16
ATOM     16  N   UNL d   1      27.257 -13.634  -0.978  0.00  0.00    -0.115 N 
ATOM     17  O   UNL d   1      28.161 -13.399  -1.785  0.00  0.00    -0.532 OA
ATOM     18  O   UNL d   1      26.979 -12.882  -0.041  0.00  0.00    -0.532 OA
ENDBRANCH  10  16
ENDBRANCH   2   5
BRANCH   1  19
ATOM     19  N   UNL d   1      25.410 -11.807  -4.266  0.00  0.00    -0.249 N 
ATOM     20  C   UNL d   1      25.719 -10.495  -3.914  0.00  0.00     0.334 C 
ATOM     21  N   UNL d   1      25.294  -9.538  -4.817  0.00  0.00    -0.342 N 
ATOM     22  O   UNL d   1      26.365 -10.216  -2.906  0.00  0.00    -0.246 OA
ATOM     23  H   UNL d   1      24.794  -9.823  -5.644  0.00  0.00     0.164 HD
ATOM     24  H   UNL d   1      24.780 -12.068  -5.015  0.00  0.00     0.192 HD
BRANCH  21  25
ATOM     25  C   UNL d   1      25.640  -8.124  -4.647  0.00  0.00     0.124 C 
BRANCH  25  26
ATOM     26  C   UNL d   1      24.655  -7.163  -5.329  0.00  0.00     0.020 C 
BRANCH  26  27
ATOM     27  C   UNL d   1      23.286  -7.818  -5.574  0.00  0.00     0.001 C 
BRANCH  27  28
ATOM     28  C   UNL d   1      22.140  -6.820  -5.382  0.00  0.00    -0.004 C 
ATOM     29  C   UNL d   1      22.099  -5.802  -6.511  0.00  0.00     0.005 C 
ENDBRANCH  27  28
ENDBRANCH  26  27
ENDBRANCH  25  26
ENDBRANCH  21  25
ENDBRANCH   1  19
TORSDOF 10
ENDMDL
