MODEL 1
REMARK VINA RESULT:    -7.911      0.000      0.000
REMARK INTER + INTRA:         -10.460
REMARK INTER:                  -9.403
REMARK INTRA:                  -1.057
REMARK CONF_INDEPENDENT:        1.492
REMARK UNBOUND:                -1.057
REMARK  5 active torsions:
REMARK  status: ('A' for Active; 'I' for Inactive)
REMARK    1  A    between atoms: O_2  and  C_3 
REMARK    2  A    between atoms: C_6  and  N_7 
REMARK       I    between atoms: N_7  and  C_8 
REMARK    3  A    between atoms: C_10  and  C_8 
REMARK    4  A    between atoms: C_10  and  N_12 
REMARK       I    between atoms: N_12  and  C_13 
REMARK    5  A    between atoms: C_13  and  C_15 
ROOT
ATOM      1  N   UNL d   1      28.358 -14.629   2.669  0.00  0.00    -0.325 N 
ATOM      2  C   UNL d   1      27.406 -14.283   1.705  0.00  0.00     0.244 C 
ATOM      3  O   UNL d   1      26.571 -13.380   1.804  0.00  0.00    -0.271 OA
ATOM      4  H   UNL d   1      28.989 -15.398   2.472  0.00  0.00     0.169 HD
ENDROOT
BRANCH   2   5
ATOM      5  C   UNL d   1      27.447 -15.077   0.388  0.00  0.00     0.173 C 
ATOM      6  C   UNL d   1      27.819 -14.076  -0.713  0.00  0.00     0.042 C 
BRANCH   5   7
ATOM      7  N   UNL d   1      26.115 -15.649   0.128  0.00  0.00    -0.344 N 
ATOM      8  C   UNL d   1      25.954 -17.000  -0.124  0.00  0.00     0.252 C 
ATOM      9  O   UNL d   1      26.892 -17.790  -0.197  0.00  0.00    -0.268 OA
ATOM     10  H   UNL d   1      25.298 -15.094   0.358  0.00  0.00     0.163 HD
BRANCH   8  11
ATOM     11  C   UNL d   1      24.551 -17.475  -0.286  0.00  0.00     0.032 A 
ATOM     12  C   UNL d   1      24.274 -18.842  -0.167  0.00  0.00     0.018 A 
ATOM     13  C   UNL d   1      22.969 -19.312  -0.343  0.00  0.00     0.025 A 
ATOM     14  C   UNL d   1      21.939 -18.418  -0.630  0.00  0.00     0.034 A 
ATOM     15 CL   UNL d   1      20.348 -19.016  -0.898  0.00  0.00    -0.084 Cl
ATOM     16  C   UNL d   1      22.195 -17.048  -0.704  0.00  0.00     0.025 A 
ATOM     17  C   UNL d   1      23.504 -16.572  -0.521  0.00  0.00     0.018 A 
ENDBRANCH   8  11
ENDBRANCH   5   7
ENDBRANCH   2   5
BRANCH   1  18
ATOM     18  C   UNL d   1      28.422 -14.058   3.972  0.00  0.00     0.037 A 
ATOM     19  C   UNL d   1      28.801 -14.825   5.086  0.00  0.00     0.032 A 
ATOM     20  C   UNL d   1      28.849 -14.239   6.372  0.00  0.00     0.042 A 
ATOM     21  C   UNL d   1      28.493 -12.899   6.565  0.00  0.00     0.106 A 
ATOM     22  C   UNL d   1      28.143 -12.150   5.453  0.00  0.00     0.151 A 
ATOM     23  C   UNL d   1      28.106 -12.720   4.191  0.00  0.00     0.074 A 
ATOM     24  F   UNL d   1      27.858 -10.844   5.533  0.00  0.00    -0.203 F 
BRANCH  21  25
ATOM     25  O   UNL d   1      28.582 -12.398   7.835  0.00  0.00    -0.353 OA
ATOM     26  C   UNL d   1      29.307 -13.225   8.749  0.00  0.00     0.210 C 
ENDBRANCH  21  25
ENDBRANCH   1  18
TORSDOF 5
ENDMDL
MODEL 2
REMARK VINA RESULT:    -7.581      4.083      8.347
REMARK INTER + INTRA:         -10.621
REMARK INTER:                  -9.072
REMARK INTRA:                  -1.549
REMARK CONF_INDEPENDENT:        1.492
REMARK UNBOUND:                -1.549
REMARK  5 active torsions:
REMARK  status: ('A' for Active; 'I' for Inactive)
REMARK    1  A    between atoms: O_2  and  C_3 
REMARK    2  A    between atoms: C_6  and  N_7 
REMARK       I    between atoms: N_7  and  C_8 
REMARK    3  A    between atoms: C_10  and  C_8 
REMARK    4  A    between atoms: C_10  and  N_12 
REMARK       I    between atoms: N_12  and  C_13 
REMARK    5  A    between atoms: C_13  and  C_15 
ROOT
ATOM      1  N   UNL d   1      25.973 -16.164  -0.695  0.00  0.00    -0.325 N 
ATOM      2  C   UNL d   1      27.143 -16.822  -0.299  0.00  0.00     0.244 C 
ATOM      3  O   UNL d   1      27.240 -18.018  -0.018  0.00  0.00    -0.271 OA
ATOM      4  H   UNL d   1      26.021 -15.171  -0.894  0.00  0.00     0.169 HD
ENDROOT
BRANCH   2   5
ATOM      5  C   UNL d   1      28.425 -15.972  -0.261  0.00  0.00     0.173 C 
ATOM      6  C   UNL d   1      29.593 -16.935  -0.512  0.00  0.00     0.042 C 
BRANCH   5   7
ATOM      7  N   UNL d   1      28.553 -15.350   1.067  0.00  0.00    -0.344 N 
ATOM      8  C   UNL d   1      27.632 -14.418   1.511  0.00  0.00     0.252 C 
ATOM      9  O   UNL d   1      26.693 -14.016   0.828  0.00  0.00    -0.268 OA
ATOM     10  H   UNL d   1      29.185 -15.771   1.739  0.00  0.00     0.163 HD
BRANCH   8  11
ATOM     11  C   UNL d   1      27.818 -13.924   2.905  0.00  0.00     0.032 A 
ATOM     12  C   UNL d   1      28.157 -14.833   3.913  0.00  0.00     0.018 A 
ATOM     13  C   UNL d   1      28.310 -14.395   5.232  0.00  0.00     0.025 A 
ATOM     14  C   UNL d   1      28.130 -13.048   5.544  0.00  0.00     0.034 A 
ATOM     15 CL   UNL d   1      28.266 -12.531   7.180  0.00  0.00    -0.084 Cl
ATOM     16  C   UNL d   1      27.838 -12.125   4.539  0.00  0.00     0.025 A 
ATOM     17  C   UNL d   1      27.691 -12.561   3.213  0.00  0.00     0.018 A 
ENDBRANCH   8  11
ENDBRANCH   5   7
ENDBRANCH   2   5
BRANCH   1  18
ATOM     18  C   UNL d   1      24.684 -16.766  -0.714  0.00  0.00     0.037 A 
ATOM     19  C   UNL d   1      23.522 -15.997  -0.890  0.00  0.00     0.032 A 
ATOM     20  C   UNL d   1      22.251 -16.616  -0.896  0.00  0.00     0.042 A 
ATOM     21  C   UNL d   1      22.123 -17.996  -0.699  0.00  0.00     0.106 A 
ATOM     22  C   UNL d   1      23.279 -18.745  -0.549  0.00  0.00     0.151 A 
ATOM     23  C   UNL d   1      24.525 -18.141  -0.553  0.00  0.00     0.074 A 
ATOM     24  F   UNL d   1      23.256 -20.078  -0.429  0.00  0.00    -0.203 F 
BRANCH  21  25
ATOM     25  O   UNL d   1      20.861 -18.526  -0.737  0.00  0.00    -0.353 OA
ATOM     26  C   UNL d   1      20.609 -19.526   0.252  0.00  0.00     0.210 C 
ENDBRANCH  21  25
ENDBRANCH   1  18
TORSDOF 5
ENDMDL
MODEL 3
REMARK VINA RESULT:    -7.572      1.075      1.449
REMARK INTER + INTRA:         -10.055
REMARK INTER:                  -9.063
REMARK INTRA:                  -0.992
REMARK CONF_INDEPENDENT:        1.492
REMARK UNBOUND:                -0.992
REMARK  5 active torsions:
REMARK  status: ('A' for Active; 'I' for Inactive)
REMARK    1  A    between atoms: O_2  and  C_3 
REMARK    2  A    between atoms: C_6  and  N_7 
REMARK       I    between atoms: N_7  and  C_8 
REMARK    3  A    between atoms: C_10  and  C_8 
REMARK    4  A    between atoms: C_10  and  N_12 
REMARK       I    between atoms: N_12  and  C_13 
REMARK    5  A    between atoms: C_13  and  C_15 
ROOT
ATOM      1  N   UNL d   1      28.202 -14.625   2.323  0.00  0.00    -0.325 N 
ATOM      2  C   UNL d   1      27.401 -14.229   1.247  0.00  0.00     0.244 C 
ATOM      3  O   UNL d   1      26.707 -13.211   1.198  0.00  0.00    -0.271 OA
ATOM      4  H   UNL d   1      28.725 -15.491   2.244  0.00  0.00     0.169 HD
ENDROOT
BRANCH   2   5
ATOM      5  C   UNL d   1      27.438 -15.129  -0.000  0.00  0.00     0.173 C 
ATOM      6  C   UNL d   1      27.832 -14.228  -1.177  0.00  0.00     0.042 C 
BRANCH   5   7
ATOM      7  N   UNL d   1      26.100 -15.703  -0.221  0.00  0.00    -0.344 N 
ATOM      8  C   UNL d   1      25.887 -17.067  -0.148  0.00  0.00     0.252 C 
ATOM      9  O   UNL d   1      26.784 -17.883   0.051  0.00  0.00    -0.268 OA
ATOM     10  H   UNL d   1      25.299 -15.080  -0.202  0.00  0.00     0.163 HD
BRANCH   8  11
ATOM     11  C   UNL d   1      24.475 -17.520  -0.304  0.00  0.00     0.032 A 
ATOM     12  C   UNL d   1      24.171 -18.877  -0.145  0.00  0.00     0.018 A 
ATOM     13  C   UNL d   1      22.858 -19.327  -0.314  0.00  0.00     0.025 A 
ATOM     14  C   UNL d   1      21.847 -18.422  -0.635  0.00  0.00     0.034 A 
ATOM     15 CL   UNL d   1      20.246 -18.997  -0.895  0.00  0.00    -0.084 Cl
ATOM     16  C   UNL d   1      22.131 -17.061  -0.750  0.00  0.00     0.025 A 
ATOM     17  C   UNL d   1      23.447 -16.605  -0.574  0.00  0.00     0.018 A 
ENDBRANCH   8  11
ENDBRANCH   5   7
ENDBRANCH   2   5
BRANCH   1  18
ATOM     18  C   UNL d   1      28.236 -13.962   3.583  0.00  0.00     0.037 A 
ATOM     19  C   UNL d   1      28.050 -12.574   3.681  0.00  0.00     0.032 A 
ATOM     20  C   UNL d   1      28.097 -11.936   4.943  0.00  0.00     0.042 A 
ATOM     21  C   UNL d   1      28.359 -12.666   6.108  0.00  0.00     0.106 A 
ATOM     22  C   UNL d   1      28.519 -14.038   5.997  0.00  0.00     0.151 A 
ATOM     23  C   UNL d   1      28.462 -14.666   4.763  0.00  0.00     0.074 A 
ATOM     24  F   UNL d   1      28.700 -14.825   7.066  0.00  0.00    -0.203 F 
BRANCH  21  25
ATOM     25  O   UNL d   1      28.370 -11.983   7.293  0.00  0.00    -0.353 OA
ATOM     26  C   UNL d   1      29.585 -11.277   7.558  0.00  0.00     0.210 C 
ENDBRANCH  21  25
ENDBRANCH   1  18
TORSDOF 5
ENDMDL
MODEL 4
REMARK VINA RESULT:    -7.521      3.918      8.265
REMARK INTER + INTRA:         -10.585
REMARK INTER:                  -9.012
REMARK INTRA:                  -1.573
REMARK CONF_INDEPENDENT:        1.492
REMARK UNBOUND:                -1.573
REMARK  5 active torsions:
REMARK  status: ('A' for Active; 'I' for Inactive)
REMARK    1  A    between atoms: O_2  and  C_3 
REMARK    2  A    between atoms: C_6  and  N_7 
REMARK       I    between atoms: N_7  and  C_8 
REMARK    3  A    between atoms: C_10  and  C_8 
REMARK    4  A    between atoms: C_10  and  N_12 
REMARK       I    between atoms: N_12  and  C_13 
REMARK    5  A    between atoms: C_13  and  C_15 
ROOT
ATOM      1  N   UNL d   1      26.133 -16.130  -0.472  0.00  0.00    -0.325 N 
ATOM      2  C   UNL d   1      27.402 -16.672  -0.239  0.00  0.00     0.244 C 
ATOM      3  O   UNL d   1      27.671 -17.872  -0.152  0.00  0.00    -0.271 OA
ATOM      4  H   UNL d   1      26.039 -15.122  -0.517  0.00  0.00     0.169 HD
ENDROOT
BRANCH   2   5
ATOM      5  C   UNL d   1      28.564 -15.669  -0.134  0.00  0.00     0.173 C 
ATOM      6  C   UNL d   1      29.833 -16.428  -0.540  0.00  0.00     0.042 C 
BRANCH   5   7
ATOM      7  N   UNL d   1      28.673 -15.202   1.259  0.00  0.00    -0.344 N 
ATOM      8  C   UNL d   1      27.694 -14.405   1.824  0.00  0.00     0.252 C 
ATOM      9  O   UNL d   1      26.713 -13.997   1.205  0.00  0.00    -0.268 OA
ATOM     10  H   UNL d   1      29.349 -15.651   1.867  0.00  0.00     0.163 HD
BRANCH   8  11
ATOM     11  C   UNL d   1      27.872 -14.068   3.264  0.00  0.00     0.032 A 
ATOM     12  C   UNL d   1      27.721 -12.740   3.680  0.00  0.00     0.018 A 
ATOM     13  C   UNL d   1      27.910 -12.398   5.022  0.00  0.00     0.025 A 
ATOM     14  C   UNL d   1      28.244 -13.382   5.952  0.00  0.00     0.034 A 
ATOM     15 CL   UNL d   1      28.529 -12.939   7.590  0.00  0.00    -0.084 Cl
ATOM     16  C   UNL d   1      28.351 -14.716   5.557  0.00  0.00     0.025 A 
ATOM     17  C   UNL d   1      28.154 -15.064   4.211  0.00  0.00     0.018 A 
ENDBRANCH   8  11
ENDBRANCH   5   7
ENDBRANCH   2   5
BRANCH   1  18
ATOM     18  C   UNL d   1      24.933 -16.895  -0.521  0.00  0.00     0.037 A 
ATOM     19  C   UNL d   1      24.938 -18.277  -0.275  0.00  0.00     0.032 A 
ATOM     20  C   UNL d   1      23.734 -19.017  -0.339  0.00  0.00     0.042 A 
ATOM     21  C   UNL d   1      22.526 -18.396  -0.676  0.00  0.00     0.106 A 
ATOM     22  C   UNL d   1      22.533 -17.028  -0.895  0.00  0.00     0.151 A 
ATOM     23  C   UNL d   1      23.710 -16.300  -0.822  0.00  0.00     0.074 A 
ATOM     24  F   UNL d   1      21.414 -16.339  -1.150  0.00  0.00    -0.203 F 
BRANCH  21  25
ATOM     25  O   UNL d   1      21.400 -19.174  -0.699  0.00  0.00    -0.353 OA
ATOM     26  C   UNL d   1      20.782 -19.358   0.577  0.00  0.00     0.210 C 
ENDBRANCH  21  25
ENDBRANCH   1  18
TORSDOF 5
ENDMDL
MODEL 5
REMARK VINA RESULT:    -6.747      5.994      8.255
REMARK INTER + INTRA:          -9.663
REMARK INTER:                  -8.238
REMARK INTRA:                  -1.424
REMARK CONF_INDEPENDENT:        1.492
REMARK UNBOUND:                -1.424
REMARK  5 active torsions:
REMARK  status: ('A' for Active; 'I' for Inactive)
REMARK    1  A    between atoms: O_2  and  C_3 
REMARK    2  A    between atoms: C_6  and  N_7 
REMARK       I    between atoms: N_7  and  C_8 
REMARK    3  A    between atoms: C_10  and  C_8 
REMARK    4  A    between atoms: C_10  and  N_12 
REMARK       I    between atoms: N_12  and  C_13 
REMARK    5  A    between atoms: C_13  and  C_15 
ROOT
ATOM      1  N   UNL d   1      26.541 -12.424  -3.697  0.00  0.00    -0.325 N 
ATOM      2  C   UNL d   1      25.777 -13.591  -3.600  0.00  0.00     0.244 C 
ATOM      3  O   UNL d   1      24.704 -13.803  -4.171  0.00  0.00    -0.271 OA
ATOM      4  H   UNL d   1      27.407 -12.368  -3.171  0.00  0.00     0.169 HD
ENDROOT
BRANCH   2   5
ATOM      5  C   UNL d   1      26.363 -14.723  -2.739  0.00  0.00     0.173 C 
ATOM      6  C   UNL d   1      27.374 -15.465  -3.623  0.00  0.00     0.042 C 
BRANCH   5   7
ATOM      7  N   UNL d   1      25.278 -15.632  -2.331  0.00  0.00    -0.344 N 
ATOM      8  C   UNL d   1      25.382 -16.399  -1.186  0.00  0.00     0.252 C 
ATOM      9  O   UNL d   1      26.381 -16.417  -0.471  0.00  0.00    -0.268 OA
ATOM     10  H   UNL d   1      24.369 -15.522  -2.767  0.00  0.00     0.163 HD
BRANCH   8  11
ATOM     11  C   UNL d   1      24.185 -17.213  -0.831  0.00  0.00     0.032 A 
ATOM     12  C   UNL d   1      24.354 -18.551  -0.457  0.00  0.00     0.018 A 
ATOM     13  C   UNL d   1      23.242 -19.341  -0.147  0.00  0.00     0.025 A 
ATOM     14  C   UNL d   1      21.961 -18.793  -0.204  0.00  0.00     0.034 A 
ATOM     15 CL   UNL d   1      20.598 -19.790   0.126  0.00  0.00    -0.084 Cl
ATOM     16  C   UNL d   1      21.784 -17.448  -0.530  0.00  0.00     0.025 A 
ATOM     17  C   UNL d   1      22.900 -16.651  -0.835  0.00  0.00     0.018 A 
ENDBRANCH   8  11
ENDBRANCH   5   7
ENDBRANCH   2   5
BRANCH   1  18
ATOM     18  C   UNL d   1      26.125 -11.248  -4.383  0.00  0.00     0.037 A 
ATOM     19  C   UNL d   1      25.585 -10.153  -3.690  0.00  0.00     0.032 A 
ATOM     20  C   UNL d   1      25.169  -8.998  -4.394  0.00  0.00     0.042 A 
ATOM     21  C   UNL d   1      25.260  -8.937  -5.790  0.00  0.00     0.106 A 
ATOM     22  C   UNL d   1      25.815 -10.017  -6.457  0.00  0.00     0.151 A 
ATOM     23  C   UNL d   1      26.232 -11.143  -5.767  0.00  0.00     0.074 A 
ATOM     24  F   UNL d   1      26.007 -10.016  -7.782  0.00  0.00    -0.203 F 
BRANCH  21  25
ATOM     25  O   UNL d   1      24.855  -7.780  -6.399  0.00  0.00    -0.353 OA
ATOM     26  C   UNL d   1      23.856  -7.051  -5.682  0.00  0.00     0.210 C 
ENDBRANCH  21  25
ENDBRANCH   1  18
TORSDOF 5
ENDMDL
MODEL 6
REMARK VINA RESULT:    -6.744      6.605      8.529
REMARK INTER + INTRA:          -9.879
REMARK INTER:                  -8.235
REMARK INTRA:                  -1.643
REMARK CONF_INDEPENDENT:        1.492
REMARK UNBOUND:                -1.643
REMARK  5 active torsions:
REMARK  status: ('A' for Active; 'I' for Inactive)
REMARK    1  A    between atoms: O_2  and  C_3 
REMARK    2  A    between atoms: C_6  and  N_7 
REMARK       I    between atoms: N_7  and  C_8 
REMARK    3  A    between atoms: C_10  and  C_8 
REMARK    4  A    between atoms: C_10  and  N_12 
REMARK       I    between atoms: N_12  and  C_13 
REMARK    5  A    between atoms: C_13  and  C_15 
ROOT
ATOM      1  N   UNL d   1      26.244 -15.355  -2.277  0.00  0.00    -0.325 N 
ATOM      2  C   UNL d   1      25.938 -14.699  -3.474  0.00  0.00     0.244 C 
ATOM      3  O   UNL d   1      24.837 -14.685  -4.030  0.00  0.00    -0.271 OA
ATOM      4  H   UNL d   1      27.192 -15.296  -1.923  0.00  0.00     0.169 HD
ENDROOT
BRANCH   2   5
ATOM      5  C   UNL d   1      27.074 -13.885  -4.118  0.00  0.00     0.173 C 
ATOM      6  C   UNL d   1      26.409 -12.889  -5.076  0.00  0.00     0.042 C 
BRANCH   5   7
ATOM      7  N   UNL d   1      27.958 -14.798  -4.864  0.00  0.00    -0.344 N 
ATOM      8  C   UNL d   1      28.881 -15.592  -4.208  0.00  0.00     0.252 C 
ATOM      9  O   UNL d   1      29.061 -15.558  -2.993  0.00  0.00    -0.268 OA
ATOM     10  H   UNL d   1      27.731 -15.007  -5.830  0.00  0.00     0.163 HD
BRANCH   8  11
ATOM     11  C   UNL d   1      29.657 -16.536  -5.061  0.00  0.00     0.032 A 
ATOM     12  C   UNL d   1      30.045 -16.138  -6.345  0.00  0.00     0.018 A 
ATOM     13  C   UNL d   1      30.750 -17.018  -7.172  0.00  0.00     0.025 A 
ATOM     14  C   UNL d   1      31.074 -18.295  -6.714  0.00  0.00     0.034 A 
ATOM     15 CL   UNL d   1      31.893 -19.387  -7.761  0.00  0.00    -0.084 Cl
ATOM     16  C   UNL d   1      30.733 -18.686  -5.419  0.00  0.00     0.025 A 
ATOM     17  C   UNL d   1      30.032 -17.801  -4.584  0.00  0.00     0.018 A 
ENDBRANCH   8  11
ENDBRANCH   5   7
ENDBRANCH   2   5
BRANCH   1  18
ATOM     18  C   UNL d   1      25.346 -16.213  -1.582  0.00  0.00     0.037 A 
ATOM     19  C   UNL d   1      25.804 -17.360  -0.914  0.00  0.00     0.032 A 
ATOM     20  C   UNL d   1      24.892 -18.203  -0.237  0.00  0.00     0.042 A 
ATOM     21  C   UNL d   1      23.519 -17.929  -0.245  0.00  0.00     0.106 A 
ATOM     22  C   UNL d   1      23.085 -16.782  -0.891  0.00  0.00     0.151 A 
ATOM     23  C   UNL d   1      23.979 -15.950  -1.545  0.00  0.00     0.074 A 
ATOM     24  F   UNL d   1      21.800 -16.403  -0.888  0.00  0.00    -0.203 F 
BRANCH  21  25
ATOM     25  O   UNL d   1      22.700 -18.780   0.447  0.00  0.00    -0.353 OA
ATOM     26  C   UNL d   1      21.454 -19.057  -0.196  0.00  0.00     0.210 C 
ENDBRANCH  21  25
ENDBRANCH   1  18
TORSDOF 5
ENDMDL
MODEL 7
REMARK VINA RESULT:    -6.692      6.719      9.199
REMARK INTER + INTRA:          -9.596
REMARK INTER:                  -8.183
REMARK INTRA:                  -1.413
REMARK CONF_INDEPENDENT:        1.492
REMARK UNBOUND:                -1.413
REMARK  5 active torsions:
REMARK  status: ('A' for Active; 'I' for Inactive)
REMARK    1  A    between atoms: O_2  and  C_3 
REMARK    2  A    between atoms: C_6  and  N_7 
REMARK       I    between atoms: N_7  and  C_8 
REMARK    3  A    between atoms: C_10  and  C_8 
REMARK    4  A    between atoms: C_10  and  N_12 
REMARK       I    between atoms: N_12  and  C_13 
REMARK    5  A    between atoms: C_13  and  C_15 
ROOT
ATOM      1  N   UNL d   1      23.630 -18.220  -1.378  0.00  0.00    -0.325 N 
ATOM      2  C   UNL d   1      24.144 -16.919  -1.392  0.00  0.00     0.244 C 
ATOM      3  O   UNL d   1      23.676 -15.949  -0.791  0.00  0.00    -0.271 OA
ATOM      4  H   UNL d   1      24.104 -18.933  -1.921  0.00  0.00     0.169 HD
ENDROOT
BRANCH   2   5
ATOM      5  C   UNL d   1      25.438 -16.704  -2.197  0.00  0.00     0.173 C 
ATOM      6  C   UNL d   1      26.597 -17.093  -1.270  0.00  0.00     0.042 C 
BRANCH   5   7
ATOM      7  N   UNL d   1      25.541 -15.285  -2.575  0.00  0.00    -0.344 N 
ATOM      8  C   UNL d   1      26.057 -14.908  -3.802  0.00  0.00     0.252 C 
ATOM      9  O   UNL d   1      26.503 -15.707  -4.622  0.00  0.00    -0.268 OA
ATOM     10  H   UNL d   1      25.026 -14.601  -2.030  0.00  0.00     0.163 HD
BRANCH   8  11
ATOM     11  C   UNL d   1      26.030 -13.449  -4.105  0.00  0.00     0.032 A 
ATOM     12  C   UNL d   1      25.589 -12.555  -3.124  0.00  0.00     0.018 A 
ATOM     13  C   UNL d   1      25.530 -11.184  -3.397  0.00  0.00     0.025 A 
ATOM     14  C   UNL d   1      25.917 -10.706  -4.648  0.00  0.00     0.034 A 
ATOM     15 CL   UNL d   1      25.787  -9.024  -4.990  0.00  0.00    -0.084 Cl
ATOM     16  C   UNL d   1      26.403 -11.584  -5.618  0.00  0.00     0.025 A 
ATOM     17  C   UNL d   1      26.470 -12.959  -5.343  0.00  0.00     0.018 A 
ENDBRANCH   8  11
ENDBRANCH   5   7
ENDBRANCH   2   5
BRANCH   1  18
ATOM     18  C   UNL d   1      22.405 -18.590  -0.754  0.00  0.00     0.037 A 
ATOM     19  C   UNL d   1      22.263 -18.570   0.643  0.00  0.00     0.032 A 
ATOM     20  C   UNL d   1      21.039 -18.950   1.241  0.00  0.00     0.042 A 
ATOM     21  C   UNL d   1      19.961 -19.381   0.458  0.00  0.00     0.106 A 
ATOM     22  C   UNL d   1      20.109 -19.374  -0.919  0.00  0.00     0.151 A 
ATOM     23  C   UNL d   1      21.304 -18.991  -1.506  0.00  0.00     0.074 A 
ATOM     24  F   UNL d   1      19.108 -19.700  -1.747  0.00  0.00    -0.203 F 
BRANCH  21  25
ATOM     25  O   UNL d   1      18.803 -19.715   1.107  0.00  0.00    -0.353 OA
ATOM     26  C   UNL d   1      18.392 -21.072   0.924  0.00  0.00     0.210 C 
ENDBRANCH  21  25
ENDBRANCH   1  18
TORSDOF 5
ENDMDL
MODEL 8
REMARK VINA RESULT:    -6.636      6.430      8.575
REMARK INTER + INTRA:          -9.747
REMARK INTER:                  -8.127
REMARK INTRA:                  -1.620
REMARK CONF_INDEPENDENT:        1.492
REMARK UNBOUND:                -1.620
REMARK  5 active torsions:
REMARK  status: ('A' for Active; 'I' for Inactive)
REMARK    1  A    between atoms: O_2  and  C_3 
REMARK    2  A    between atoms: C_6  and  N_7 
REMARK       I    between atoms: N_7  and  C_8 
REMARK    3  A    between atoms: C_10  and  C_8 
REMARK    4  A    between atoms: C_10  and  N_12 
REMARK       I    between atoms: N_12  and  C_13 
REMARK    5  A    between atoms: C_13  and  C_15 
ROOT
ATOM      1  N   UNL d   1      26.575 -15.242  -2.457  0.00  0.00    -0.325 N 
ATOM      2  C   UNL d   1      26.245 -14.701  -3.704  0.00  0.00     0.244 C 
ATOM      3  O   UNL d   1      25.151 -14.794  -4.266  0.00  0.00    -0.271 OA
ATOM      4  H   UNL d   1      27.515 -15.102  -2.103  0.00  0.00     0.169 HD
ENDROOT
BRANCH   2   5
ATOM      5  C   UNL d   1      27.340 -13.878  -4.404  0.00  0.00     0.173 C 
ATOM      6  C   UNL d   1      26.620 -12.913  -5.354  0.00  0.00     0.042 C 
BRANCH   5   7
ATOM      7  N   UNL d   1      28.213 -14.787  -5.166  0.00  0.00    -0.344 N 
ATOM      8  C   UNL d   1      29.020 -15.709  -4.523  0.00  0.00     0.252 C 
ATOM      9  O   UNL d   1      29.102 -15.799  -3.301  0.00  0.00    -0.268 OA
ATOM     10  H   UNL d   1      28.052 -14.889  -6.162  0.00  0.00     0.163 HD
BRANCH   8  11
ATOM     11  C   UNL d   1      29.793 -16.631  -5.403  0.00  0.00     0.032 A 
ATOM     12  C   UNL d   1      30.317 -16.148  -6.607  0.00  0.00     0.018 A 
ATOM     13  C   UNL d   1      31.022 -17.003  -7.460  0.00  0.00     0.025 A 
ATOM     14  C   UNL d   1      31.209 -18.339  -7.107  0.00  0.00     0.034 A 
ATOM     15 CL   UNL d   1      32.030 -19.394  -8.191  0.00  0.00    -0.084 Cl
ATOM     16  C   UNL d   1      30.732 -18.819  -5.887  0.00  0.00     0.025 A 
ATOM     17  C   UNL d   1      30.030 -17.961  -5.026  0.00  0.00     0.018 A 
ENDBRANCH   8  11
ENDBRANCH   5   7
ENDBRANCH   2   5
BRANCH   1  18
ATOM     18  C   UNL d   1      25.720 -16.092  -1.701  0.00  0.00     0.037 A 
ATOM     19  C   UNL d   1      24.323 -15.957  -1.755  0.00  0.00     0.032 A 
ATOM     20  C   UNL d   1      23.494 -16.807  -0.988  0.00  0.00     0.042 A 
ATOM     21  C   UNL d   1      24.045 -17.776  -0.141  0.00  0.00     0.106 A 
ATOM     22  C   UNL d   1      25.424 -17.912  -0.114  0.00  0.00     0.151 A 
ATOM     23  C   UNL d   1      26.237 -17.086  -0.874  0.00  0.00     0.074 A 
ATOM     24  F   UNL d   1      26.035 -18.858   0.610  0.00  0.00    -0.203 F 
BRANCH  21  25
ATOM     25  O   UNL d   1      23.179 -18.574   0.556  0.00  0.00    -0.353 OA
ATOM     26  C   UNL d   1      21.979 -18.901  -0.149  0.00  0.00     0.210 C 
ENDBRANCH  21  25
ENDBRANCH   1  18
TORSDOF 5
ENDMDL
MODEL 9
REMARK VINA RESULT:    -6.589      6.360      8.530
REMARK INTER + INTRA:          -9.647
REMARK INTER:                  -8.081
REMARK INTRA:                  -1.566
REMARK CONF_INDEPENDENT:        1.492
REMARK UNBOUND:                -1.566
REMARK  5 active torsions:
REMARK  status: ('A' for Active; 'I' for Inactive)
REMARK    1  A    between atoms: O_2  and  C_3 
REMARK    2  A    between atoms: C_6  and  N_7 
REMARK       I    between atoms: N_7  and  C_8 
REMARK    3  A    between atoms: C_10  and  C_8 
REMARK    4  A    between atoms: C_10  and  N_12 
REMARK       I    between atoms: N_12  and  C_13 
REMARK    5  A    between atoms: C_13  and  C_15 
ROOT
ATOM      1  N   UNL d   1      28.158 -15.582  -3.861  0.00  0.00    -0.325 N 
ATOM      2  C   UNL d   1      27.032 -15.037  -4.487  0.00  0.00     0.244 C 
ATOM      3  O   UNL d   1      26.710 -15.200  -5.667  0.00  0.00    -0.271 OA
ATOM      4  H   UNL d   1      28.318 -15.369  -2.883  0.00  0.00     0.169 HD
ENDROOT
BRANCH   2   5
ATOM      5  C   UNL d   1      26.094 -14.202  -3.599  0.00  0.00     0.173 C 
ATOM      6  C   UNL d   1      26.977 -13.538  -2.535  0.00  0.00     0.042 C 
BRANCH   5   7
ATOM      7  N   UNL d   1      25.110 -15.094  -2.962  0.00  0.00    -0.344 N 
ATOM      8  C   UNL d   1      25.505 -16.062  -2.057  0.00  0.00     0.252 C 
ATOM      9  O   UNL d   1      26.679 -16.276  -1.764  0.00  0.00    -0.268 OA
ATOM     10  H   UNL d   1      24.128 -14.846  -3.017  0.00  0.00     0.163 HD
BRANCH   8  11
ATOM     11  C   UNL d   1      24.412 -16.844  -1.414  0.00  0.00     0.032 A 
ATOM     12  C   UNL d   1      24.632 -18.187  -1.088  0.00  0.00     0.018 A 
ATOM     13  C   UNL d   1      23.611 -18.947  -0.510  0.00  0.00     0.025 A 
ATOM     14  C   UNL d   1      22.371 -18.364  -0.250  0.00  0.00     0.034 A 
ATOM     15 CL   UNL d   1      21.105 -19.325   0.411  0.00  0.00    -0.084 Cl
ATOM     16  C   UNL d   1      22.155 -17.014  -0.528  0.00  0.00     0.025 A 
ATOM     17  C   UNL d   1      23.181 -16.247  -1.102  0.00  0.00     0.018 A 
ENDBRANCH   8  11
ENDBRANCH   5   7
ENDBRANCH   2   5
BRANCH   1  18
ATOM     18  C   UNL d   1      29.174 -16.315  -4.537  0.00  0.00     0.037 A 
ATOM     19  C   UNL d   1      29.785 -17.431  -3.944  0.00  0.00     0.032 A 
ATOM     20  C   UNL d   1      30.799 -18.139  -4.632  0.00  0.00     0.042 A 
ATOM     21  C   UNL d   1      31.232 -17.725  -5.897  0.00  0.00     0.106 A 
ATOM     22  C   UNL d   1      30.605 -16.635  -6.478  0.00  0.00     0.151 A 
ATOM     23  C   UNL d   1      29.604 -15.948  -5.810  0.00  0.00     0.074 A 
ATOM     24  F   UNL d   1      30.904 -16.213  -7.714  0.00  0.00    -0.203 F 
BRANCH  21  25
ATOM     25  O   UNL d   1      32.204 -18.470  -6.508  0.00  0.00    -0.353 OA
ATOM     26  C   UNL d   1      31.749 -19.232  -7.628  0.00  0.00     0.210 C 
ENDBRANCH  21  25
ENDBRANCH   1  18
TORSDOF 5
ENDMDL
