MODEL 1
REMARK VINA RESULT:   -10.644      0.000      0.000
REMARK INTER + INTRA:         -15.065
REMARK INTER:                 -12.732
REMARK INTRA:                  -2.333
REMARK CONF_INDEPENDENT:        2.088
REMARK UNBOUND:                -2.333
REMARK  7 active torsions:
REMARK  status: ('A' for Active; 'I' for Inactive)
REMARK    1  A    between atoms: O_1  and  C_2 
REMARK    2  A    between atoms: C_2  and  C_3 
REMARK    3  A    between atoms: C_3  and  O_4 
REMARK    4  A    between atoms: N_8  and  C_9 
REMARK    5  A    between atoms: N_13  and  C_14 
REMARK    6  A    between atoms: C_17  and  O_18 
REMARK    7  A    between atoms: O_18  and  C_19 
ROOT
ATOM      1  C   UNL d   1      27.038 -16.101  -1.099  0.00  0.00     0.737 A 
ATOM      2  N   UNL d   1      28.304 -16.396  -0.838  0.00  0.00     0.030 NA
ATOM      3  N   UNL d   1      28.300 -17.326   0.173  0.00  0.00     0.033 NA
ATOM      4  N   UNL d   1      27.065 -17.630   0.545  0.00  0.00     0.016 NA
ATOM      5  N   UNL d   1      26.260 -16.926  -0.281  0.00  0.00    -0.070 N 
ENDROOT
BRANCH   5   6
ATOM      6  C   UNL d   1      24.895 -17.238  -0.387  0.00  0.00     0.072 A 
ATOM      7  C   UNL d   1      23.938 -16.220  -0.361  0.00  0.00     0.034 A 
ATOM      8  C   UNL d   1      22.589 -16.556  -0.514  0.00  0.00     0.039 A 
ATOM      9  C   UNL d   1      22.207 -17.892  -0.707  0.00  0.00     0.076 A 
ATOM     10  C   UNL d   1      23.180 -18.896  -0.688  0.00  0.00     0.039 A 
ATOM     11  C   UNL d   1      24.518 -18.574  -0.514  0.00  0.00     0.034 A 
BRANCH   9  12
ATOM     12  O   UNL d   1      20.867 -18.104  -0.967  0.00  0.00    -0.311 OA
BRANCH  12  13
ATOM     13  C   UNL d   1      20.191 -19.070  -0.255  0.00  0.00     0.076 A 
ATOM     14  C   UNL d   1      19.113 -19.710  -0.871  0.00  0.00     0.037 A 
ATOM     15  C   UNL d   1      18.344 -20.624  -0.146  0.00  0.00     0.003 A 
ATOM     16  C   UNL d   1      18.688 -20.940   1.170  0.00  0.00     0.000 A 
ATOM     17  C   UNL d   1      19.773 -20.310   1.778  0.00  0.00     0.003 A 
ATOM     18  C   UNL d   1      20.498 -19.346   1.080  0.00  0.00     0.037 A 
ENDBRANCH  12  13
ENDBRANCH   9  12
ENDBRANCH   5   6
BRANCH   1  19
ATOM     19  N   UNL d   1      26.537 -15.201  -2.005  0.00  0.00    -0.213 N 
ATOM     20  C   UNL d   1      25.496 -15.639  -2.926  0.00  0.00     0.141 C 
ATOM     21  C   UNL d   1      24.439 -14.545  -3.147  0.00  0.00     0.023 C 
ATOM     22  C   UNL d   1      24.776 -13.651  -4.344  0.00  0.00     0.042 C 
ATOM     23  C   UNL d   1      25.897 -12.633  -4.074  0.00  0.00     0.080 C 
ATOM     24  C   UNL d   1      27.174 -13.319  -3.534  0.00  0.00     0.060 C 
ATOM     25  C   UNL d   1      27.058 -13.828  -2.090  0.00  0.00     0.144 C 
BRANCH  23  26
ATOM     26  C   UNL d   1      26.215 -11.862  -5.380  0.00  0.00     0.201 C 
BRANCH  26  27
ATOM     27  O   UNL d   1      25.649 -10.558  -5.362  0.00  0.00    -0.398 OA
ATOM     28  H   UNL d   1      24.895 -10.576  -4.749  0.00  0.00     0.209 HD
ENDBRANCH  26  27
ENDBRANCH  23  26
BRANCH  23  29
ATOM     29  O   UNL d   1      25.432 -11.674  -3.109  0.00  0.00    -0.388 OA
ATOM     30  H   UNL d   1      24.766 -11.104  -3.533  0.00  0.00     0.210 HD
ENDBRANCH  23  29
ENDBRANCH   1  19
TORSDOF 7
ENDMDL
MODEL 2
REMARK VINA RESULT:    -8.179      3.193      5.095
REMARK INTER + INTRA:         -12.730
REMARK INTER:                 -10.268
REMARK INTRA:                  -2.463
REMARK CONF_INDEPENDENT:        2.088
REMARK UNBOUND:                -2.463
REMARK  7 active torsions:
REMARK  status: ('A' for Active; 'I' for Inactive)
REMARK    1  A    between atoms: O_1  and  C_2 
REMARK    2  A    between atoms: C_2  and  C_3 
REMARK    3  A    between atoms: C_3  and  O_4 
REMARK    4  A    between atoms: N_8  and  C_9 
REMARK    5  A    between atoms: N_13  and  C_14 
REMARK    6  A    between atoms: C_17  and  O_18 
REMARK    7  A    between atoms: O_18  and  C_19 
ROOT
ATOM      1  C   UNL d   1      27.673 -13.070  -6.063  0.00  0.00     0.737 A 
ATOM      2  N   UNL d   1      28.247 -13.294  -7.236  0.00  0.00     0.030 NA
ATOM      3  N   UNL d   1      28.647 -14.609  -7.243  0.00  0.00     0.033 NA
ATOM      4  N   UNL d   1      28.329 -15.216  -6.110  0.00  0.00     0.016 NA
ATOM      5  N   UNL d   1      27.662 -14.293  -5.384  0.00  0.00    -0.070 N 
ENDROOT
BRANCH   5   6
ATOM      6  C   UNL d   1      26.905 -14.673  -4.264  0.00  0.00     0.072 A 
ATOM      7  C   UNL d   1      27.507 -15.368  -3.213  0.00  0.00     0.034 A 
ATOM      8  C   UNL d   1      26.740 -15.694  -2.090  0.00  0.00     0.039 A 
ATOM      9  C   UNL d   1      25.392 -15.312  -2.015  0.00  0.00     0.076 A 
ATOM     10  C   UNL d   1      24.803 -14.653  -3.098  0.00  0.00     0.039 A 
ATOM     11  C   UNL d   1      25.550 -14.346  -4.226  0.00  0.00     0.034 A 
BRANCH   9  12
ATOM     12  O   UNL d   1      24.756 -15.576  -0.818  0.00  0.00    -0.311 OA
BRANCH  12  13
ATOM     13  C   UNL d   1      23.948 -16.686  -0.717  0.00  0.00     0.076 A 
ATOM     14  C   UNL d   1      24.555 -17.929  -0.529  0.00  0.00     0.037 A 
ATOM     15  C   UNL d   1      23.773 -19.087  -0.520  0.00  0.00     0.003 A 
ATOM     16  C   UNL d   1      22.385 -18.996  -0.641  0.00  0.00     0.000 A 
ATOM     17  C   UNL d   1      21.780 -17.753  -0.816  0.00  0.00     0.003 A 
ATOM     18  C   UNL d   1      22.564 -16.603  -0.895  0.00  0.00     0.037 A 
ENDBRANCH  12  13
ENDBRANCH   9  12
ENDBRANCH   5   6
BRANCH   1  19
ATOM     19  N   UNL d   1      27.146 -11.901  -5.576  0.00  0.00    -0.213 N 
ATOM     20  C   UNL d   1      26.648 -10.909  -6.522  0.00  0.00     0.141 C 
ATOM     21  C   UNL d   1      25.365 -10.235  -6.011  0.00  0.00     0.023 C 
ATOM     22  C   UNL d   1      25.662  -8.961  -5.213  0.00  0.00     0.042 C 
ATOM     23  C   UNL d   1      26.195  -9.217  -3.793  0.00  0.00     0.080 C 
ATOM     24  C   UNL d   1      27.430 -10.149  -3.805  0.00  0.00     0.060 C 
ATOM     25  C   UNL d   1      27.115 -11.615  -4.134  0.00  0.00     0.144 C 
BRANCH  23  26
ATOM     26  C   UNL d   1      26.552  -7.864  -3.127  0.00  0.00     0.201 C 
BRANCH  26  27
ATOM     27  O   UNL d   1      25.651  -7.552  -2.074  0.00  0.00    -0.398 OA
ATOM     28  H   UNL d   1      24.755  -7.773  -2.381  0.00  0.00     0.209 HD
ENDBRANCH  26  27
ENDBRANCH  23  26
BRANCH  23  29
ATOM     29  O   UNL d   1      25.155  -9.823  -3.008  0.00  0.00    -0.388 OA
ATOM     30  H   UNL d   1      24.447  -9.168  -2.871  0.00  0.00     0.210 HD
ENDBRANCH  23  29
ENDBRANCH   1  19
TORSDOF 7
ENDMDL
MODEL 3
REMARK VINA RESULT:    -8.092      3.007      4.912
REMARK INTER + INTRA:         -12.678
REMARK INTER:                 -10.180
REMARK INTRA:                  -2.498
REMARK CONF_INDEPENDENT:        2.088
REMARK UNBOUND:                -2.498
REMARK  7 active torsions:
REMARK  status: ('A' for Active; 'I' for Inactive)
REMARK    1  A    between atoms: O_1  and  C_2 
REMARK    2  A    between atoms: C_2  and  C_3 
REMARK    3  A    between atoms: C_3  and  O_4 
REMARK    4  A    between atoms: N_8  and  C_9 
REMARK    5  A    between atoms: N_13  and  C_14 
REMARK    6  A    between atoms: C_17  and  O_18 
REMARK    7  A    between atoms: O_18  and  C_19 
ROOT
ATOM      1  C   UNL d   1      27.633 -13.231  -5.512  0.00  0.00     0.737 A 
ATOM      2  N   UNL d   1      27.975 -13.469  -6.771  0.00  0.00     0.030 NA
ATOM      3  N   UNL d   1      28.152 -14.827  -6.889  0.00  0.00     0.033 NA
ATOM      4  N   UNL d   1      27.920 -15.445  -5.741  0.00  0.00     0.016 NA
ATOM      5  N   UNL d   1      27.530 -14.476  -4.885  0.00  0.00    -0.070 N 
ENDROOT
BRANCH   5   6
ATOM      6  C   UNL d   1      26.904 -14.803  -3.671  0.00  0.00     0.072 A 
ATOM      7  C   UNL d   1      25.510 -14.847  -3.590  0.00  0.00     0.034 A 
ATOM      8  C   UNL d   1      24.914 -15.218  -2.380  0.00  0.00     0.039 A 
ATOM      9  C   UNL d   1      25.706 -15.559  -1.274  0.00  0.00     0.076 A 
ATOM     10  C   UNL d   1      27.098 -15.468  -1.369  0.00  0.00     0.039 A 
ATOM     11  C   UNL d   1      27.697 -15.077  -2.558  0.00  0.00     0.034 A 
BRANCH   9  12
ATOM     12  O   UNL d   1      25.026 -16.027  -0.166  0.00  0.00    -0.311 OA
BRANCH  12  13
ATOM     13  C   UNL d   1      24.051 -16.985  -0.333  0.00  0.00     0.076 A 
ATOM     14  C   UNL d   1      24.425 -18.328  -0.257  0.00  0.00     0.037 A 
ATOM     15  C   UNL d   1      23.482 -19.325  -0.517  0.00  0.00     0.003 A 
ATOM     16  C   UNL d   1      22.158 -18.981  -0.794  0.00  0.00     0.000 A 
ATOM     17  C   UNL d   1      21.783 -17.640  -0.856  0.00  0.00     0.003 A 
ATOM     18  C   UNL d   1      22.738 -16.643  -0.666  0.00  0.00     0.037 A 
ENDBRANCH  12  13
ENDBRANCH   9  12
ENDBRANCH   5   6
BRANCH   1  19
ATOM     19  N   UNL d   1      27.383 -12.026  -4.906  0.00  0.00    -0.213 N 
ATOM     20  C   UNL d   1      28.297 -10.916  -5.148  0.00  0.00     0.141 C 
ATOM     21  C   UNL d   1      27.545  -9.583  -5.283  0.00  0.00     0.023 C 
ATOM     22  C   UNL d   1      27.413  -8.857  -3.940  0.00  0.00     0.042 C 
ATOM     23  C   UNL d   1      26.352  -9.458  -3.002  0.00  0.00     0.080 C 
ATOM     24  C   UNL d   1      26.578 -10.971  -2.779  0.00  0.00     0.060 C 
ATOM     25  C   UNL d   1      26.243 -11.849  -3.994  0.00  0.00     0.144 C 
BRANCH  23  26
ATOM     26  C   UNL d   1      26.383  -8.707  -1.646  0.00  0.00     0.201 C 
BRANCH  26  27
ATOM     27  O   UNL d   1      25.154  -8.037  -1.398  0.00  0.00    -0.398 OA
ATOM     28  H   UNL d   1      24.816  -7.721  -2.254  0.00  0.00     0.209 HD
ENDBRANCH  26  27
ENDBRANCH  23  26
BRANCH  23  29
ATOM     29  O   UNL d   1      25.052  -9.254  -3.578  0.00  0.00    -0.388 OA
ATOM     30  H   UNL d   1      24.403  -9.159  -2.858  0.00  0.00     0.210 HD
ENDBRANCH  23  29
ENDBRANCH   1  19
TORSDOF 7
ENDMDL
MODEL 4
REMARK VINA RESULT:    -7.963      4.873      8.633
REMARK INTER + INTRA:         -12.574
REMARK INTER:                 -10.051
REMARK INTRA:                  -2.523
REMARK CONF_INDEPENDENT:        2.088
REMARK UNBOUND:                -2.523
REMARK  7 active torsions:
REMARK  status: ('A' for Active; 'I' for Inactive)
REMARK    1  A    between atoms: O_1  and  C_2 
REMARK    2  A    between atoms: C_2  and  C_3 
REMARK    3  A    between atoms: C_3  and  O_4 
REMARK    4  A    between atoms: N_8  and  C_9 
REMARK    5  A    between atoms: N_13  and  C_14 
REMARK    6  A    between atoms: C_17  and  O_18 
REMARK    7  A    between atoms: O_18  and  C_19 
ROOT
ATOM      1  C   UNL d   1      25.487 -14.643  -2.752  0.00  0.00     0.737 A 
ATOM      2  N   UNL d   1      24.192 -14.418  -2.922  0.00  0.00     0.030 NA
ATOM      3  N   UNL d   1      24.014 -14.075  -4.241  0.00  0.00     0.033 NA
ATOM      4  N   UNL d   1      25.162 -14.089  -4.902  0.00  0.00     0.016 NA
ATOM      5  N   UNL d   1      26.084 -14.505  -4.008  0.00  0.00    -0.070 N 
ENDROOT
BRANCH   5   6
ATOM      6  C   UNL d   1      27.350 -14.940  -4.435  0.00  0.00     0.072 A 
ATOM      7  C   UNL d   1      28.212 -15.578  -3.539  0.00  0.00     0.034 A 
ATOM      8  C   UNL d   1      29.448 -16.040  -4.003  0.00  0.00     0.039 A 
ATOM      9  C   UNL d   1      29.806 -15.880  -5.350  0.00  0.00     0.076 A 
ATOM     10  C   UNL d   1      28.943 -15.202  -6.216  0.00  0.00     0.039 A 
ATOM     11  C   UNL d   1      27.725 -14.719  -5.759  0.00  0.00     0.034 A 
BRANCH   9  12
ATOM     12  O   UNL d   1      30.992 -16.475  -5.734  0.00  0.00    -0.311 OA
BRANCH  12  13
ATOM     13  C   UNL d   1      30.959 -17.719  -6.322  0.00  0.00     0.076 A 
ATOM     14  C   UNL d   1      31.294 -17.819  -7.674  0.00  0.00     0.037 A 
ATOM     15  C   UNL d   1      31.178 -19.049  -8.327  0.00  0.00     0.003 A 
ATOM     16  C   UNL d   1      30.784 -20.184  -7.616  0.00  0.00     0.000 A 
ATOM     17  C   UNL d   1      30.462 -20.085  -6.264  0.00  0.00     0.003 A 
ATOM     18  C   UNL d   1      30.511 -18.846  -5.628  0.00  0.00     0.037 A 
ENDBRANCH  12  13
ENDBRANCH   9  12
ENDBRANCH   5   6
BRANCH   1  19
ATOM     19  N   UNL d   1      26.152 -14.982  -1.601  0.00  0.00    -0.213 N 
ATOM     20  C   UNL d   1      25.864 -16.268  -0.976  0.00  0.00     0.141 C 
ATOM     21  C   UNL d   1      27.138 -16.923  -0.417  0.00  0.00     0.023 C 
ATOM     22  C   UNL d   1      27.383 -16.547   1.048  0.00  0.00     0.042 C 
ATOM     23  C   UNL d   1      27.925 -15.121   1.250  0.00  0.00     0.080 C 
ATOM     24  C   UNL d   1      27.028 -14.066   0.563  0.00  0.00     0.060 C 
ATOM     25  C   UNL d   1      27.111 -14.062  -0.970  0.00  0.00     0.144 C 
BRANCH  23  26
ATOM     26  C   UNL d   1      28.036 -14.824   2.767  0.00  0.00     0.201 C 
BRANCH  26  27
ATOM     27  O   UNL d   1      29.377 -14.543   3.142  0.00  0.00    -0.398 OA
ATOM     28  H   UNL d   1      29.941 -15.228   2.745  0.00  0.00     0.209 HD
ENDBRANCH  26  27
ENDBRANCH  23  26
BRANCH  23  29
ATOM     29  O   UNL d   1      29.250 -15.045   0.697  0.00  0.00    -0.388 OA
ATOM     30  H   UNL d   1      29.857 -15.543   1.274  0.00  0.00     0.210 HD
ENDBRANCH  23  29
ENDBRANCH   1  19
TORSDOF 7
ENDMDL
