MODEL 1
REMARK VINA RESULT:   -12.148      0.000      0.000
REMARK INTER + INTRA:         -15.571
REMARK INTER:                 -13.938
REMARK INTRA:                  -1.633
REMARK CONF_INDEPENDENT:        1.790
REMARK UNBOUND:                -1.633
REMARK  6 active torsions:
REMARK  status: ('A' for Active; 'I' for Inactive)
REMARK       I    between atoms: C_2  and  N_3 
REMARK    1  A    between atoms: C_2  and  C_12 
REMARK    2  A    between atoms: N_3  and  C_4 
REMARK    3  A    between atoms: C_4  and  C_5 
REMARK    4  A    between atoms: C_5  and  C_6 
REMARK    5  A    between atoms: C_19  and  C_20 
REMARK    6  A    between atoms: C_21  and  O_22 
ROOT
ATOM      1  C   UNL d   1      24.536 -17.230  -0.515  0.00  0.00     0.053 C 
ATOM      2  C   UNL d   1      24.922 -18.396   0.132  0.00  0.00     0.019 C 
ATOM      3  C   UNL d   1      26.268 -18.574   0.473  0.00  0.00     0.002 C 
ATOM      4  C   UNL d   1      27.127 -17.483   0.511  0.00  0.00     0.010 C 
ATOM      5  C   UNL d   1      26.700 -16.287  -0.035  0.00  0.00    -0.028 C 
ATOM      6  C   UNL d   1      25.538 -16.311  -0.822  0.00  0.00     0.031 C 
ATOM      7  N   UNL d   1      25.779 -15.989  -2.243  0.00  0.00    -0.282 NA
ATOM      8  C   UNL d   1      26.381 -14.641  -2.288  0.00  0.00     0.102 C 
ATOM      9  C   UNL d   1      27.586 -14.431  -1.361  0.00  0.00     0.024 C 
ATOM     10  C   UNL d   1      27.641 -12.906  -1.029  0.00  0.00     0.034 C 
ATOM     11  C   UNL d   1      27.027 -12.760   0.285  0.00  0.00    -0.029 C 
ATOM     12  C   UNL d   1      26.989 -13.949   0.883  0.00  0.00    -0.021 C 
ATOM     13  C   UNL d   1      27.535 -15.060   0.014  0.00  0.00     0.049 C 
ATOM     14  H   UNL d   1      26.411 -16.737  -2.579  0.00  0.00     0.128 HD
ENDROOT
BRANCH   1  15
ATOM     15  C   UNL d   1      23.094 -17.031  -0.898  0.00  0.00     0.253 C 
ATOM     16  O   UNL d   1      22.627 -15.944  -1.060  0.00  0.00    -0.268 OA
ATOM     17  N   UNL d   1      22.380 -18.212  -1.043  0.00  0.00    -0.357 N 
ATOM     18  H   UNL d   1      22.911 -19.050  -0.934  0.00  0.00     0.162 HD
BRANCH  17  19
ATOM     19  C   UNL d   1      20.958 -18.218  -1.269  0.00  0.00     0.127 C 
BRANCH  19  20
ATOM     20  C   UNL d   1      20.277 -19.589  -1.165  0.00  0.00     0.058 C 
BRANCH  20  21
ATOM     21  C   UNL d   1      19.838 -19.931   0.242  0.00  0.00    -0.057 A 
ATOM     22  C   UNL d   1      20.564 -19.502   1.364  0.00  0.00     0.007 A 
ATOM     23  C   UNL d   1      20.265 -19.974   2.635  0.00  0.00     0.001 A 
ATOM     24  C   UNL d   1      19.154 -20.785   2.823  0.00  0.00     0.000 A 
ATOM     25  C   UNL d   1      18.392 -21.188   1.728  0.00  0.00     0.001 A 
ATOM     26  C   UNL d   1      18.738 -20.776   0.439  0.00  0.00     0.007 A 
ENDBRANCH  20  21
ENDBRANCH  19  20
ENDBRANCH  17  19
ENDBRANCH   1  15
BRANCH   8  27
ATOM     27  C   UNL d   1      26.712 -14.147  -3.714  0.00  0.00     0.004 C 
ATOM     28  C   UNL d   1      26.073 -12.973  -4.211  0.00  0.00     0.074 C 
ATOM     29  C   UNL d   1      26.479 -12.396  -5.394  0.00  0.00     0.038 C 
ATOM     30  C   UNL d   1      27.581 -12.913  -6.050  0.00  0.00     0.014 C 
ATOM     31  C   UNL d   1      28.205 -14.107  -5.648  0.00  0.00    -0.029 C 
ATOM     32  C   UNL d   1      29.125 -14.736  -6.507  0.00  0.00    -0.009 C 
ATOM     33  C   UNL d   1      27.899 -14.759  -4.480  0.00  0.00    -0.019 C 
ATOM     34  C   UNL d   1      29.651 -16.006  -6.313  0.00  0.00     0.025 C 
ATOM     35  C   UNL d   1      30.097 -16.069  -5.071  0.00  0.00     0.025 C 
ATOM     36  C   UNL d   1      28.917 -15.899  -4.320  0.00  0.00    -0.008 C 
BRANCH  28  37
ATOM     37  O   UNL d   1      25.115 -12.232  -3.582  0.00  0.00    -0.360 OA
ATOM     38  H   UNL d   1      24.780 -11.581  -4.206  0.00  0.00     0.217 HD
ENDBRANCH  28  37
ENDBRANCH   8  27
TORSDOF 6
ENDMDL
MODEL 2
REMARK VINA RESULT:   -10.954      1.255      2.670
REMARK INTER + INTRA:         -15.379
REMARK INTER:                 -12.743
REMARK INTRA:                  -2.636
REMARK CONF_INDEPENDENT:        1.790
REMARK UNBOUND:                -2.636
REMARK  6 active torsions:
REMARK  status: ('A' for Active; 'I' for Inactive)
REMARK       I    between atoms: C_2  and  N_3 
REMARK    1  A    between atoms: C_2  and  C_12 
REMARK    2  A    between atoms: N_3  and  C_4 
REMARK    3  A    between atoms: C_4  and  C_5 
REMARK    4  A    between atoms: C_5  and  C_6 
REMARK    5  A    between atoms: C_19  and  C_20 
REMARK    6  A    between atoms: C_21  and  O_22 
ROOT
ATOM      1  C   UNL d   1      24.696 -17.146  -0.586  0.00  0.00     0.053 C 
ATOM      2  C   UNL d   1      25.091 -18.364  -0.052  0.00  0.00     0.019 C 
ATOM      3  C   UNL d   1      26.433 -18.555   0.296  0.00  0.00     0.002 C 
ATOM      4  C   UNL d   1      27.271 -17.460   0.461  0.00  0.00     0.010 C 
ATOM      5  C   UNL d   1      26.833 -16.222   0.029  0.00  0.00    -0.028 C 
ATOM      6  C   UNL d   1      25.686 -16.184  -0.779  0.00  0.00     0.031 C 
ATOM      7  N   UNL d   1      25.947 -15.717  -2.155  0.00  0.00    -0.282 NA
ATOM      8  C   UNL d   1      26.525 -14.362  -2.053  0.00  0.00     0.102 C 
ATOM      9  C   UNL d   1      27.709 -14.227  -1.085  0.00  0.00     0.024 C 
ATOM     10  C   UNL d   1      27.731 -12.743  -0.600  0.00  0.00     0.034 C 
ATOM     11  C   UNL d   1      27.090 -12.740   0.709  0.00  0.00    -0.029 C 
ATOM     12  C   UNL d   1      27.063 -13.983   1.183  0.00  0.00    -0.021 C 
ATOM     13  C   UNL d   1      27.645 -14.992   0.218  0.00  0.00     0.049 C 
ATOM     14  H   UNL d   1      26.599 -16.417  -2.552  0.00  0.00     0.128 HD
ENDROOT
BRANCH   1  15
ATOM     15  C   UNL d   1      23.257 -16.932  -0.976  0.00  0.00     0.253 C 
ATOM     16  O   UNL d   1      22.835 -15.855  -1.271  0.00  0.00    -0.268 OA
ATOM     17  N   UNL d   1      22.490 -18.089  -0.959  0.00  0.00    -0.357 N 
ATOM     18  H   UNL d   1      22.986 -18.928  -0.750  0.00  0.00     0.162 HD
BRANCH  17  19
ATOM     19  C   UNL d   1      21.065 -18.059  -1.167  0.00  0.00     0.127 C 
BRANCH  19  20
ATOM     20  C   UNL d   1      20.384 -19.429  -1.277  0.00  0.00     0.058 C 
BRANCH  20  21
ATOM     21  C   UNL d   1      19.868 -19.946   0.049  0.00  0.00    -0.057 A 
ATOM     22  C   UNL d   1      18.745 -20.784   0.123  0.00  0.00     0.007 A 
ATOM     23  C   UNL d   1      18.167 -21.101   1.345  0.00  0.00     0.001 A 
ATOM     24  C   UNL d   1      18.776 -20.687   2.521  0.00  0.00     0.000 A 
ATOM     25  C   UNL d   1      19.919 -19.890   2.472  0.00  0.00     0.001 A 
ATOM     26  C   UNL d   1      20.457 -19.507   1.241  0.00  0.00     0.007 A 
ENDBRANCH  20  21
ENDBRANCH  19  20
ENDBRANCH  17  19
ENDBRANCH   1  15
BRANCH   8  27
ATOM     27  C   UNL d   1      26.874 -13.721  -3.415  0.00  0.00     0.004 C 
ATOM     28  C   UNL d   1      27.282 -14.558  -4.495  0.00  0.00     0.074 C 
ATOM     29  C   UNL d   1      27.417 -14.051  -5.769  0.00  0.00     0.038 C 
ATOM     30  C   UNL d   1      27.058 -12.737  -6.009  0.00  0.00     0.014 C 
ATOM     31  C   UNL d   1      26.719 -11.847  -4.975  0.00  0.00    -0.029 C 
ATOM     32  C   UNL d   1      26.645 -10.467  -5.239  0.00  0.00    -0.009 C 
ATOM     33  C   UNL d   1      26.535 -12.242  -3.673  0.00  0.00    -0.019 C 
ATOM     34  C   UNL d   1      26.518  -9.480  -4.270  0.00  0.00     0.025 C 
ATOM     35  C   UNL d   1      25.522  -9.827  -3.475  0.00  0.00     0.025 C 
ATOM     36  C   UNL d   1      25.999 -11.024  -2.904  0.00  0.00    -0.008 C 
BRANCH  28  37
ATOM     37  O   UNL d   1      27.473 -15.909  -4.459  0.00  0.00    -0.360 OA
ATOM     38  H   UNL d   1      26.737 -16.305  -3.985  0.00  0.00     0.217 HD
ENDBRANCH  28  37
ENDBRANCH   8  27
TORSDOF 6
ENDMDL
MODEL 3
REMARK VINA RESULT:   -10.334      2.817      8.683
REMARK INTER + INTRA:         -14.483
REMARK INTER:                 -12.124
REMARK INTRA:                  -2.359
REMARK CONF_INDEPENDENT:        1.790
REMARK UNBOUND:                -2.359
REMARK  6 active torsions:
REMARK  status: ('A' for Active; 'I' for Inactive)
REMARK       I    between atoms: C_2  and  N_3 
REMARK    1  A    between atoms: C_2  and  C_12 
REMARK    2  A    between atoms: N_3  and  C_4 
REMARK    3  A    between atoms: C_4  and  C_5 
REMARK    4  A    between atoms: C_5  and  C_6 
REMARK    5  A    between atoms: C_19  and  C_20 
REMARK    6  A    between atoms: C_21  and  O_22 
ROOT
ATOM      1  C   UNL d   1      27.760 -13.747  -4.927  0.00  0.00     0.053 C 
ATOM      2  C   UNL d   1      27.039 -12.918  -5.774  0.00  0.00     0.019 C 
ATOM      3  C   UNL d   1      25.951 -12.200  -5.265  0.00  0.00     0.002 C 
ATOM      4  C   UNL d   1      25.816 -12.022  -3.894  0.00  0.00     0.010 C 
ATOM      5  C   UNL d   1      26.614 -12.769  -3.048  0.00  0.00    -0.028 C 
ATOM      6  C   UNL d   1      27.324 -13.844  -3.606  0.00  0.00     0.031 C 
ATOM      7  N   UNL d   1      26.887 -15.163  -3.109  0.00  0.00    -0.282 NA
ATOM      8  C   UNL d   1      27.068 -15.158  -1.644  0.00  0.00     0.102 C 
ATOM      9  C   UNL d   1      26.458 -13.954  -0.913  0.00  0.00     0.024 C 
ATOM     10  C   UNL d   1      27.281 -13.756   0.399  0.00  0.00     0.034 C 
ATOM     11  C   UNL d   1      28.228 -12.684   0.120  0.00  0.00    -0.029 C 
ATOM     12  C   UNL d   1      27.826 -12.018  -0.959  0.00  0.00    -0.021 C 
ATOM     13  C   UNL d   1      26.571 -12.597  -1.573  0.00  0.00     0.049 C 
ATOM     14  H   UNL d   1      25.898 -15.242  -3.405  0.00  0.00     0.128 HD
ENDROOT
BRANCH   1  15
ATOM     15  C   UNL d   1      28.926 -14.534  -5.465  0.00  0.00     0.253 C 
ATOM     16  O   UNL d   1      29.368 -14.342  -6.557  0.00  0.00    -0.268 OA
ATOM     17  N   UNL d   1      29.424 -15.481  -4.581  0.00  0.00    -0.357 N 
ATOM     18  H   UNL d   1      28.995 -15.493  -3.680  0.00  0.00     0.162 HD
BRANCH  17  19
ATOM     19  C   UNL d   1      30.444 -16.422  -4.969  0.00  0.00     0.127 C 
BRANCH  19  20
ATOM     20  C   UNL d   1      30.039 -17.899  -4.908  0.00  0.00     0.058 C 
BRANCH  20  21
ATOM     21  C   UNL d   1      30.473 -18.687  -6.126  0.00  0.00    -0.057 A 
ATOM     22  C   UNL d   1      30.577 -20.086  -6.097  0.00  0.00     0.007 A 
ATOM     23  C   UNL d   1      31.152 -20.784  -7.150  0.00  0.00     0.001 A 
ATOM     24  C   UNL d   1      31.519 -20.106  -8.305  0.00  0.00     0.000 A 
ATOM     25  C   UNL d   1      31.383 -18.720  -8.372  0.00  0.00     0.001 A 
ATOM     26  C   UNL d   1      30.876 -18.009  -7.283  0.00  0.00     0.007 A 
ENDBRANCH  20  21
ENDBRANCH  19  20
ENDBRANCH  17  19
ENDBRANCH   1  15
BRANCH   8  27
ATOM     27  C   UNL d   1      26.644 -16.473  -0.952  0.00  0.00     0.004 C 
ATOM     28  C   UNL d   1      27.620 -17.235  -0.245  0.00  0.00     0.074 C 
ATOM     29  C   UNL d   1      27.248 -18.305   0.539  0.00  0.00     0.038 C 
ATOM     30  C   UNL d   1      25.902 -18.575   0.711  0.00  0.00     0.014 C 
ATOM     31  C   UNL d   1      24.901 -17.906  -0.015  0.00  0.00    -0.029 C 
ATOM     32  C   UNL d   1      23.587 -18.410  -0.018  0.00  0.00    -0.009 C 
ATOM     33  C   UNL d   1      25.150 -16.815  -0.809  0.00  0.00    -0.019 C 
ATOM     34  C   UNL d   1      22.567 -17.960  -0.844  0.00  0.00     0.025 C 
ATOM     35  C   UNL d   1      22.530 -16.643  -0.753  0.00  0.00     0.025 C 
ATOM     36  C   UNL d   1      23.788 -16.272  -1.269  0.00  0.00    -0.008 C 
BRANCH  28  37
ATOM     37  O   UNL d   1      28.955 -16.972  -0.150  0.00  0.00    -0.360 OA
ATOM     38  H   UNL d   1      29.303 -17.450   0.608  0.00  0.00     0.217 HD
ENDBRANCH  28  37
ENDBRANCH   8  27
TORSDOF 6
ENDMDL
MODEL 4
REMARK VINA RESULT:    -9.931      2.747      8.272
REMARK INTER + INTRA:         -14.874
REMARK INTER:                 -11.720
REMARK INTRA:                  -3.154
REMARK CONF_INDEPENDENT:        1.790
REMARK UNBOUND:                -3.154
REMARK  6 active torsions:
REMARK  status: ('A' for Active; 'I' for Inactive)
REMARK       I    between atoms: C_2  and  N_3 
REMARK    1  A    between atoms: C_2  and  C_12 
REMARK    2  A    between atoms: N_3  and  C_4 
REMARK    3  A    between atoms: C_4  and  C_5 
REMARK    4  A    between atoms: C_5  and  C_6 
REMARK    5  A    between atoms: C_19  and  C_20 
REMARK    6  A    between atoms: C_21  and  O_22 
ROOT
ATOM      1  C   UNL d   1      26.907 -13.346  -4.761  0.00  0.00     0.053 C 
ATOM      2  C   UNL d   1      26.172 -12.250  -5.191  0.00  0.00     0.019 C 
ATOM      3  C   UNL d   1      25.540 -11.436  -4.243  0.00  0.00     0.002 C 
ATOM      4  C   UNL d   1      25.930 -11.488  -2.911  0.00  0.00     0.010 C 
ATOM      5  C   UNL d   1      26.755 -12.520  -2.504  0.00  0.00    -0.028 C 
ATOM      6  C   UNL d   1      26.938 -13.593  -3.389  0.00  0.00     0.031 C 
ATOM      7  N   UNL d   1      26.382 -14.869  -2.897  0.00  0.00    -0.282 NA
ATOM      8  C   UNL d   1      27.046 -15.167  -1.613  0.00  0.00     0.102 C 
ATOM      9  C   UNL d   1      27.045 -14.021  -0.592  0.00  0.00     0.024 C 
ATOM     10  C   UNL d   1      28.287 -14.232   0.329  0.00  0.00     0.034 C 
ATOM     11  C   UNL d   1      29.319 -13.336  -0.178  0.00  0.00    -0.029 C 
ATOM     12  C   UNL d   1      28.753 -12.417  -0.957  0.00  0.00    -0.021 C 
ATOM     13  C   UNL d   1      27.262 -12.615  -1.111  0.00  0.00     0.049 C 
ATOM     14  H   UNL d   1      25.364 -14.695  -2.807  0.00  0.00     0.128 HD
ENDROOT
BRANCH   1  15
ATOM     15  C   UNL d   1      27.583 -14.235  -5.771  0.00  0.00     0.253 C 
ATOM     16  O   UNL d   1      27.185 -15.335  -6.010  0.00  0.00    -0.268 OA
ATOM     17  N   UNL d   1      28.688 -13.658  -6.381  0.00  0.00    -0.357 N 
ATOM     18  H   UNL d   1      28.872 -12.711  -6.127  0.00  0.00     0.162 HD
BRANCH  17  19
ATOM     19  C   UNL d   1      29.542 -14.405  -7.269  0.00  0.00     0.127 C 
BRANCH  19  20
ATOM     20  C   UNL d   1      30.831 -14.950  -6.643  0.00  0.00     0.058 C 
BRANCH  20  21
ATOM     21  C   UNL d   1      30.603 -15.646  -5.318  0.00  0.00    -0.057 A 
ATOM     22  C   UNL d   1      30.424 -17.035  -5.239  0.00  0.00     0.007 A 
ATOM     23  C   UNL d   1      30.030 -17.640  -4.053  0.00  0.00     0.001 A 
ATOM     24  C   UNL d   1      29.932 -16.883  -2.894  0.00  0.00     0.000 A 
ATOM     25  C   UNL d   1      30.149 -15.507  -2.941  0.00  0.00     0.001 A 
ATOM     26  C   UNL d   1      30.470 -14.885  -4.149  0.00  0.00     0.007 A 
ENDBRANCH  20  21
ENDBRANCH  19  20
ENDBRANCH  17  19
ENDBRANCH   1  15
BRANCH   8  27
ATOM     27  C   UNL d   1      26.569 -16.476  -0.945  0.00  0.00     0.004 C 
ATOM     28  C   UNL d   1      27.511 -17.286  -0.246  0.00  0.00     0.074 C 
ATOM     29  C   UNL d   1      27.094 -18.354   0.519  0.00  0.00     0.038 C 
ATOM     30  C   UNL d   1      25.738 -18.575   0.679  0.00  0.00     0.014 C 
ATOM     31  C   UNL d   1      24.767 -17.857  -0.041  0.00  0.00    -0.029 C 
ATOM     32  C   UNL d   1      23.435 -18.311  -0.059  0.00  0.00    -0.009 C 
ATOM     33  C   UNL d   1      25.062 -16.763  -0.816  0.00  0.00    -0.019 C 
ATOM     34  C   UNL d   1      22.438 -17.809  -0.883  0.00  0.00     0.025 C 
ATOM     35  C   UNL d   1      22.450 -16.493  -0.770  0.00  0.00     0.025 C 
ATOM     36  C   UNL d   1      23.724 -16.162  -1.274  0.00  0.00    -0.008 C 
BRANCH  28  37
ATOM     37  O   UNL d   1      28.855 -17.075  -0.139  0.00  0.00    -0.360 OA
ATOM     38  H   UNL d   1      29.183 -17.590   0.604  0.00  0.00     0.217 HD
ENDBRANCH  28  37
ENDBRANCH   8  27
TORSDOF 6
ENDMDL
MODEL 5
REMARK VINA RESULT:    -9.632      3.118      7.929
REMARK INTER + INTRA:         -15.009
REMARK INTER:                 -11.421
REMARK INTRA:                  -3.588
REMARK CONF_INDEPENDENT:        1.790
REMARK UNBOUND:                -3.588
REMARK  6 active torsions:
REMARK  status: ('A' for Active; 'I' for Inactive)
REMARK       I    between atoms: C_2  and  N_3 
REMARK    1  A    between atoms: C_2  and  C_12 
REMARK    2  A    between atoms: N_3  and  C_4 
REMARK    3  A    between atoms: C_4  and  C_5 
REMARK    4  A    between atoms: C_5  and  C_6 
REMARK    5  A    between atoms: C_19  and  C_20 
REMARK    6  A    between atoms: C_21  and  O_22 
ROOT
ATOM      1  C   UNL d   1      28.380 -11.671  -1.160  0.00  0.00     0.053 C 
ATOM      2  C   UNL d   1      29.552 -11.093  -1.628  0.00  0.00     0.019 C 
ATOM      3  C   UNL d   1      30.179 -11.636  -2.756  0.00  0.00     0.002 C 
ATOM      4  C   UNL d   1      29.474 -12.480  -3.605  0.00  0.00     0.010 C 
ATOM      5  C   UNL d   1      28.251 -12.970  -3.184  0.00  0.00    -0.028 C 
ATOM      6  C   UNL d   1      27.914 -12.799  -1.833  0.00  0.00     0.031 C 
ATOM      7  N   UNL d   1      27.814 -14.068  -1.084  0.00  0.00    -0.282 NA
ATOM      8  C   UNL d   1      26.784 -14.889  -1.751  0.00  0.00     0.102 C 
ATOM      9  C   UNL d   1      26.953 -15.042  -3.269  0.00  0.00     0.024 C 
ATOM     10  C   UNL d   1      25.530 -15.304  -3.859  0.00  0.00     0.034 C 
ATOM     11  C   UNL d   1      25.069 -14.022  -4.375  0.00  0.00    -0.029 C 
ATOM     12  C   UNL d   1      26.112 -13.206  -4.512  0.00  0.00    -0.021 C 
ATOM     13  C   UNL d   1      27.410 -13.832  -4.054  0.00  0.00     0.049 C 
ATOM     14  H   UNL d   1      28.765 -14.477  -1.129  0.00  0.00     0.128 HD
ENDROOT
BRANCH   1  15
ATOM     15  C   UNL d   1      27.703 -11.104   0.059  0.00  0.00     0.253 C 
ATOM     16  O   UNL d   1      27.613  -9.928   0.242  0.00  0.00    -0.268 OA
ATOM     17  N   UNL d   1      27.204 -12.066   0.926  0.00  0.00    -0.357 N 
ATOM     18  H   UNL d   1      27.298 -13.010   0.618  0.00  0.00     0.162 HD
BRANCH  17  19
ATOM     19  C   UNL d   1      26.648 -11.718   2.209  0.00  0.00     0.127 C 
BRANCH  19  20
ATOM     20  C   UNL d   1      27.669 -11.451   3.321  0.00  0.00     0.058 C 
BRANCH  20  21
ATOM     21  C   UNL d   1      27.875 -12.637   4.239  0.00  0.00    -0.057 A 
ATOM     22  C   UNL d   1      28.160 -12.471   5.602  0.00  0.00     0.007 A 
ATOM     23  C   UNL d   1      28.532 -13.549   6.394  0.00  0.00     0.001 A 
ATOM     24  C   UNL d   1      28.502 -14.832   5.865  0.00  0.00     0.000 A 
ATOM     25  C   UNL d   1      28.178 -15.026   4.523  0.00  0.00     0.001 A 
ATOM     26  C   UNL d   1      27.880 -13.933   3.706  0.00  0.00     0.007 A 
ENDBRANCH  20  21
ENDBRANCH  19  20
ENDBRANCH  17  19
ENDBRANCH   1  15
BRANCH   8  27
ATOM     27  C   UNL d   1      26.558 -16.270  -1.097  0.00  0.00     0.004 C 
ATOM     28  C   UNL d   1      27.667 -16.961  -0.527  0.00  0.00     0.074 C 
ATOM     29  C   UNL d   1      27.477 -18.098   0.228  0.00  0.00     0.038 C 
ATOM     30  C   UNL d   1      26.187 -18.510   0.508  0.00  0.00     0.014 C 
ATOM     31  C   UNL d   1      25.060 -17.913  -0.084  0.00  0.00    -0.029 C 
ATOM     32  C   UNL d   1      23.807 -18.546   0.007  0.00  0.00    -0.009 C 
ATOM     33  C   UNL d   1      25.124 -16.767  -0.836  0.00  0.00    -0.019 C 
ATOM     34  C   UNL d   1      22.672 -18.163  -0.696  0.00  0.00     0.025 C 
ATOM     35  C   UNL d   1      22.518 -16.863  -0.528  0.00  0.00     0.025 C 
ATOM     36  C   UNL d   1      23.678 -16.343  -1.138  0.00  0.00    -0.008 C 
BRANCH  28  37
ATOM     37  O   UNL d   1      28.974 -16.569  -0.541  0.00  0.00    -0.360 OA
ATOM     38  H   UNL d   1      29.013 -15.641  -0.294  0.00  0.00     0.217 HD
ENDBRANCH  28  37
ENDBRANCH   8  27
TORSDOF 6
ENDMDL
