MODEL 1
REMARK VINA RESULT:   -11.066      0.000      0.000
REMARK INTER + INTRA:         -17.108
REMARK INTER:                 -14.944
REMARK INTRA:                  -2.164
REMARK CONF_INDEPENDENT:        3.878
REMARK UNBOUND:                -2.164
REMARK  13 active torsions:
REMARK  status: ('A' for Active; 'I' for Inactive)
REMARK       I    between atoms: C_2  and  N_3 
REMARK    1  A    between atoms: C_2  and  O_33 
REMARK    2  A    between atoms: N_3  and  C_4 
REMARK    3  A    between atoms: C_4  and  C_5 
REMARK    4  A    between atoms: C_4  and  C_21 
REMARK    5  A    between atoms: C_5  and  C_6 
REMARK       I    between atoms: N_10  and  C_11 
REMARK    6  A    between atoms: C_11  and  O_13 
REMARK    7  A    between atoms: O_13  and  C_14 
REMARK    8  A    between atoms: C_14  and  C_15 
REMARK    9  A    between atoms: C_21  and  O_23 
REMARK   10  A    between atoms: O_23  and  C_24 
REMARK   11  A    between atoms: C_27  and  N_28 
REMARK   12  A    between atoms: O_33  and  C_34 
REMARK   13  A    between atoms: C_34  and  C_35 
ROOT
ATOM      1  C   UNL d   1      26.801 -15.310  -0.573  0.00  0.00     0.192 C 
ENDROOT
BRANCH   1   2
ATOM      2  N   UNL d   1      27.531 -14.698   0.606  0.00  0.00    -0.323 N 
ATOM      3  C   UNL d   1      27.113 -13.653   1.402  0.00  0.00     0.361 C 
ATOM      4  O   UNL d   1      26.008 -13.135   1.394  0.00  0.00    -0.238 OA
ATOM      5  H   UNL d   1      28.396 -15.166   0.842  0.00  0.00     0.165 HD
BRANCH   3   6
ATOM      6  O   UNL d   1      27.976 -13.113   2.271  0.00  0.00    -0.299 OA
BRANCH   6   7
ATOM      7  C   UNL d   1      27.617 -12.129   3.216  0.00  0.00     0.219 C 
BRANCH   7   8
ATOM      8  C   UNL d   1      28.104 -12.698   4.516  0.00  0.00    -0.034 A 
ATOM      9  C   UNL d   1      28.304 -14.077   4.675  0.00  0.00     0.009 A 
ATOM     10  C   UNL d   1      28.627 -14.598   5.929  0.00  0.00     0.001 A 
ATOM     11  C   UNL d   1      28.817 -13.740   7.011  0.00  0.00     0.000 A 
ATOM     12  C   UNL d   1      28.598 -12.373   6.866  0.00  0.00     0.001 A 
ATOM     13  C   UNL d   1      28.218 -11.858   5.631  0.00  0.00     0.009 A 
ENDBRANCH   7   8
ENDBRANCH   6   7
ENDBRANCH   3   6
ENDBRANCH   1   2
BRANCH   1  14
ATOM     14  C   UNL d   1      27.396 -14.855  -1.916  0.00  0.00     0.094 C 
BRANCH  14  15
ATOM     15  C   UNL d   1      26.411 -14.706  -3.026  0.00  0.00     0.043 C 
ATOM     16  C   UNL d   1      25.058 -14.422  -2.971  0.00  0.00     0.143 C 
ATOM     17  N   UNL d   1      24.564 -14.114  -4.203  0.00  0.00    -0.253 NA
ATOM     18  C   UNL d   1      25.579 -14.263  -5.018  0.00  0.00     0.219 C 
ATOM     19  N   UNL d   1      26.707 -14.747  -4.387  0.00  0.00    -0.255 N 
ATOM     20  C   UNL d   1      27.852 -15.199  -5.061  0.00  0.00     0.372 C 
ATOM     21  O   UNL d   1      27.910 -15.201  -6.281  0.00  0.00    -0.238 OA
BRANCH  20  22
ATOM     22  O   UNL d   1      28.775 -15.665  -4.188  0.00  0.00    -0.299 OA
BRANCH  22  23
ATOM     23  C   UNL d   1      30.124 -15.683  -4.674  0.00  0.00     0.219 C 
BRANCH  23  24
ATOM     24  C   UNL d   1      30.446 -17.003  -5.350  0.00  0.00    -0.034 A 
ATOM     25  C   UNL d   1      30.789 -17.096  -6.706  0.00  0.00     0.009 A 
ATOM     26  C   UNL d   1      30.914 -18.330  -7.341  0.00  0.00     0.001 A 
ATOM     27  C   UNL d   1      30.824 -19.500  -6.602  0.00  0.00     0.000 A 
ATOM     28  C   UNL d   1      30.541 -19.434  -5.240  0.00  0.00     0.001 A 
ATOM     29  C   UNL d   1      30.338 -18.196  -4.621  0.00  0.00     0.009 A 
ENDBRANCH  23  24
ENDBRANCH  22  23
ENDBRANCH  20  22
ENDBRANCH  14  15
ENDBRANCH   1  14
BRANCH   1  30
ATOM     30  C   UNL d   1      26.959 -16.858  -0.475  0.00  0.00     0.287 C 
ATOM     31  O   UNL d   1      27.805 -17.460  -1.136  0.00  0.00    -0.262 OA
BRANCH  30  32
ATOM     32  O   UNL d   1      26.059 -17.477   0.415  0.00  0.00    -0.277 OA
BRANCH  32  33
ATOM     33  C   UNL d   1      24.728 -17.758  -0.023  0.00  0.00     0.079 A 
ATOM     34  C   UNL d   1      24.308 -19.091  -0.150  0.00  0.00     0.040 A 
ATOM     35  C   UNL d   1      23.020 -19.381  -0.644  0.00  0.00     0.039 A 
ATOM     36  C   UNL d   1      22.132 -18.334  -0.939  0.00  0.00     0.103 A 
ATOM     37  C   UNL d   1      22.561 -17.007  -0.839  0.00  0.00     0.039 A 
ATOM     38  C   UNL d   1      23.864 -16.727  -0.406  0.00  0.00     0.040 A 
BRANCH  36  39
ATOM     39  N   UNL d   1      20.731 -18.621  -1.293  0.00  0.00    -0.116 N 
ATOM     40  O   UNL d   1      19.863 -17.830  -0.894  0.00  0.00    -0.532 OA
ATOM     41  O   UNL d   1      20.504 -19.620  -1.990  0.00  0.00    -0.532 OA
ENDBRANCH  36  39
ENDBRANCH  32  33
ENDBRANCH  30  32
ENDBRANCH   1  30
TORSDOF 13
ENDMDL
MODEL 2
REMARK VINA RESULT:    -9.670      2.711      6.693
REMARK INTER + INTRA:         -16.847
REMARK INTER:                 -13.547
REMARK INTRA:                  -3.300
REMARK CONF_INDEPENDENT:        3.878
REMARK UNBOUND:                -3.300
REMARK  13 active torsions:
REMARK  status: ('A' for Active; 'I' for Inactive)
REMARK       I    between atoms: C_2  and  N_3 
REMARK    1  A    between atoms: C_2  and  O_33 
REMARK    2  A    between atoms: N_3  and  C_4 
REMARK    3  A    between atoms: C_4  and  C_5 
REMARK    4  A    between atoms: C_4  and  C_21 
REMARK    5  A    between atoms: C_5  and  C_6 
REMARK       I    between atoms: N_10  and  C_11 
REMARK    6  A    between atoms: C_11  and  O_13 
REMARK    7  A    between atoms: O_13  and  C_14 
REMARK    8  A    between atoms: C_14  and  C_15 
REMARK    9  A    between atoms: C_21  and  O_23 
REMARK   10  A    between atoms: O_23  and  C_24 
REMARK   11  A    between atoms: C_27  and  N_28 
REMARK   12  A    between atoms: O_33  and  C_34 
REMARK   13  A    between atoms: C_34  and  C_35 
ROOT
ATOM      1  C   UNL d   1      28.067 -14.548  -0.695  0.00  0.00     0.192 C 
ENDROOT
BRANCH   1   2
ATOM      2  N   UNL d   1      27.255 -15.818  -0.537  0.00  0.00    -0.323 N 
ATOM      3  C   UNL d   1      27.606 -17.093  -0.926  0.00  0.00     0.361 C 
ATOM      4  O   UNL d   1      28.701 -17.450  -1.328  0.00  0.00    -0.238 OA
ATOM      5  H   UNL d   1      26.383 -15.691  -0.039  0.00  0.00     0.165 HD
BRANCH   3   6
ATOM      6  O   UNL d   1      26.682 -18.061  -0.890  0.00  0.00    -0.299 OA
BRANCH   6   7
ATOM      7  C   UNL d   1      25.966 -18.412   0.273  0.00  0.00     0.219 C 
BRANCH   7   8
ATOM      8  C   UNL d   1      24.550 -18.051  -0.066  0.00  0.00    -0.034 A 
ATOM      9  C   UNL d   1      23.558 -19.035  -0.185  0.00  0.00     0.009 A 
ATOM     10  C   UNL d   1      22.282 -18.692  -0.632  0.00  0.00     0.001 A 
ATOM     11  C   UNL d   1      21.971 -17.359  -0.896  0.00  0.00     0.000 A 
ATOM     12  C   UNL d   1      22.956 -16.380  -0.801  0.00  0.00     0.001 A 
ATOM     13  C   UNL d   1      24.246 -16.728  -0.413  0.00  0.00     0.009 A 
ENDBRANCH   7   8
ENDBRANCH   6   7
ENDBRANCH   3   6
ENDBRANCH   1   2
BRANCH   1  14
ATOM     14  C   UNL d   1      28.060 -14.038  -2.145  0.00  0.00     0.094 C 
BRANCH  14  15
ATOM     15  C   UNL d   1      26.803 -14.305  -2.903  0.00  0.00     0.043 C 
ATOM     16  C   UNL d   1      25.489 -14.263  -2.473  0.00  0.00     0.143 C 
ATOM     17  N   UNL d   1      24.620 -14.316  -3.522  0.00  0.00    -0.253 NA
ATOM     18  C   UNL d   1      25.381 -14.449  -4.580  0.00  0.00     0.219 C 
ATOM     19  N   UNL d   1      26.718 -14.579  -4.267  0.00  0.00    -0.255 N 
ATOM     20  C   UNL d   1      27.709 -14.952  -5.188  0.00  0.00     0.372 C 
ATOM     21  O   UNL d   1      27.431 -15.200  -6.352  0.00  0.00    -0.238 OA
BRANCH  20  22
ATOM     22  O   UNL d   1      28.918 -15.050  -4.587  0.00  0.00    -0.299 OA
BRANCH  22  23
ATOM     23  C   UNL d   1      30.028 -15.250  -5.471  0.00  0.00     0.219 C 
BRANCH  23  24
ATOM     24  C   UNL d   1      30.392 -16.721  -5.570  0.00  0.00    -0.034 A 
ATOM     25  C   UNL d   1      30.614 -17.366  -6.794  0.00  0.00     0.009 A 
ATOM     26  C   UNL d   1      30.780 -18.748  -6.868  0.00  0.00     0.001 A 
ATOM     27  C   UNL d   1      30.854 -19.498  -5.703  0.00  0.00     0.000 A 
ATOM     28  C   UNL d   1      30.694 -18.872  -4.469  0.00  0.00     0.001 A 
ATOM     29  C   UNL d   1      30.450 -17.496  -4.403  0.00  0.00     0.009 A 
ENDBRANCH  23  24
ENDBRANCH  22  23
ENDBRANCH  20  22
ENDBRANCH  14  15
ENDBRANCH   1  14
BRANCH   1  30
ATOM     30  C   UNL d   1      27.412 -13.454   0.204  0.00  0.00     0.287 C 
ATOM     31  O   UNL d   1      26.300 -13.617   0.705  0.00  0.00    -0.262 OA
BRANCH  30  32
ATOM     32  O   UNL d   1      28.197 -12.297   0.373  0.00  0.00    -0.277 OA
BRANCH  32  33
ATOM     33  C   UNL d   1      27.562 -11.069   0.735  0.00  0.00     0.079 A 
ATOM     34  C   UNL d   1      27.448 -10.042  -0.215  0.00  0.00     0.040 A 
ATOM     35  C   UNL d   1      26.883  -8.803   0.150  0.00  0.00     0.039 A 
ATOM     36  C   UNL d   1      26.368  -8.623   1.443  0.00  0.00     0.103 A 
ATOM     37  C   UNL d   1      26.506  -9.637   2.396  0.00  0.00     0.039 A 
ATOM     38  C   UNL d   1      27.125 -10.844   2.044  0.00  0.00     0.040 A 
BRANCH  36  39
ATOM     39  N   UNL d   1      25.624  -7.399   1.787  0.00  0.00    -0.116 N 
ATOM     40  O   UNL d   1      25.905  -6.834   2.855  0.00  0.00    -0.532 OA
ATOM     41  O   UNL d   1      24.779  -6.990   0.978  0.00  0.00    -0.532 OA
ENDBRANCH  36  39
ENDBRANCH  32  33
ENDBRANCH  30  32
ENDBRANCH   1  30
TORSDOF 13
ENDMDL
MODEL 3
REMARK VINA RESULT:    -9.192      2.389      7.094
REMARK INTER + INTRA:         -16.913
REMARK INTER:                 -13.070
REMARK INTRA:                  -3.843
REMARK CONF_INDEPENDENT:        3.878
REMARK UNBOUND:                -3.843
REMARK  13 active torsions:
REMARK  status: ('A' for Active; 'I' for Inactive)
REMARK       I    between atoms: C_2  and  N_3 
REMARK    1  A    between atoms: C_2  and  O_33 
REMARK    2  A    between atoms: N_3  and  C_4 
REMARK    3  A    between atoms: C_4  and  C_5 
REMARK    4  A    between atoms: C_4  and  C_21 
REMARK    5  A    between atoms: C_5  and  C_6 
REMARK       I    between atoms: N_10  and  C_11 
REMARK    6  A    between atoms: C_11  and  O_13 
REMARK    7  A    between atoms: O_13  and  C_14 
REMARK    8  A    between atoms: C_14  and  C_15 
REMARK    9  A    between atoms: C_21  and  O_23 
REMARK   10  A    between atoms: O_23  and  C_24 
REMARK   11  A    between atoms: C_27  and  N_28 
REMARK   12  A    between atoms: O_33  and  C_34 
REMARK   13  A    between atoms: C_34  and  C_35 
ROOT
ATOM      1  C   UNL d   1      27.258 -16.449  -2.062  0.00  0.00     0.192 C 
ENDROOT
BRANCH   1   2
ATOM      2  N   UNL d   1      26.138 -15.789  -2.841  0.00  0.00    -0.323 N 
ATOM      3  C   UNL d   1      26.160 -15.374  -4.156  0.00  0.00     0.361 C 
ATOM      4  O   UNL d   1      27.037 -15.607  -4.972  0.00  0.00    -0.238 OA
ATOM      5  H   UNL d   1      25.272 -15.703  -2.326  0.00  0.00     0.165 HD
BRANCH   3   6
ATOM      6  O   UNL d   1      25.150 -14.629  -4.620  0.00  0.00    -0.299 OA
BRANCH   6   7
ATOM      7  C   UNL d   1      24.440 -13.701  -3.831  0.00  0.00     0.219 C 
BRANCH   7   8
ATOM      8  C   UNL d   1      25.512 -12.786  -3.317  0.00  0.00    -0.034 A 
ATOM      9  C   UNL d   1      26.139 -11.856  -4.160  0.00  0.00     0.009 A 
ATOM     10  C   UNL d   1      27.223 -11.111  -3.696  0.00  0.00     0.001 A 
ATOM     11  C   UNL d   1      27.644 -11.241  -2.374  0.00  0.00     0.000 A 
ATOM     12  C   UNL d   1      27.042 -12.178  -1.538  0.00  0.00     0.001 A 
ATOM     13  C   UNL d   1      25.999 -12.965  -2.016  0.00  0.00     0.009 A 
ENDBRANCH   7   8
ENDBRANCH   6   7
ENDBRANCH   3   6
ENDBRANCH   1   2
BRANCH   1  14
ATOM     14  C   UNL d   1      28.335 -15.438  -1.636  0.00  0.00     0.094 C 
BRANCH  14  15
ATOM     15  C   UNL d   1      29.545 -16.033  -0.999  0.00  0.00     0.043 C 
ATOM     16  C   UNL d   1      30.277 -17.148  -1.368  0.00  0.00     0.143 C 
ATOM     17  N   UNL d   1      31.456 -17.217  -0.689  0.00  0.00    -0.253 NA
ATOM     18  C   UNL d   1      31.429 -16.196   0.131  0.00  0.00     0.219 C 
ATOM     19  N   UNL d   1      30.237 -15.503   0.088  0.00  0.00    -0.255 N 
ATOM     20  C   UNL d   1      29.868 -14.513   1.012  0.00  0.00     0.372 C 
ATOM     21  O   UNL d   1      30.600 -14.209   1.941  0.00  0.00    -0.238 OA
BRANCH  20  22
ATOM     22  O   UNL d   1      28.624 -14.047   0.752  0.00  0.00    -0.299 OA
BRANCH  22  23
ATOM     23  C   UNL d   1      27.601 -14.495   1.651  0.00  0.00     0.219 C 
BRANCH  23  24
ATOM     24  C   UNL d   1      27.838 -13.973   3.056  0.00  0.00    -0.034 A 
ATOM     25  C   UNL d   1      28.111 -14.816   4.141  0.00  0.00     0.009 A 
ATOM     26  C   UNL d   1      28.157 -14.329   5.447  0.00  0.00     0.001 A 
ATOM     27  C   UNL d   1      28.058 -12.965   5.679  0.00  0.00     0.000 A 
ATOM     28  C   UNL d   1      27.843 -12.098   4.610  0.00  0.00     0.001 A 
ATOM     29  C   UNL d   1      27.720 -12.599   3.310  0.00  0.00     0.009 A 
ENDBRANCH  23  24
ENDBRANCH  22  23
ENDBRANCH  20  22
ENDBRANCH  14  15
ENDBRANCH   1  14
BRANCH   1  30
ATOM     30  C   UNL d   1      26.635 -17.064  -0.771  0.00  0.00     0.287 C 
ATOM     31  O   UNL d   1      27.145 -18.035  -0.213  0.00  0.00    -0.262 OA
BRANCH  30  32
ATOM     32  O   UNL d   1      25.464 -16.417  -0.328  0.00  0.00    -0.277 OA
BRANCH  32  33
ATOM     33  C   UNL d   1      24.202 -17.066  -0.500  0.00  0.00     0.079 A 
ATOM     34  C   UNL d   1      24.141 -18.467  -0.528  0.00  0.00     0.040 A 
ATOM     35  C   UNL d   1      22.912 -19.116  -0.763  0.00  0.00     0.039 A 
ATOM     36  C   UNL d   1      21.737 -18.361  -0.896  0.00  0.00     0.103 A 
ATOM     37  C   UNL d   1      21.803 -16.964  -0.895  0.00  0.00     0.039 A 
ATOM     38  C   UNL d   1      23.037 -16.324  -0.723  0.00  0.00     0.040 A 
BRANCH  36  39
ATOM     39  N   UNL d   1      20.425 -19.027  -0.971  0.00  0.00    -0.116 N 
ATOM     40  O   UNL d   1      20.280 -19.920  -1.819  0.00  0.00    -0.532 OA
ATOM     41  O   UNL d   1      19.552 -18.675  -0.166  0.00  0.00    -0.532 OA
ENDBRANCH  36  39
ENDBRANCH  32  33
ENDBRANCH  30  32
ENDBRANCH   1  30
TORSDOF 13
ENDMDL
MODEL 4
REMARK VINA RESULT:    -9.087      2.090      7.724
REMARK INTER + INTRA:         -16.742
REMARK INTER:                 -12.965
REMARK INTRA:                  -3.777
REMARK CONF_INDEPENDENT:        3.878
REMARK UNBOUND:                -3.777
REMARK  13 active torsions:
REMARK  status: ('A' for Active; 'I' for Inactive)
REMARK       I    between atoms: C_2  and  N_3 
REMARK    1  A    between atoms: C_2  and  O_33 
REMARK    2  A    between atoms: N_3  and  C_4 
REMARK    3  A    between atoms: C_4  and  C_5 
REMARK    4  A    between atoms: C_4  and  C_21 
REMARK    5  A    between atoms: C_5  and  C_6 
REMARK       I    between atoms: N_10  and  C_11 
REMARK    6  A    between atoms: C_11  and  O_13 
REMARK    7  A    between atoms: O_13  and  C_14 
REMARK    8  A    between atoms: C_14  and  C_15 
REMARK    9  A    between atoms: C_21  and  O_23 
REMARK   10  A    between atoms: O_23  and  C_24 
REMARK   11  A    between atoms: C_27  and  N_28 
REMARK   12  A    between atoms: O_33  and  C_34 
REMARK   13  A    between atoms: C_34  and  C_35 
ROOT
ATOM      1  C   UNL d   1      28.209 -17.088  -0.251  0.00  0.00     0.192 C 
ENDROOT
BRANCH   1   2
ATOM      2  N   UNL d   1      28.114 -16.832  -1.741  0.00  0.00    -0.323 N 
ATOM      3  C   UNL d   1      29.151 -16.690  -2.638  0.00  0.00     0.361 C 
ATOM      4  O   UNL d   1      30.333 -16.900  -2.414  0.00  0.00    -0.238 OA
ATOM      5  H   UNL d   1      27.167 -16.821  -2.098  0.00  0.00     0.165 HD
BRANCH   3   6
ATOM      6  O   UNL d   1      28.885 -16.269  -3.880  0.00  0.00    -0.299 OA
BRANCH   6   7
ATOM      7  C   UNL d   1      28.970 -14.919  -4.279  0.00  0.00     0.219 C 
BRANCH   7   8
ATOM      8  C   UNL d   1      27.541 -14.461  -4.268  0.00  0.00    -0.034 A 
ATOM      9  C   UNL d   1      27.182 -13.189  -4.737  0.00  0.00     0.009 A 
ATOM     10  C   UNL d   1      25.872 -12.733  -4.593  0.00  0.00     0.001 A 
ATOM     11  C   UNL d   1      24.901 -13.568  -4.043  0.00  0.00     0.000 A 
ATOM     12  C   UNL d   1      25.253 -14.823  -3.554  0.00  0.00     0.001 A 
ATOM     13  C   UNL d   1      26.572 -15.257  -3.643  0.00  0.00     0.009 A 
ENDBRANCH   7   8
ENDBRANCH   6   7
ENDBRANCH   3   6
ENDBRANCH   1   2
BRANCH   1  14
ATOM     14  C   UNL d   1      28.816 -15.890   0.500  0.00  0.00     0.094 C 
BRANCH  14  15
ATOM     15  C   UNL d   1      28.200 -14.569   0.185  0.00  0.00     0.043 C 
ATOM     16  C   UNL d   1      28.139 -13.890  -1.019  0.00  0.00     0.143 C 
ATOM     17  N   UNL d   1      27.272 -12.840  -0.955  0.00  0.00    -0.253 NA
ATOM     18  C   UNL d   1      26.849 -12.832   0.284  0.00  0.00     0.219 C 
ATOM     19  N   UNL d   1      27.470 -13.779   1.071  0.00  0.00    -0.255 N 
ATOM     20  C   UNL d   1      27.362 -13.835   2.469  0.00  0.00     0.372 C 
ATOM     21  O   UNL d   1      26.701 -13.014   3.087  0.00  0.00    -0.238 OA
BRANCH  20  22
ATOM     22  O   UNL d   1      28.122 -14.835   2.975  0.00  0.00    -0.299 OA
BRANCH  22  23
ATOM     23  C   UNL d   1      29.385 -14.431   3.519  0.00  0.00     0.219 C 
BRANCH  23  24
ATOM     24  C   UNL d   1      29.210 -13.753   4.866  0.00  0.00    -0.034 A 
ATOM     25  C   UNL d   1      29.235 -14.457   6.077  0.00  0.00     0.009 A 
ATOM     26  C   UNL d   1      28.905 -13.840   7.283  0.00  0.00     0.001 A 
ATOM     27  C   UNL d   1      28.668 -12.474   7.318  0.00  0.00     0.000 A 
ATOM     28  C   UNL d   1      28.694 -11.740   6.134  0.00  0.00     0.001 A 
ATOM     29  C   UNL d   1      28.949 -12.376   4.915  0.00  0.00     0.009 A 
ENDBRANCH  23  24
ENDBRANCH  22  23
ENDBRANCH  20  22
ENDBRANCH  14  15
ENDBRANCH   1  14
BRANCH   1  30
ATOM     30  C   UNL d   1      26.761 -17.309   0.284  0.00  0.00     0.287 C 
ATOM     31  O   UNL d   1      26.535 -18.056   1.236  0.00  0.00    -0.262 OA
BRANCH  30  32
ATOM     32  O   UNL d   1      25.770 -16.594  -0.417  0.00  0.00    -0.277 OA
BRANCH  32  33
ATOM     33  C   UNL d   1      24.477 -17.180  -0.589  0.00  0.00     0.079 A 
ATOM     34  C   UNL d   1      23.362 -16.351  -0.784  0.00  0.00     0.040 A 
ATOM     35  C   UNL d   1      22.074 -16.914  -0.888  0.00  0.00     0.039 A 
ATOM     36  C   UNL d   1      21.917 -18.309  -0.870  0.00  0.00     0.103 A 
ATOM     37  C   UNL d   1      23.025 -19.132  -0.647  0.00  0.00     0.039 A 
ATOM     38  C   UNL d   1      24.294 -18.563  -0.483  0.00  0.00     0.040 A 
BRANCH  36  39
ATOM     39  N   UNL d   1      20.603 -18.917  -1.147  0.00  0.00    -0.116 N 
ATOM     40  O   UNL d   1      19.650 -18.581  -0.429  0.00  0.00    -0.532 OA
ATOM     41  O   UNL d   1      20.523 -19.707  -2.098  0.00  0.00    -0.532 OA
ENDBRANCH  36  39
ENDBRANCH  32  33
ENDBRANCH  30  32
ENDBRANCH   1  30
TORSDOF 13
ENDMDL
MODEL 5
REMARK VINA RESULT:    -8.745      3.054      5.276
REMARK INTER + INTRA:         -17.273
REMARK INTER:                 -12.623
REMARK INTRA:                  -4.650
REMARK CONF_INDEPENDENT:        3.878
REMARK UNBOUND:                -4.650
REMARK  13 active torsions:
REMARK  status: ('A' for Active; 'I' for Inactive)
REMARK       I    between atoms: C_2  and  N_3 
REMARK    1  A    between atoms: C_2  and  O_33 
REMARK    2  A    between atoms: N_3  and  C_4 
REMARK    3  A    between atoms: C_4  and  C_5 
REMARK    4  A    between atoms: C_4  and  C_21 
REMARK    5  A    between atoms: C_5  and  C_6 
REMARK       I    between atoms: N_10  and  C_11 
REMARK    6  A    between atoms: C_11  and  O_13 
REMARK    7  A    between atoms: O_13  and  C_14 
REMARK    8  A    between atoms: C_14  and  C_15 
REMARK    9  A    between atoms: C_21  and  O_23 
REMARK   10  A    between atoms: O_23  and  C_24 
REMARK   11  A    between atoms: C_27  and  N_28 
REMARK   12  A    between atoms: O_33  and  C_34 
REMARK   13  A    between atoms: C_34  and  C_35 
ROOT
ATOM      1  C   UNL d   1      27.456 -16.506  -2.196  0.00  0.00     0.192 C 
ENDROOT
BRANCH   1   2
ATOM      2  N   UNL d   1      26.293 -15.732  -2.784  0.00  0.00    -0.323 N 
ATOM      3  C   UNL d   1      26.147 -15.293  -4.082  0.00  0.00     0.361 C 
ATOM      4  O   UNL d   1      26.860 -15.584  -5.028  0.00  0.00    -0.238 OA
ATOM      5  H   UNL d   1      25.529 -15.581  -2.137  0.00  0.00     0.165 HD
BRANCH   3   6
ATOM      6  O   UNL d   1      25.149 -14.450  -4.375  0.00  0.00    -0.299 OA
BRANCH   6   7
ATOM      7  C   UNL d   1      24.778 -13.366  -3.554  0.00  0.00     0.219 C 
BRANCH   7   8
ATOM      8  C   UNL d   1      25.558 -12.216  -4.120  0.00  0.00    -0.034 A 
ATOM      9  C   UNL d   1      25.601 -10.976  -3.465  0.00  0.00     0.009 A 
ATOM     10  C   UNL d   1      26.219  -9.884  -4.075  0.00  0.00     0.001 A 
ATOM     11  C   UNL d   1      26.853 -10.040  -5.306  0.00  0.00     0.000 A 
ATOM     12  C   UNL d   1      26.795 -11.261  -5.973  0.00  0.00     0.001 A 
ATOM     13  C   UNL d   1      26.128 -12.337  -5.393  0.00  0.00     0.009 A 
ENDBRANCH   7   8
ENDBRANCH   6   7
ENDBRANCH   3   6
ENDBRANCH   1   2
BRANCH   1  14
ATOM     14  C   UNL d   1      28.648 -15.592  -1.869  0.00  0.00     0.094 C 
BRANCH  14  15
ATOM     15  C   UNL d   1      28.315 -14.145  -1.725  0.00  0.00     0.043 C 
ATOM     16  C   UNL d   1      27.676 -13.488  -0.689  0.00  0.00     0.143 C 
ATOM     17  N   UNL d   1      27.789 -12.136  -0.812  0.00  0.00    -0.253 NA
ATOM     18  C   UNL d   1      28.435 -11.956  -1.937  0.00  0.00     0.219 C 
ATOM     19  N   UNL d   1      28.676 -13.134  -2.613  0.00  0.00    -0.255 N 
ATOM     20  C   UNL d   1      29.149 -13.202  -3.932  0.00  0.00     0.372 C 
ATOM     21  O   UNL d   1      29.371 -12.190  -4.579  0.00  0.00    -0.238 OA
BRANCH  20  22
ATOM     22  O   UNL d   1      29.239 -14.487  -4.350  0.00  0.00    -0.299 OA
BRANCH  22  23
ATOM     23  C   UNL d   1      29.847 -14.673  -5.634  0.00  0.00     0.219 C 
BRANCH  23  24
ATOM     24  C   UNL d   1      30.262 -16.119  -5.839  0.00  0.00    -0.034 A 
ATOM     25  C   UNL d   1      30.733 -16.605  -7.066  0.00  0.00     0.009 A 
ATOM     26  C   UNL d   1      30.947 -17.966  -7.275  0.00  0.00     0.001 A 
ATOM     27  C   UNL d   1      30.815 -18.856  -6.220  0.00  0.00     0.000 A 
ATOM     28  C   UNL d   1      30.403 -18.390  -4.973  0.00  0.00     0.001 A 
ATOM     29  C   UNL d   1      30.114 -17.034  -4.787  0.00  0.00     0.009 A 
ENDBRANCH  23  24
ENDBRANCH  22  23
ENDBRANCH  20  22
ENDBRANCH  14  15
ENDBRANCH   1  14
BRANCH   1  30
ATOM     30  C   UNL d   1      26.966 -17.155  -0.865  0.00  0.00     0.287 C 
ATOM     31  O   UNL d   1      27.524 -18.144  -0.390  0.00  0.00    -0.262 OA
BRANCH  30  32
ATOM     32  O   UNL d   1      25.852 -16.517  -0.285  0.00  0.00    -0.277 OA
BRANCH  32  33
ATOM     33  C   UNL d   1      24.546 -17.054  -0.508  0.00  0.00     0.079 A 
ATOM     34  C   UNL d   1      23.459 -16.183  -0.673  0.00  0.00     0.040 A 
ATOM     35  C   UNL d   1      22.156 -16.701  -0.826  0.00  0.00     0.039 A 
ATOM     36  C   UNL d   1      21.959 -18.089  -0.888  0.00  0.00     0.103 A 
ATOM     37  C   UNL d   1      23.040 -18.956  -0.696  0.00  0.00     0.039 A 
ATOM     38  C   UNL d   1      24.322 -18.434  -0.482  0.00  0.00     0.040 A 
BRANCH  36  39
ATOM     39  N   UNL d   1      20.634 -18.641  -1.217  0.00  0.00    -0.116 N 
ATOM     40  O   UNL d   1      20.593 -19.749  -1.773  0.00  0.00    -0.532 OA
ATOM     41  O   UNL d   1      19.637 -17.980  -0.896  0.00  0.00    -0.532 OA
ENDBRANCH  36  39
ENDBRANCH  32  33
ENDBRANCH  30  32
ENDBRANCH   1  30
TORSDOF 13
ENDMDL
MODEL 6
REMARK VINA RESULT:    -8.682      3.433      7.586
REMARK INTER + INTRA:         -17.256
REMARK INTER:                 -12.560
REMARK INTRA:                  -4.696
REMARK CONF_INDEPENDENT:        3.878
REMARK UNBOUND:                -4.696
REMARK  13 active torsions:
REMARK  status: ('A' for Active; 'I' for Inactive)
REMARK       I    between atoms: C_2  and  N_3 
REMARK    1  A    between atoms: C_2  and  O_33 
REMARK    2  A    between atoms: N_3  and  C_4 
REMARK    3  A    between atoms: C_4  and  C_5 
REMARK    4  A    between atoms: C_4  and  C_21 
REMARK    5  A    between atoms: C_5  and  C_6 
REMARK       I    between atoms: N_10  and  C_11 
REMARK    6  A    between atoms: C_11  and  O_13 
REMARK    7  A    between atoms: O_13  and  C_14 
REMARK    8  A    between atoms: C_14  and  C_15 
REMARK    9  A    between atoms: C_21  and  O_23 
REMARK   10  A    between atoms: O_23  and  C_24 
REMARK   11  A    between atoms: C_27  and  N_28 
REMARK   12  A    between atoms: O_33  and  C_34 
REMARK   13  A    between atoms: C_34  and  C_35 
ROOT
ATOM      1  C   UNL d   1      28.865 -14.155  -1.721  0.00  0.00     0.192 C 
ENDROOT
BRANCH   1   2
ATOM      2  N   UNL d   1      27.667 -15.048  -1.467  0.00  0.00    -0.323 N 
ATOM      3  C   UNL d   1      27.643 -16.426  -1.412  0.00  0.00     0.361 C 
ATOM      4  O   UNL d   1      28.613 -17.166  -1.405  0.00  0.00    -0.238 OA
ATOM      5  H   UNL d   1      26.812 -14.545  -1.268  0.00  0.00     0.165 HD
BRANCH   3   6
ATOM      6  O   UNL d   1      26.462 -17.055  -1.378  0.00  0.00    -0.299 OA
BRANCH   6   7
ATOM      7  C   UNL d   1      26.043 -17.869  -0.306  0.00  0.00     0.219 C 
BRANCH   7   8
ATOM      8  C   UNL d   1      24.547 -17.835  -0.405  0.00  0.00    -0.034 A 
ATOM      9  C   UNL d   1      23.787 -19.012  -0.335  0.00  0.00     0.009 A 
ATOM     10  C   UNL d   1      22.412 -18.972  -0.564  0.00  0.00     0.001 A 
ATOM     11  C   UNL d   1      21.779 -17.752  -0.795  0.00  0.00     0.000 A 
ATOM     12  C   UNL d   1      22.529 -16.583  -0.889  0.00  0.00     0.001 A 
ATOM     13  C   UNL d   1      23.909 -16.628  -0.720  0.00  0.00     0.009 A 
ENDBRANCH   7   8
ENDBRANCH   6   7
ENDBRANCH   3   6
ENDBRANCH   1   2
BRANCH   1  14
ATOM     14  C   UNL d   1      28.779 -13.453  -3.086  0.00  0.00     0.094 C 
BRANCH  14  15
ATOM     15  C   UNL d   1      27.975 -14.171  -4.117  0.00  0.00     0.043 C 
ATOM     16  C   UNL d   1      28.393 -14.831  -5.258  0.00  0.00     0.143 C 
ATOM     17  N   UNL d   1      27.388 -15.575  -5.800  0.00  0.00    -0.253 NA
ATOM     18  C   UNL d   1      26.347 -15.332  -5.042  0.00  0.00     0.219 C 
ATOM     19  N   UNL d   1      26.598 -14.385  -4.072  0.00  0.00    -0.255 N 
ATOM     20  C   UNL d   1      25.606 -13.788  -3.279  0.00  0.00     0.372 C 
ATOM     21  O   UNL d   1      24.427 -14.075  -3.417  0.00  0.00    -0.238 OA
BRANCH  20  22
ATOM     22  O   UNL d   1      26.139 -12.858  -2.452  0.00  0.00    -0.299 OA
BRANCH  22  23
ATOM     23  C   UNL d   1      25.895 -11.495  -2.823  0.00  0.00     0.219 C 
BRANCH  23  24
ATOM     24  C   UNL d   1      26.563 -11.158  -4.144  0.00  0.00    -0.034 A 
ATOM     25  C   UNL d   1      27.796 -10.496  -4.222  0.00  0.00     0.009 A 
ATOM     26  C   UNL d   1      28.305 -10.050  -5.441  0.00  0.00     0.001 A 
ATOM     27  C   UNL d   1      27.652 -10.370  -6.622  0.00  0.00     0.000 A 
ATOM     28  C   UNL d   1      26.454 -11.079  -6.575  0.00  0.00     0.001 A 
ATOM     29  C   UNL d   1      25.905 -11.458  -5.345  0.00  0.00     0.009 A 
ENDBRANCH  23  24
ENDBRANCH  22  23
ENDBRANCH  20  22
ENDBRANCH  14  15
ENDBRANCH   1  14
BRANCH   1  30
ATOM     30  C   UNL d   1      28.878 -13.057  -0.613  0.00  0.00     0.287 C 
ATOM     31  O   UNL d   1      29.870 -12.355  -0.417  0.00  0.00    -0.262 OA
BRANCH  30  32
ATOM     32  O   UNL d   1      27.678 -12.960   0.120  0.00  0.00    -0.277 OA
BRANCH  32  33
ATOM     33  C   UNL d   1      27.298 -11.697   0.672  0.00  0.00     0.079 A 
ATOM     34  C   UNL d   1      26.686 -11.649   1.933  0.00  0.00     0.040 A 
ATOM     35  C   UNL d   1      26.247 -10.417   2.458  0.00  0.00     0.039 A 
ATOM     36  C   UNL d   1      26.489  -9.230   1.750  0.00  0.00     0.103 A 
ATOM     37  C   UNL d   1      27.074  -9.282   0.481  0.00  0.00     0.039 A 
ATOM     38  C   UNL d   1      27.452 -10.516  -0.062  0.00  0.00     0.040 A 
BRANCH  36  39
ATOM     39  N   UNL d   1      26.190  -7.922   2.361  0.00  0.00    -0.116 N 
ATOM     40  O   UNL d   1      25.469  -7.140   1.724  0.00  0.00    -0.532 OA
ATOM     41  O   UNL d   1      26.655  -7.691   3.485  0.00  0.00    -0.532 OA
ENDBRANCH  36  39
ENDBRANCH  32  33
ENDBRANCH  30  32
ENDBRANCH   1  30
TORSDOF 13
ENDMDL
MODEL 7
REMARK VINA RESULT:    -8.510      2.609      6.828
REMARK INTER + INTRA:         -17.236
REMARK INTER:                 -12.388
REMARK INTRA:                  -4.847
REMARK CONF_INDEPENDENT:        3.878
REMARK UNBOUND:                -4.847
REMARK  13 active torsions:
REMARK  status: ('A' for Active; 'I' for Inactive)
REMARK       I    between atoms: C_2  and  N_3 
REMARK    1  A    between atoms: C_2  and  O_33 
REMARK    2  A    between atoms: N_3  and  C_4 
REMARK    3  A    between atoms: C_4  and  C_5 
REMARK    4  A    between atoms: C_4  and  C_21 
REMARK    5  A    between atoms: C_5  and  C_6 
REMARK       I    between atoms: N_10  and  C_11 
REMARK    6  A    between atoms: C_11  and  O_13 
REMARK    7  A    between atoms: O_13  and  C_14 
REMARK    8  A    between atoms: C_14  and  C_15 
REMARK    9  A    between atoms: C_21  and  O_23 
REMARK   10  A    between atoms: O_23  and  C_24 
REMARK   11  A    between atoms: C_27  and  N_28 
REMARK   12  A    between atoms: O_33  and  C_34 
REMARK   13  A    between atoms: C_34  and  C_35 
ROOT
ATOM      1  C   UNL d   1      27.357 -16.592  -1.405  0.00  0.00     0.192 C 
ENDROOT
BRANCH   1   2
ATOM      2  N   UNL d   1      26.268 -15.581  -1.703  0.00  0.00    -0.323 N 
ATOM      3  C   UNL d   1      25.683 -15.311  -2.922  0.00  0.00     0.361 C 
ATOM      4  O   UNL d   1      25.831 -15.949  -3.951  0.00  0.00    -0.238 OA
ATOM      5  H   UNL d   1      25.915 -15.102  -0.885  0.00  0.00     0.165 HD
BRANCH   3   6
ATOM      6  O   UNL d   1      24.880 -14.246  -3.036  0.00  0.00    -0.299 OA
BRANCH   6   7
ATOM      7  C   UNL d   1      24.522 -13.670  -4.272  0.00  0.00     0.219 C 
BRANCH   7   8
ATOM      8  C   UNL d   1      25.534 -12.578  -4.455  0.00  0.00    -0.034 A 
ATOM      9  C   UNL d   1      26.570 -12.697  -5.392  0.00  0.00     0.009 A 
ATOM     10  C   UNL d   1      27.576 -11.732  -5.451  0.00  0.00     0.001 A 
ATOM     11  C   UNL d   1      27.517 -10.613  -4.623  0.00  0.00     0.000 A 
ATOM     12  C   UNL d   1      26.504 -10.498  -3.674  0.00  0.00     0.001 A 
ATOM     13  C   UNL d   1      25.533 -11.489  -3.573  0.00  0.00     0.009 A 
ENDBRANCH   7   8
ENDBRANCH   6   7
ENDBRANCH   3   6
ENDBRANCH   1   2
BRANCH   1  14
ATOM     14  C   UNL d   1      28.637 -15.920  -0.880  0.00  0.00     0.094 C 
BRANCH  14  15
ATOM     15  C   UNL d   1      29.054 -14.692  -1.618  0.00  0.00     0.043 C 
ATOM     16  C   UNL d   1      30.069 -14.523  -2.543  0.00  0.00     0.143 C 
ATOM     17  N   UNL d   1      29.968 -13.322  -3.178  0.00  0.00    -0.253 NA
ATOM     18  C   UNL d   1      28.944 -12.730  -2.614  0.00  0.00     0.219 C 
ATOM     19  N   UNL d   1      28.417 -13.454  -1.565  0.00  0.00    -0.255 N 
ATOM     20  C   UNL d   1      27.467 -12.953  -0.662  0.00  0.00     0.372 C 
ATOM     21  O   UNL d   1      27.051 -11.807  -0.750  0.00  0.00    -0.238 OA
BRANCH  20  22
ATOM     22  O   UNL d   1      27.175 -13.868   0.292  0.00  0.00    -0.299 OA
BRANCH  22  23
ATOM     23  C   UNL d   1      26.652 -13.333   1.515  0.00  0.00     0.219 C 
BRANCH  23  24
ATOM     24  C   UNL d   1      27.503 -13.746   2.702  0.00  0.00    -0.034 A 
ATOM     25  C   UNL d   1      27.035 -13.701   4.022  0.00  0.00     0.009 A 
ATOM     26  C   UNL d   1      27.887 -13.923   5.103  0.00  0.00     0.001 A 
ATOM     27  C   UNL d   1      29.197 -14.321   4.881  0.00  0.00     0.000 A 
ATOM     28  C   UNL d   1      29.671 -14.430   3.575  0.00  0.00     0.001 A 
ATOM     29  C   UNL d   1      28.836 -14.131   2.494  0.00  0.00     0.009 A 
ENDBRANCH  23  24
ENDBRANCH  22  23
ENDBRANCH  20  22
ENDBRANCH  14  15
ENDBRANCH   1  14
BRANCH   1  30
ATOM     30  C   UNL d   1      26.823 -17.547  -0.294  0.00  0.00     0.287 C 
ATOM     31  O   UNL d   1      27.360 -18.631  -0.067  0.00  0.00    -0.262 OA
BRANCH  30  32
ATOM     32  O   UNL d   1      25.696 -17.060   0.396  0.00  0.00    -0.277 OA
BRANCH  32  33
ATOM     33  C   UNL d   1      24.391 -17.460  -0.029  0.00  0.00     0.079 A 
ATOM     34  C   UNL d   1      24.089 -18.825  -0.144  0.00  0.00     0.040 A 
ATOM     35  C   UNL d   1      22.827 -19.230  -0.626  0.00  0.00     0.039 A 
ATOM     36  C   UNL d   1      21.849 -18.268  -0.919  0.00  0.00     0.103 A 
ATOM     37  C   UNL d   1      22.161 -16.907  -0.830  0.00  0.00     0.039 A 
ATOM     38  C   UNL d   1      23.437 -16.511  -0.411  0.00  0.00     0.040 A 
BRANCH  36  39
ATOM     39  N   UNL d   1      20.475 -18.678  -1.259  0.00  0.00    -0.116 N 
ATOM     40  O   UNL d   1      19.547 -17.942  -0.895  0.00  0.00    -0.532 OA
ATOM     41  O   UNL d   1      20.330 -19.722  -1.912  0.00  0.00    -0.532 OA
ENDBRANCH  36  39
ENDBRANCH  32  33
ENDBRANCH  30  32
ENDBRANCH   1  30
TORSDOF 13
ENDMDL
MODEL 8
REMARK VINA RESULT:    -8.252      3.290      5.519
REMARK INTER + INTRA:         -16.747
REMARK INTER:                 -12.130
REMARK INTRA:                  -4.616
REMARK CONF_INDEPENDENT:        3.878
REMARK UNBOUND:                -4.616
REMARK  13 active torsions:
REMARK  status: ('A' for Active; 'I' for Inactive)
REMARK       I    between atoms: C_2  and  N_3 
REMARK    1  A    between atoms: C_2  and  O_33 
REMARK    2  A    between atoms: N_3  and  C_4 
REMARK    3  A    between atoms: C_4  and  C_5 
REMARK    4  A    between atoms: C_4  and  C_21 
REMARK    5  A    between atoms: C_5  and  C_6 
REMARK       I    between atoms: N_10  and  C_11 
REMARK    6  A    between atoms: C_11  and  O_13 
REMARK    7  A    between atoms: O_13  and  C_14 
REMARK    8  A    between atoms: C_14  and  C_15 
REMARK    9  A    between atoms: C_21  and  O_23 
REMARK   10  A    between atoms: O_23  and  C_24 
REMARK   11  A    between atoms: C_27  and  N_28 
REMARK   12  A    between atoms: O_33  and  C_34 
REMARK   13  A    between atoms: C_34  and  C_35 
ROOT
ATOM      1  C   UNL d   1      27.191 -16.592  -2.111  0.00  0.00     0.192 C 
ENDROOT
BRANCH   1   2
ATOM      2  N   UNL d   1      26.019 -15.997  -2.867  0.00  0.00    -0.323 N 
ATOM      3  C   UNL d   1      26.016 -15.493  -4.150  0.00  0.00     0.361 C 
ATOM      4  O   UNL d   1      26.922 -15.578  -4.962  0.00  0.00    -0.238 OA
ATOM      5  H   UNL d   1      25.142 -16.036  -2.364  0.00  0.00     0.165 HD
BRANCH   3   6
ATOM      6  O   UNL d   1      24.940 -14.825  -4.583  0.00  0.00    -0.299 OA
BRANCH   6   7
ATOM      7  C   UNL d   1      24.360 -13.745  -3.884  0.00  0.00     0.219 C 
BRANCH   7   8
ATOM      8  C   UNL d   1      25.528 -12.848  -3.596  0.00  0.00    -0.034 A 
ATOM      9  C   UNL d   1      26.063 -12.012  -4.586  0.00  0.00     0.009 A 
ATOM     10  C   UNL d   1      27.229 -11.288  -4.336  0.00  0.00     0.001 A 
ATOM     11  C   UNL d   1      27.827 -11.343  -3.078  0.00  0.00     0.000 A 
ATOM     12  C   UNL d   1      27.314 -12.188  -2.097  0.00  0.00     0.001 A 
ATOM     13  C   UNL d   1      26.185 -12.956  -2.364  0.00  0.00     0.009 A 
ENDBRANCH   7   8
ENDBRANCH   6   7
ENDBRANCH   3   6
ENDBRANCH   1   2
BRANCH   1  14
ATOM     14  C   UNL d   1      28.321 -15.570  -1.908  0.00  0.00     0.094 C 
BRANCH  14  15
ATOM     15  C   UNL d   1      29.540 -16.102  -1.232  0.00  0.00     0.043 C 
ATOM     16  C   UNL d   1      30.091 -15.758  -0.011  0.00  0.00     0.143 C 
ATOM     17  N   UNL d   1      31.052 -16.646   0.370  0.00  0.00    -0.253 NA
ATOM     18  C   UNL d   1      31.140 -17.491  -0.627  0.00  0.00     0.219 C 
ATOM     19  N   UNL d   1      30.337 -17.147  -1.695  0.00  0.00    -0.255 N 
ATOM     20  C   UNL d   1      30.407 -17.753  -2.959  0.00  0.00     0.372 C 
ATOM     21  O   UNL d   1      31.215 -18.639  -3.194  0.00  0.00    -0.238 OA
BRANCH  20  22
ATOM     22  O   UNL d   1      29.538 -17.176  -3.822  0.00  0.00    -0.299 OA
BRANCH  22  23
ATOM     23  C   UNL d   1      30.037 -16.974  -5.151  0.00  0.00     0.219 C 
BRANCH  23  24
ATOM     24  C   UNL d   1      29.910 -15.520  -5.569  0.00  0.00    -0.034 A 
ATOM     25  C   UNL d   1      30.221 -14.456  -4.713  0.00  0.00     0.009 A 
ATOM     26  C   UNL d   1      29.937 -13.136  -5.061  0.00  0.00     0.001 A 
ATOM     27  C   UNL d   1      29.453 -12.844  -6.328  0.00  0.00     0.000 A 
ATOM     28  C   UNL d   1      29.190 -13.881  -7.220  0.00  0.00     0.001 A 
ATOM     29  C   UNL d   1      29.403 -15.210  -6.839  0.00  0.00     0.009 A 
ENDBRANCH  23  24
ENDBRANCH  22  23
ENDBRANCH  20  22
ENDBRANCH  14  15
ENDBRANCH   1  14
BRANCH   1  30
ATOM     30  C   UNL d   1      26.674 -17.026  -0.705  0.00  0.00     0.287 C 
ATOM     31  O   UNL d   1      27.277 -17.860  -0.029  0.00  0.00    -0.262 OA
BRANCH  30  32
ATOM     32  O   UNL d   1      25.481 -16.392  -0.306  0.00  0.00    -0.277 OA
BRANCH  32  33
ATOM     33  C   UNL d   1      24.235 -17.069  -0.491  0.00  0.00     0.079 A 
ATOM     34  C   UNL d   1      23.080 -16.326  -0.777  0.00  0.00     0.040 A 
ATOM     35  C   UNL d   1      21.834 -16.976  -0.895  0.00  0.00     0.039 A 
ATOM     36  C   UNL d   1      21.764 -18.374  -0.800  0.00  0.00     0.103 A 
ATOM     37  C   UNL d   1      22.911 -19.111  -0.487  0.00  0.00     0.039 A 
ATOM     38  C   UNL d   1      24.134 -18.452  -0.309  0.00  0.00     0.040 A 
BRANCH  36  39
ATOM     39  N   UNL d   1      20.503 -19.080  -1.089  0.00  0.00    -0.116 N 
ATOM     40  O   UNL d   1      20.441 -19.744  -2.135  0.00  0.00    -0.532 OA
ATOM     41  O   UNL d   1      19.588 -18.991  -0.259  0.00  0.00    -0.532 OA
ENDBRANCH  36  39
ENDBRANCH  32  33
ENDBRANCH  30  32
ENDBRANCH   1  30
TORSDOF 13
ENDMDL
MODEL 9
REMARK VINA RESULT:    -8.245      2.547      5.644
REMARK INTER + INTRA:         -17.075
REMARK INTER:                 -12.123
REMARK INTRA:                  -4.952
REMARK CONF_INDEPENDENT:        3.878
REMARK UNBOUND:                -4.952
REMARK  13 active torsions:
REMARK  status: ('A' for Active; 'I' for Inactive)
REMARK       I    between atoms: C_2  and  N_3 
REMARK    1  A    between atoms: C_2  and  O_33 
REMARK    2  A    between atoms: N_3  and  C_4 
REMARK    3  A    between atoms: C_4  and  C_5 
REMARK    4  A    between atoms: C_4  and  C_21 
REMARK    5  A    between atoms: C_5  and  C_6 
REMARK       I    between atoms: N_10  and  C_11 
REMARK    6  A    between atoms: C_11  and  O_13 
REMARK    7  A    between atoms: O_13  and  C_14 
REMARK    8  A    between atoms: C_14  and  C_15 
REMARK    9  A    between atoms: C_21  and  O_23 
REMARK   10  A    between atoms: O_23  and  C_24 
REMARK   11  A    between atoms: C_27  and  N_28 
REMARK   12  A    between atoms: O_33  and  C_34 
REMARK   13  A    between atoms: C_34  and  C_35 
ROOT
ATOM      1  C   UNL d   1      27.534 -16.447  -1.260  0.00  0.00     0.192 C 
ENDROOT
BRANCH   1   2
ATOM      2  N   UNL d   1      26.592 -15.436  -1.882  0.00  0.00    -0.323 N 
ATOM      3  C   UNL d   1      25.575 -15.678  -2.782  0.00  0.00     0.361 C 
ATOM      4  O   UNL d   1      25.154 -16.773  -3.119  0.00  0.00    -0.238 OA
ATOM      5  H   UNL d   1      26.714 -14.492  -1.539  0.00  0.00     0.165 HD
BRANCH   3   6
ATOM      6  O   UNL d   1      24.975 -14.642  -3.379  0.00  0.00    -0.299 OA
BRANCH   6   7
ATOM      7  C   UNL d   1      25.328 -14.169  -4.660  0.00  0.00     0.219 C 
BRANCH   7   8
ATOM      8  C   UNL d   1      25.719 -12.742  -4.411  0.00  0.00    -0.034 A 
ATOM      9  C   UNL d   1      25.756 -12.216  -3.112  0.00  0.00     0.009 A 
ATOM     10  C   UNL d   1      25.991 -10.855  -2.915  0.00  0.00     0.001 A 
ATOM     11  C   UNL d   1      26.255 -10.028  -4.005  0.00  0.00     0.000 A 
ATOM     12  C   UNL d   1      26.198 -10.538  -5.299  0.00  0.00     0.001 A 
ATOM     13  C   UNL d   1      25.905 -11.884  -5.502  0.00  0.00     0.009 A 
ENDBRANCH   7   8
ENDBRANCH   6   7
ENDBRANCH   3   6
ENDBRANCH   1   2
BRANCH   1  14
ATOM     14  C   UNL d   1      28.642 -15.769  -0.438  0.00  0.00     0.094 C 
BRANCH  14  15
ATOM     15  C   UNL d   1      28.162 -14.819   0.608  0.00  0.00     0.043 C 
ATOM     16  C   UNL d   1      27.809 -15.062   1.923  0.00  0.00     0.143 C 
ATOM     17  N   UNL d   1      27.672 -13.902   2.624  0.00  0.00    -0.253 NA
ATOM     18  C   UNL d   1      27.877 -12.953   1.745  0.00  0.00     0.219 C 
ATOM     19  N   UNL d   1      28.055 -13.437   0.465  0.00  0.00    -0.255 N 
ATOM     20  C   UNL d   1      28.072 -12.633  -0.685  0.00  0.00     0.372 C 
ATOM     21  O   UNL d   1      27.914 -11.424  -0.615  0.00  0.00    -0.238 OA
BRANCH  20  22
ATOM     22  O   UNL d   1      28.210 -13.386  -1.801  0.00  0.00    -0.299 OA
BRANCH  22  23
ATOM     23  C   UNL d   1      29.360 -13.088  -2.604  0.00  0.00     0.219 C 
BRANCH  23  24
ATOM     24  C   UNL d   1      29.289 -13.792  -3.947  0.00  0.00    -0.034 A 
ATOM     25  C   UNL d   1      28.999 -13.119  -5.141  0.00  0.00     0.009 A 
ATOM     26  C   UNL d   1      28.774 -13.811  -6.330  0.00  0.00     0.001 A 
ATOM     27  C   UNL d   1      28.960 -15.185  -6.375  0.00  0.00     0.000 A 
ATOM     28  C   UNL d   1      29.305 -15.872  -5.213  0.00  0.00     0.001 A 
ATOM     29  C   UNL d   1      29.454 -15.184  -4.005  0.00  0.00     0.009 A 
ENDBRANCH  23  24
ENDBRANCH  22  23
ENDBRANCH  20  22
ENDBRANCH  14  15
ENDBRANCH   1  14
BRANCH   1  30
ATOM     30  C   UNL d   1      26.696 -17.342  -0.296  0.00  0.00     0.287 C 
ATOM     31  O   UNL d   1      27.048 -18.488  -0.017  0.00  0.00    -0.262 OA
BRANCH  30  32
ATOM     32  O   UNL d   1      25.531 -16.726   0.200  0.00  0.00    -0.277 OA
BRANCH  32  33
ATOM     33  C   UNL d   1      24.253 -17.264  -0.151  0.00  0.00     0.079 A 
ATOM     34  C   UNL d   1      24.072 -18.655  -0.178  0.00  0.00     0.040 A 
ATOM     35  C   UNL d   1      22.837 -19.198  -0.586  0.00  0.00     0.039 A 
ATOM     36  C   UNL d   1      21.767 -18.345  -0.895  0.00  0.00     0.103 A 
ATOM     37  C   UNL d   1      21.957 -16.960  -0.895  0.00  0.00     0.039 A 
ATOM     38  C   UNL d   1      23.205 -16.428  -0.548  0.00  0.00     0.040 A 
BRANCH  36  39
ATOM     39  N   UNL d   1      20.425 -18.895  -1.158  0.00  0.00    -0.116 N 
ATOM     40  O   UNL d   1      20.354 -20.034  -1.642  0.00  0.00    -0.532 OA
ATOM     41  O   UNL d   1      19.446 -18.198  -0.856  0.00  0.00    -0.532 OA
ENDBRANCH  36  39
ENDBRANCH  32  33
ENDBRANCH  30  32
ENDBRANCH   1  30
TORSDOF 13
ENDMDL
