MODEL 1
REMARK VINA RESULT:    -8.832      0.000      0.000
REMARK INTER + INTRA:         -12.048
REMARK INTER:                 -10.324
REMARK INTRA:                  -1.724
REMARK CONF_INDEPENDENT:        1.492
REMARK UNBOUND:                -1.724
REMARK  5 active torsions:
REMARK  status: ('A' for Active; 'I' for Inactive)
REMARK    1  A    between atoms: N_4  and  C_5 
REMARK    2  A    between atoms: C_17  and  N_19 
REMARK    3  A    between atoms: N_19  and  C_20 
REMARK    4  A    between atoms: C_20  and  C_21 
REMARK    5  A    between atoms: C_21  and  C_22 
ROOT
ATOM      1  C   UNL d   1      26.639 -10.739   1.981  0.00  0.00     0.073 C 
ATOM      2  C   UNL d   1      27.285 -11.753   2.879  0.00  0.00     0.069 C 
ATOM      3  N   UNL d   1      27.603 -11.511   4.124  0.00  0.00    -0.171 NA
ATOM      4  N   UNL d   1      28.023 -12.742   4.683  0.00  0.00    -0.200 N 
ATOM      5  C   UNL d   1      27.909 -13.809   3.793  0.00  0.00     0.280 C 
ATOM      6  O   UNL d   1      28.075 -15.013   3.961  0.00  0.00    -0.265 OA
ATOM      7  C   UNL d   1      27.598 -13.143   2.491  0.00  0.00     0.081 C 
ATOM      8  C   UNL d   1      27.759 -13.706   1.273  0.00  0.00     0.019 C 
ATOM      9  C   UNL d   1      27.616 -12.929  -0.033  0.00  0.00     0.069 C 
ENDROOT
BRANCH   8  10
ATOM     10  N   UNL d   1      28.125 -15.044   1.096  0.00  0.00    -0.392 N 
ATOM     11  H   UNL d   1      28.310 -15.577   1.954  0.00  0.00     0.159 HD
BRANCH  10  12
ATOM     12  C   UNL d   1      28.537 -15.592  -0.170  0.00  0.00     0.124 C 
BRANCH  12  13
ATOM     13  C   UNL d   1      27.755 -16.807  -0.626  0.00  0.00     0.057 C 
BRANCH  13  14
ATOM     14  C   UNL d   1      26.321 -16.467  -0.944  0.00  0.00    -0.044 A 
ATOM     15  C   UNL d   1      25.191 -17.086  -0.563  0.00  0.00    -0.005 A 
ATOM     16  C   UNL d   1      24.884 -18.217   0.253  0.00  0.00     0.014 A 
ATOM     17  C   UNL d   1      24.098 -16.304  -1.180  0.00  0.00     0.039 A 
ATOM     18  C   UNL d   1      23.611 -18.577   0.442  0.00  0.00     0.001 A 
ATOM     19  C   UNL d   1      22.522 -17.820  -0.134  0.00  0.00     0.002 A 
ATOM     20  C   UNL d   1      22.706 -16.730  -0.906  0.00  0.00     0.030 A 
ATOM     21  N   UNL d   1      24.537 -15.327  -1.880  0.00  0.00    -0.381 N 
ATOM     22  C   UNL d   1      26.023 -15.293  -1.843  0.00  0.00     0.108 A 
ATOM     23  H   UNL d   1      23.932 -14.662  -2.359  0.00  0.00     0.160 HD
ATOM     24  C   UNL d   1      26.595 -15.478  -3.242  0.00  0.00     0.037 C 
ENDBRANCH  13  14
ENDBRANCH  12  13
ENDBRANCH  10  12
ENDBRANCH   8  10
BRANCH   4  25
ATOM     25  C   UNL d   1      28.832 -12.749   5.902  0.00  0.00     0.280 C 
ATOM     26  N   UNL d   1      28.303 -11.934   6.982  0.00  0.00    -0.357 N 
ATOM     27  C   UNL d   1      28.512 -12.514   8.233  0.00  0.00     0.047 A 
ATOM     28  H   UNL d   1      27.956 -11.002   6.838  0.00  0.00     0.162 HD
ATOM     29  C   UNL d   1      28.399 -11.866   9.459  0.00  0.00     0.030 A 
ATOM     30  C   UNL d   1      28.883 -13.866   8.218  0.00  0.00     0.030 A 
ATOM     31  C   UNL d   1      28.589 -12.589  10.649  0.00  0.00     0.002 A 
ATOM     32  C   UNL d   1      28.895 -13.956  10.612  0.00  0.00     0.002 A 
ATOM     33  C   UNL d   1      29.055 -14.600   9.386  0.00  0.00     0.021 A 
ATOM     34  S   UNL d   1      29.084 -14.445   6.555  0.00  0.00    -0.079 SA
ENDBRANCH   4  25
TORSDOF 5
ENDMDL
MODEL 2
REMARK VINA RESULT:    -8.639      6.922      9.180
REMARK INTER + INTRA:         -12.087
REMARK INTER:                 -10.130
REMARK INTRA:                  -1.957
REMARK CONF_INDEPENDENT:        1.492
REMARK UNBOUND:                -1.957
REMARK  5 active torsions:
REMARK  status: ('A' for Active; 'I' for Inactive)
REMARK    1  A    between atoms: N_4  and  C_5 
REMARK    2  A    between atoms: C_17  and  N_19 
REMARK    3  A    between atoms: N_19  and  C_20 
REMARK    4  A    between atoms: C_20  and  C_21 
REMARK    5  A    between atoms: C_21  and  C_22 
ROOT
ATOM      1  C   UNL d   1      26.244 -10.877  -5.748  0.00  0.00     0.073 C 
ATOM      2  C   UNL d   1      26.272 -12.222  -5.083  0.00  0.00     0.069 C 
ATOM      3  N   UNL d   1      25.582 -12.508  -4.010  0.00  0.00    -0.171 NA
ATOM      4  N   UNL d   1      25.731 -13.897  -3.788  0.00  0.00    -0.200 N 
ATOM      5  C   UNL d   1      26.482 -14.527  -4.780  0.00  0.00     0.280 C 
ATOM      6  O   UNL d   1      26.721 -15.716  -4.969  0.00  0.00    -0.265 OA
ATOM      7  C   UNL d   1      27.035 -13.387  -5.572  0.00  0.00     0.081 C 
ATOM      8  C   UNL d   1      28.104 -13.461  -6.397  0.00  0.00     0.019 C 
ATOM      9  C   UNL d   1      28.755 -12.237  -7.035  0.00  0.00     0.069 C 
ENDROOT
BRANCH   8  10
ATOM     10  N   UNL d   1      28.748 -14.664  -6.702  0.00  0.00    -0.392 N 
ATOM     11  H   UNL d   1      28.298 -15.517  -6.347  0.00  0.00     0.159 HD
BRANCH  10  12
ATOM     12  C   UNL d   1      30.099 -14.739  -7.193  0.00  0.00     0.124 C 
BRANCH  12  13
ATOM     13  C   UNL d   1      31.129 -15.163  -6.166  0.00  0.00     0.057 C 
BRANCH  13  14
ATOM     14  C   UNL d   1      30.917 -16.585  -5.709  0.00  0.00    -0.044 A 
ATOM     15  C   UNL d   1      30.930 -17.723  -6.422  0.00  0.00    -0.005 A 
ATOM     16  C   UNL d   1      31.154 -18.054  -7.792  0.00  0.00     0.014 A 
ATOM     17  C   UNL d   1      30.658 -18.795  -5.440  0.00  0.00     0.039 A 
ATOM     18  C   UNL d   1      31.100 -19.330  -8.189  0.00  0.00     0.001 A 
ATOM     19  C   UNL d   1      30.854 -20.399  -7.246  0.00  0.00     0.002 A 
ATOM     20  C   UNL d   1      30.646 -20.193  -5.931  0.00  0.00     0.030 A 
ATOM     21  N   UNL d   1      30.478 -18.335  -4.259  0.00  0.00    -0.381 N 
ATOM     22  C   UNL d   1      30.604 -16.854  -4.257  0.00  0.00     0.108 A 
ATOM     23  H   UNL d   1      30.306 -18.925  -3.447  0.00  0.00     0.160 HD
ATOM     24  C   UNL d   1      29.297 -16.208  -3.819  0.00  0.00     0.037 C 
ENDBRANCH  13  14
ENDBRANCH  12  13
ENDBRANCH  10  12
ENDBRANCH   8  10
BRANCH   4  25
ATOM     25  C   UNL d   1      25.448 -14.458  -2.467  0.00  0.00     0.280 C 
ATOM     26  N   UNL d   1      24.201 -15.200  -2.381  0.00  0.00    -0.357 N 
ATOM     27  C   UNL d   1      24.305 -16.311  -1.545  0.00  0.00     0.047 A 
ATOM     28  H   UNL d   1      23.341 -14.860  -2.771  0.00  0.00     0.162 HD
ATOM     29  C   UNL d   1      23.240 -17.039  -1.023  0.00  0.00     0.030 A 
ATOM     30  C   UNL d   1      25.611 -16.693  -1.206  0.00  0.00     0.030 A 
ATOM     31  C   UNL d   1      23.492 -18.173  -0.231  0.00  0.00     0.002 A 
ATOM     32  C   UNL d   1      24.807 -18.575   0.040  0.00  0.00     0.002 A 
ATOM     33  C   UNL d   1      25.878 -17.823  -0.441  0.00  0.00     0.021 A 
ATOM     34  S   UNL d   1      26.794 -15.558  -1.879  0.00  0.00    -0.079 SA
ENDBRANCH   4  25
TORSDOF 5
ENDMDL
MODEL 3
REMARK VINA RESULT:    -8.521      6.941      9.470
REMARK INTER + INTRA:         -11.509
REMARK INTER:                 -10.012
REMARK INTRA:                  -1.497
REMARK CONF_INDEPENDENT:        1.492
REMARK UNBOUND:                -1.497
REMARK  5 active torsions:
REMARK  status: ('A' for Active; 'I' for Inactive)
REMARK    1  A    between atoms: N_4  and  C_5 
REMARK    2  A    between atoms: C_17  and  N_19 
REMARK    3  A    between atoms: N_19  and  C_20 
REMARK    4  A    between atoms: C_20  and  C_21 
REMARK    5  A    between atoms: C_21  and  C_22 
ROOT
ATOM      1  C   UNL d   1      26.277 -10.770  -5.694  0.00  0.00     0.073 C 
ATOM      2  C   UNL d   1      26.290 -12.130  -5.061  0.00  0.00     0.069 C 
ATOM      3  N   UNL d   1      25.614 -12.426  -3.981  0.00  0.00    -0.171 NA
ATOM      4  N   UNL d   1      25.739 -13.823  -3.794  0.00  0.00    -0.200 N 
ATOM      5  C   UNL d   1      26.458 -14.445  -4.814  0.00  0.00     0.280 C 
ATOM      6  O   UNL d   1      26.668 -15.634  -5.035  0.00  0.00    -0.265 OA
ATOM      7  C   UNL d   1      27.019 -13.299  -5.591  0.00  0.00     0.081 C 
ATOM      8  C   UNL d   1      28.070 -13.375  -6.439  0.00  0.00     0.019 C 
ATOM      9  C   UNL d   1      28.733 -12.150  -7.061  0.00  0.00     0.069 C 
ENDROOT
BRANCH   8  10
ATOM     10  N   UNL d   1      28.682 -14.584  -6.783  0.00  0.00    -0.392 N 
ATOM     11  H   UNL d   1      28.087 -15.420  -6.734  0.00  0.00     0.159 HD
BRANCH  10  12
ATOM     12  C   UNL d   1      30.108 -14.748  -6.895  0.00  0.00     0.124 C 
BRANCH  12  13
ATOM     13  C   UNL d   1      30.704 -15.804  -5.986  0.00  0.00     0.057 C 
BRANCH  13  14
ATOM     14  C   UNL d   1      31.171 -17.012  -6.758  0.00  0.00    -0.044 A 
ATOM     15  C   UNL d   1      31.064 -18.316  -6.452  0.00  0.00    -0.005 A 
ATOM     16  C   UNL d   1      30.494 -19.057  -5.373  0.00  0.00     0.014 A 
ATOM     17  C   UNL d   1      31.702 -19.029  -7.579  0.00  0.00     0.039 A 
ATOM     18  C   UNL d   1      30.553 -20.392  -5.374  0.00  0.00     0.001 A 
ATOM     19  C   UNL d   1      31.155 -21.115  -6.473  0.00  0.00     0.002 A 
ATOM     20  C   UNL d   1      31.707 -20.510  -7.543  0.00  0.00     0.030 A 
ATOM     21  N   UNL d   1      32.165 -18.225  -8.461  0.00  0.00    -0.381 N 
ATOM     22  C   UNL d   1      31.905 -16.817  -8.062  0.00  0.00     0.108 A 
ATOM     23  H   UNL d   1      32.615 -18.533  -9.321  0.00  0.00     0.160 HD
ATOM     24  C   UNL d   1      33.216 -16.065  -7.879  0.00  0.00     0.037 C 
ENDBRANCH  13  14
ENDBRANCH  12  13
ENDBRANCH  10  12
ENDBRANCH   8  10
BRANCH   4  25
ATOM     25  C   UNL d   1      25.470 -14.408  -2.480  0.00  0.00     0.280 C 
ATOM     26  N   UNL d   1      24.225 -15.154  -2.395  0.00  0.00    -0.357 N 
ATOM     27  C   UNL d   1      24.339 -16.280  -1.581  0.00  0.00     0.047 A 
ATOM     28  H   UNL d   1      23.361 -14.808  -2.771  0.00  0.00     0.162 HD
ATOM     29  C   UNL d   1      23.280 -17.018  -1.062  0.00  0.00     0.030 A 
ATOM     30  C   UNL d   1      25.649 -16.665  -1.262  0.00  0.00     0.030 A 
ATOM     31  C   UNL d   1      23.542 -18.166  -0.293  0.00  0.00     0.002 A 
ATOM     32  C   UNL d   1      24.859 -18.571  -0.042  0.00  0.00     0.002 A 
ATOM     33  C   UNL d   1      25.925 -17.809  -0.520  0.00  0.00     0.021 A 
ATOM     34  S   UNL d   1      26.823 -15.516  -1.926  0.00  0.00    -0.079 SA
ENDBRANCH   4  25
TORSDOF 5
ENDMDL
MODEL 4
REMARK VINA RESULT:    -7.885      6.118      8.078
REMARK INTER + INTRA:         -12.319
REMARK INTER:                  -9.377
REMARK INTRA:                  -2.942
REMARK CONF_INDEPENDENT:        1.492
REMARK UNBOUND:                -2.942
REMARK  5 active torsions:
REMARK  status: ('A' for Active; 'I' for Inactive)
REMARK    1  A    between atoms: N_4  and  C_5 
REMARK    2  A    between atoms: C_17  and  N_19 
REMARK    3  A    between atoms: N_19  and  C_20 
REMARK    4  A    between atoms: C_20  and  C_21 
REMARK    5  A    between atoms: C_21  and  C_22 
ROOT
ATOM      1  C   UNL d   1      31.380 -18.524  -1.899  0.00  0.00     0.073 C 
ATOM      2  C   UNL d   1      30.157 -17.668  -1.745  0.00  0.00     0.069 C 
ATOM      3  N   UNL d   1      29.316 -17.789  -0.751  0.00  0.00    -0.171 NA
ATOM      4  N   UNL d   1      28.404 -16.712  -0.857  0.00  0.00    -0.200 N 
ATOM      5  C   UNL d   1      28.707 -15.846  -1.906  0.00  0.00     0.280 C 
ATOM      6  O   UNL d   1      28.210 -14.770  -2.225  0.00  0.00    -0.265 OA
ATOM      7  C   UNL d   1      29.777 -16.571  -2.656  0.00  0.00     0.081 C 
ATOM      8  C   UNL d   1      30.133 -16.321  -3.937  0.00  0.00     0.019 C 
ATOM      9  C   UNL d   1      31.090 -17.209  -4.727  0.00  0.00     0.069 C 
ENDROOT
BRANCH   8  10
ATOM     10  N   UNL d   1      29.614 -15.254  -4.676  0.00  0.00    -0.392 N 
ATOM     11  H   UNL d   1      28.797 -14.781  -4.271  0.00  0.00     0.159 HD
BRANCH  10  12
ATOM     12  C   UNL d   1      29.957 -15.001  -6.051  0.00  0.00     0.124 C 
BRANCH  12  13
ATOM     13  C   UNL d   1      28.831 -14.444  -6.899  0.00  0.00     0.057 C 
BRANCH  13  14
ATOM     14  C   UNL d   1      27.888 -13.588  -6.091  0.00  0.00    -0.044 A 
ATOM     15  C   UNL d   1      26.960 -13.953  -5.191  0.00  0.00    -0.005 A 
ATOM     16  C   UNL d   1      26.520 -15.195  -4.641  0.00  0.00     0.014 A 
ATOM     17  C   UNL d   1      26.349 -12.687  -4.733  0.00  0.00     0.039 A 
ATOM     18  C   UNL d   1      25.545 -15.212  -3.726  0.00  0.00     0.001 A 
ATOM     19  C   UNL d   1      24.943 -13.987  -3.248  0.00  0.00     0.002 A 
ATOM     20  C   UNL d   1      25.297 -12.765  -3.693  0.00  0.00     0.030 A 
ATOM     21  N   UNL d   1      26.850 -11.667  -5.323  0.00  0.00    -0.381 N 
ATOM     22  C   UNL d   1      27.899 -12.092  -6.286  0.00  0.00     0.108 A 
ATOM     23  H   UNL d   1      26.574 -10.708  -5.118  0.00  0.00     0.160 HD
ATOM     24  C   UNL d   1      27.513 -11.692  -7.704  0.00  0.00     0.037 C 
ENDBRANCH  13  14
ENDBRANCH  12  13
ENDBRANCH  10  12
ENDBRANCH   8  10
BRANCH   4  25
ATOM     25  C   UNL d   1      27.112 -16.784  -0.174  0.00  0.00     0.280 C 
ATOM     26  N   UNL d   1      26.021 -16.129  -0.876  0.00  0.00    -0.357 N 
ATOM     27  C   UNL d   1      24.817 -16.818  -0.741  0.00  0.00     0.047 A 
ATOM     28  H   UNL d   1      26.112 -15.217  -1.287  0.00  0.00     0.162 HD
ATOM     29  C   UNL d   1      23.553 -16.311  -1.030  0.00  0.00     0.030 A 
ATOM     30  C   UNL d   1      24.921 -18.128  -0.253  0.00  0.00     0.030 A 
ATOM     31  C   UNL d   1      22.424 -17.137  -0.895  0.00  0.00     0.002 A 
ATOM     32  C   UNL d   1      22.559 -18.465  -0.468  0.00  0.00     0.002 A 
ATOM     33  C   UNL d   1      23.817 -18.964  -0.132  0.00  0.00     0.021 A 
ATOM     34  S   UNL d   1      26.601 -18.514   0.160  0.00  0.00    -0.079 SA
ENDBRANCH   4  25
TORSDOF 5
ENDMDL
MODEL 5
REMARK VINA RESULT:    -7.812      2.422      8.767
REMARK INTER + INTRA:         -11.387
REMARK INTER:                  -9.304
REMARK INTRA:                  -2.084
REMARK CONF_INDEPENDENT:        1.492
REMARK UNBOUND:                -2.084
REMARK  5 active torsions:
REMARK  status: ('A' for Active; 'I' for Inactive)
REMARK    1  A    between atoms: N_4  and  C_5 
REMARK    2  A    between atoms: C_17  and  N_19 
REMARK    3  A    between atoms: N_19  and  C_20 
REMARK    4  A    between atoms: C_20  and  C_21 
REMARK    5  A    between atoms: C_21  and  C_22 
ROOT
ATOM      1  C   UNL d   1      29.074 -11.596  -0.985  0.00  0.00     0.073 C 
ATOM      2  C   UNL d   1      28.715 -13.040  -0.794  0.00  0.00     0.069 C 
ATOM      3  N   UNL d   1      27.918 -13.695  -1.597  0.00  0.00    -0.171 NA
ATOM      4  N   UNL d   1      27.960 -15.051  -1.196  0.00  0.00    -0.200 N 
ATOM      5  C   UNL d   1      28.855 -15.280  -0.152  0.00  0.00     0.280 C 
ATOM      6  O   UNL d   1      29.225 -16.328   0.370  0.00  0.00    -0.265 OA
ATOM      7  C   UNL d   1      29.241 -13.904   0.282  0.00  0.00     0.081 C 
ATOM      8  C   UNL d   1      29.789 -13.591   1.478  0.00  0.00     0.019 C 
ATOM      9  C   UNL d   1      29.988 -12.156   1.958  0.00  0.00     0.069 C 
ENDROOT
BRANCH   8  10
ATOM     10  N   UNL d   1      30.176 -14.557   2.412  0.00  0.00    -0.392 N 
ATOM     11  H   UNL d   1      29.862 -15.517   2.224  0.00  0.00     0.159 HD
BRANCH  10  12
ATOM     12  C   UNL d   1      30.698 -14.236   3.715  0.00  0.00     0.124 C 
BRANCH  12  13
ATOM     13  C   UNL d   1      29.947 -14.855   4.876  0.00  0.00     0.057 C 
BRANCH  13  14
ATOM     14  C   UNL d   1      29.251 -13.814   5.716  0.00  0.00    -0.044 A 
ATOM     15  C   UNL d   1      29.379 -13.548   7.027  0.00  0.00    -0.005 A 
ATOM     16  C   UNL d   1      30.174 -14.072   8.091  0.00  0.00     0.014 A 
ATOM     17  C   UNL d   1      28.448 -12.429   7.285  0.00  0.00     0.039 A 
ATOM     18  C   UNL d   1      30.061 -13.562   9.322  0.00  0.00     0.001 A 
ATOM     19  C   UNL d   1      29.172 -12.456   9.598  0.00  0.00     0.002 A 
ATOM     20  C   UNL d   1      28.392 -11.882   8.660  0.00  0.00     0.030 A 
ATOM     21  N   UNL d   1      27.809 -12.078   6.232  0.00  0.00    -0.381 N 
ATOM     22  C   UNL d   1      28.219 -12.919   5.076  0.00  0.00     0.108 A 
ATOM     23  H   UNL d   1      27.144 -11.307   6.210  0.00  0.00     0.160 HD
ATOM     24  C   UNL d   1      27.028 -13.702   4.539  0.00  0.00     0.037 C 
ENDBRANCH  13  14
ENDBRANCH  12  13
ENDBRANCH  10  12
ENDBRANCH   8  10
BRANCH   4  25
ATOM     25  C   UNL d   1      26.887 -15.962  -1.597  0.00  0.00     0.280 C 
ATOM     26  N   UNL d   1      26.609 -17.023  -0.644  0.00  0.00    -0.357 N 
ATOM     27  C   UNL d   1      25.249 -17.320  -0.567  0.00  0.00     0.047 A 
ATOM     28  H   UNL d   1      27.335 -17.562  -0.207  0.00  0.00     0.162 HD
ATOM     29  C   UNL d   1      24.697 -18.460   0.010  0.00  0.00     0.030 A 
ATOM     30  C   UNL d   1      24.390 -16.375  -1.145  0.00  0.00     0.030 A 
ATOM     31  C   UNL d   1      23.300 -18.607   0.063  0.00  0.00     0.002 A 
ATOM     32  C   UNL d   1      22.458 -17.618  -0.463  0.00  0.00     0.002 A 
ATOM     33  C   UNL d   1      23.006 -16.496  -1.084  0.00  0.00     0.021 A 
ATOM     34  S   UNL d   1      25.313 -15.077  -1.922  0.00  0.00    -0.079 SA
ENDBRANCH   4  25
TORSDOF 5
ENDMDL
MODEL 6
REMARK VINA RESULT:    -7.733      6.980      8.913
REMARK INTER + INTRA:         -11.767
REMARK INTER:                  -9.224
REMARK INTRA:                  -2.543
REMARK CONF_INDEPENDENT:        1.492
REMARK UNBOUND:                -2.543
REMARK  5 active torsions:
REMARK  status: ('A' for Active; 'I' for Inactive)
REMARK    1  A    between atoms: N_4  and  C_5 
REMARK    2  A    between atoms: C_17  and  N_19 
REMARK    3  A    between atoms: N_19  and  C_20 
REMARK    4  A    between atoms: C_20  and  C_21 
REMARK    5  A    between atoms: C_21  and  C_22 
ROOT
ATOM      1  C   UNL d   1      25.960 -10.876  -6.020  0.00  0.00     0.073 C 
ATOM      2  C   UNL d   1      26.150 -12.183  -5.309  0.00  0.00     0.069 C 
ATOM      3  N   UNL d   1      25.503 -12.508  -4.219  0.00  0.00    -0.171 NA
ATOM      4  N   UNL d   1      25.816 -13.861  -3.949  0.00  0.00    -0.200 N 
ATOM      5  C   UNL d   1      26.630 -14.435  -4.925  0.00  0.00     0.280 C 
ATOM      6  O   UNL d   1      27.006 -15.593  -5.074  0.00  0.00    -0.265 OA
ATOM      7  C   UNL d   1      27.041 -13.268  -5.763  0.00  0.00     0.081 C 
ATOM      8  C   UNL d   1      28.106 -13.246  -6.596  0.00  0.00     0.019 C 
ATOM      9  C   UNL d   1      28.605 -11.979  -7.284  0.00  0.00     0.069 C 
ENDROOT
BRANCH   8  10
ATOM     10  N   UNL d   1      28.885 -14.377  -6.864  0.00  0.00    -0.392 N 
ATOM     11  H   UNL d   1      28.474 -15.280  -6.597  0.00  0.00     0.159 HD
BRANCH  10  12
ATOM     12  C   UNL d   1      30.286 -14.315  -7.190  0.00  0.00     0.124 C 
BRANCH  12  13
ATOM     13  C   UNL d   1      30.984 -15.658  -7.265  0.00  0.00     0.057 C 
BRANCH  13  14
ATOM     14  C   UNL d   1      30.640 -16.538  -6.090  0.00  0.00    -0.044 A 
ATOM     15  C   UNL d   1      30.519 -16.221  -4.790  0.00  0.00    -0.005 A 
ATOM     16  C   UNL d   1      30.631 -15.018  -4.029  0.00  0.00     0.014 A 
ATOM     17  C   UNL d   1      30.170 -17.489  -4.115  0.00  0.00     0.039 A 
ATOM     18  C   UNL d   1      30.438 -15.044  -2.707  0.00  0.00     0.001 A 
ATOM     19  C   UNL d   1      30.078 -16.267  -2.024  0.00  0.00     0.002 A 
ATOM     20  C   UNL d   1      29.933 -17.450  -2.653  0.00  0.00     0.030 A 
ATOM     21  N   UNL d   1      30.111 -18.473  -4.933  0.00  0.00    -0.381 N 
ATOM     22  C   UNL d   1      30.414 -18.013  -6.314  0.00  0.00     0.108 A 
ATOM     23  H   UNL d   1      29.858 -19.419  -4.656  0.00  0.00     0.160 HD
ATOM     24  C   UNL d   1      31.658 -18.713  -6.847  0.00  0.00     0.037 C 
ENDBRANCH  13  14
ENDBRANCH  12  13
ENDBRANCH  10  12
ENDBRANCH   8  10
BRANCH   4  25
ATOM     25  C   UNL d   1      25.608 -14.402  -2.606  0.00  0.00     0.280 C 
ATOM     26  N   UNL d   1      24.301 -15.001  -2.392  0.00  0.00    -0.357 N 
ATOM     27  C   UNL d   1      24.364 -16.127  -1.572  0.00  0.00     0.047 A 
ATOM     28  H   UNL d   1      23.449 -14.562  -2.691  0.00  0.00     0.162 HD
ATOM     29  C   UNL d   1      23.283 -16.736  -0.943  0.00  0.00     0.030 A 
ATOM     30  C   UNL d   1      25.646 -16.657  -1.370  0.00  0.00     0.030 A 
ATOM     31  C   UNL d   1      23.485 -17.900  -0.182  0.00  0.00     0.002 A 
ATOM     32  C   UNL d   1      24.766 -18.451  -0.048  0.00  0.00     0.002 A 
ATOM     33  C   UNL d   1      25.861 -17.818  -0.636  0.00  0.00     0.021 A 
ATOM     34  S   UNL d   1      26.875 -15.653  -2.161  0.00  0.00    -0.079 SA
ENDBRANCH   4  25
TORSDOF 5
ENDMDL
MODEL 7
REMARK VINA RESULT:    -7.719      2.813      8.270
REMARK INTER + INTRA:         -11.406
REMARK INTER:                  -9.211
REMARK INTRA:                  -2.195
REMARK CONF_INDEPENDENT:        1.492
REMARK UNBOUND:                -2.195
REMARK  5 active torsions:
REMARK  status: ('A' for Active; 'I' for Inactive)
REMARK    1  A    between atoms: N_4  and  C_5 
REMARK    2  A    between atoms: C_17  and  N_19 
REMARK    3  A    between atoms: N_19  and  C_20 
REMARK    4  A    between atoms: C_20  and  C_21 
REMARK    5  A    between atoms: C_21  and  C_22 
ROOT
ATOM      1  C   UNL d   1      26.153  -9.984  -3.031  0.00  0.00     0.073 C 
ATOM      2  C   UNL d   1      26.603 -11.312  -2.498  0.00  0.00     0.069 C 
ATOM      3  N   UNL d   1      26.281 -12.454  -3.049  0.00  0.00    -0.171 NA
ATOM      4  N   UNL d   1      27.023 -13.454  -2.376  0.00  0.00    -0.200 N 
ATOM      5  C   UNL d   1      27.888 -12.933  -1.415  0.00  0.00     0.280 C 
ATOM      6  O   UNL d   1      28.745 -13.481  -0.728  0.00  0.00    -0.265 OA
ATOM      7  C   UNL d   1      27.487 -11.496  -1.330  0.00  0.00     0.081 C 
ATOM      8  C   UNL d   1      27.770 -10.670  -0.297  0.00  0.00     0.019 C 
ATOM      9  C   UNL d   1      27.178  -9.270  -0.159  0.00  0.00     0.069 C 
ENDROOT
BRANCH   8  10
ATOM     10  N   UNL d   1      28.592 -11.043   0.771  0.00  0.00    -0.392 N 
ATOM     11  H   UNL d   1      29.383 -11.655   0.538  0.00  0.00     0.159 HD
BRANCH  10  12
ATOM     12  C   UNL d   1      28.222 -10.875   2.152  0.00  0.00     0.124 C 
BRANCH  12  13
ATOM     13  C   UNL d   1      27.118 -11.794   2.635  0.00  0.00     0.057 C 
BRANCH  13  14
ATOM     14  C   UNL d   1      27.639 -12.859   3.567  0.00  0.00    -0.044 A 
ATOM     15  C   UNL d   1      28.036 -12.757   4.846  0.00  0.00    -0.005 A 
ATOM     16  C   UNL d   1      28.108 -11.696   5.800  0.00  0.00     0.014 A 
ATOM     17  C   UNL d   1      28.444 -14.124   5.233  0.00  0.00     0.039 A 
ATOM     18  C   UNL d   1      28.560 -11.938   7.034  0.00  0.00     0.001 A 
ATOM     19  C   UNL d   1      28.948 -13.269   7.445  0.00  0.00     0.002 A 
ATOM     20  C   UNL d   1      28.903 -14.338   6.625  0.00  0.00     0.030 A 
ATOM     21  N   UNL d   1      28.323 -14.957   4.269  0.00  0.00    -0.381 N 
ATOM     22  C   UNL d   1      27.802 -14.270   3.057  0.00  0.00     0.108 A 
ATOM     23  H   UNL d   1      28.529 -15.950   4.355  0.00  0.00     0.160 HD
ATOM     24  C   UNL d   1      28.810 -14.360   1.919  0.00  0.00     0.037 C 
ENDBRANCH  13  14
ENDBRANCH  12  13
ENDBRANCH  10  12
ENDBRANCH   8  10
BRANCH   4  25
ATOM     25  C   UNL d   1      26.595 -14.851  -2.451  0.00  0.00     0.280 C 
ATOM     26  N   UNL d   1      26.970 -15.659  -1.302  0.00  0.00    -0.357 N 
ATOM     27  C   UNL d   1      25.988 -16.592  -0.970  0.00  0.00     0.047 A 
ATOM     28  H   UNL d   1      27.888 -15.630  -0.896  0.00  0.00     0.162 HD
ATOM     29  C   UNL d   1      26.159 -17.690  -0.133  0.00  0.00     0.030 A 
ATOM     30  C   UNL d   1      24.733 -16.385  -1.561  0.00  0.00     0.030 A 
ATOM     31  C   UNL d   1      25.065 -18.523   0.155  0.00  0.00     0.002 A 
ATOM     32  C   UNL d   1      23.803 -18.260  -0.394  0.00  0.00     0.002 A 
ATOM     33  C   UNL d   1      23.636 -17.188  -1.270  0.00  0.00     0.021 A 
ATOM     34  S   UNL d   1      24.781 -15.008  -2.676  0.00  0.00    -0.079 SA
ENDBRANCH   4  25
TORSDOF 5
ENDMDL
MODEL 8
REMARK VINA RESULT:    -7.215      5.942      8.304
REMARK INTER + INTRA:         -11.317
REMARK INTER:                  -8.706
REMARK INTRA:                  -2.610
REMARK CONF_INDEPENDENT:        1.492
REMARK UNBOUND:                -2.610
REMARK  5 active torsions:
REMARK  status: ('A' for Active; 'I' for Inactive)
REMARK    1  A    between atoms: N_4  and  C_5 
REMARK    2  A    between atoms: C_17  and  N_19 
REMARK    3  A    between atoms: N_19  and  C_20 
REMARK    4  A    between atoms: C_20  and  C_21 
REMARK    5  A    between atoms: C_21  and  C_22 
ROOT
ATOM      1  C   UNL d   1      31.166 -17.841  -1.560  0.00  0.00     0.073 C 
ATOM      2  C   UNL d   1      29.863 -17.117  -1.390  0.00  0.00     0.069 C 
ATOM      3  N   UNL d   1      28.994 -17.410  -0.458  0.00  0.00    -0.171 NA
ATOM      4  N   UNL d   1      27.991 -16.414  -0.509  0.00  0.00    -0.200 N 
ATOM      5  C   UNL d   1      28.257 -15.423  -1.454  0.00  0.00     0.280 C 
ATOM      6  O   UNL d   1      27.677 -14.370  -1.695  0.00  0.00    -0.265 OA
ATOM      7  C   UNL d   1      29.423 -15.972  -2.212  0.00  0.00     0.081 C 
ATOM      8  C   UNL d   1      29.810 -15.567  -3.442  0.00  0.00     0.019 C 
ATOM      9  C   UNL d   1      30.880 -16.283  -4.261  0.00  0.00     0.069 C 
ENDROOT
BRANCH   8  10
ATOM     10  N   UNL d   1      29.227 -14.481  -4.103  0.00  0.00    -0.392 N 
ATOM     11  H   UNL d   1      28.509 -13.967  -3.578  0.00  0.00     0.159 HD
BRANCH  10  12
ATOM     12  C   UNL d   1      29.352 -14.255  -5.519  0.00  0.00     0.124 C 
BRANCH  12  13
ATOM     13  C   UNL d   1      28.041 -14.075  -6.257  0.00  0.00     0.057 C 
BRANCH  13  14
ATOM     14  C   UNL d   1      27.075 -13.211  -5.485  0.00  0.00    -0.044 A 
ATOM     15  C   UNL d   1      27.195 -11.932  -5.095  0.00  0.00    -0.005 A 
ATOM     16  C   UNL d   1      28.190 -10.919  -5.246  0.00  0.00     0.014 A 
ATOM     17  C   UNL d   1      25.939 -11.629  -4.376  0.00  0.00     0.039 A 
ATOM     18  C   UNL d   1      27.991  -9.704  -4.724  0.00  0.00     0.001 A 
ATOM     19  C   UNL d   1      26.764  -9.376  -4.033  0.00  0.00     0.002 A 
ATOM     20  C   UNL d   1      25.760 -10.256  -3.849  0.00  0.00     0.030 A 
ATOM     21  N   UNL d   1      25.155 -12.639  -4.325  0.00  0.00    -0.381 N 
ATOM     22  C   UNL d   1      25.769 -13.804  -5.015  0.00  0.00     0.108 A 
ATOM     23  H   UNL d   1      24.233 -12.614  -3.894  0.00  0.00     0.160 HD
ATOM     24  C   UNL d   1      25.976 -14.954  -4.038  0.00  0.00     0.037 C 
ENDBRANCH  13  14
ENDBRANCH  12  13
ENDBRANCH  10  12
ENDBRANCH   8  10
BRANCH   4  25
ATOM     25  C   UNL d   1      26.682 -16.667   0.094  0.00  0.00     0.280 C 
ATOM     26  N   UNL d   1      25.574 -15.998  -0.566  0.00  0.00    -0.357 N 
ATOM     27  C   UNL d   1      24.419 -16.781  -0.583  0.00  0.00     0.047 A 
ATOM     28  H   UNL d   1      25.612 -15.034  -0.846  0.00  0.00     0.162 HD
ATOM     29  C   UNL d   1      23.134 -16.327  -0.863  0.00  0.00     0.030 A 
ATOM     30  C   UNL d   1      24.603 -18.135  -0.271  0.00  0.00     0.030 A 
ATOM     31  C   UNL d   1      22.065 -17.240  -0.895  0.00  0.00     0.002 A 
ATOM     32  C   UNL d   1      22.282 -18.601  -0.644  0.00  0.00     0.002 A 
ATOM     33  C   UNL d   1      23.560 -19.054  -0.317  0.00  0.00     0.021 A 
ATOM     34  S   UNL d   1      26.289 -18.457   0.168  0.00  0.00    -0.079 SA
ENDBRANCH   4  25
TORSDOF 5
ENDMDL
MODEL 9
REMARK VINA RESULT:    -6.843      5.683     10.409
REMARK INTER + INTRA:         -11.252
REMARK INTER:                  -8.334
REMARK INTRA:                  -2.917
REMARK CONF_INDEPENDENT:        1.492
REMARK UNBOUND:                -2.917
REMARK  5 active torsions:
REMARK  status: ('A' for Active; 'I' for Inactive)
REMARK    1  A    between atoms: N_4  and  C_5 
REMARK    2  A    between atoms: C_17  and  N_19 
REMARK    3  A    between atoms: N_19  and  C_20 
REMARK    4  A    between atoms: C_20  and  C_21 
REMARK    5  A    between atoms: C_21  and  C_22 
ROOT
ATOM      1  C   UNL d   1      27.429 -12.715  -5.559  0.00  0.00     0.073 C 
ATOM      2  C   UNL d   1      28.069 -14.002  -5.130  0.00  0.00     0.069 C 
ATOM      3  N   UNL d   1      29.225 -14.416  -5.583  0.00  0.00    -0.171 NA
ATOM      4  N   UNL d   1      29.570 -15.562  -4.829  0.00  0.00    -0.200 N 
ATOM      5  C   UNL d   1      28.644 -15.852  -3.827  0.00  0.00     0.280 C 
ATOM      6  O   UNL d   1      28.671 -16.689  -2.930  0.00  0.00    -0.265 OA
ATOM      7  C   UNL d   1      27.508 -14.930  -4.128  0.00  0.00     0.081 C 
ATOM      8  C   UNL d   1      26.242 -15.084  -3.678  0.00  0.00     0.019 C 
ATOM      9  C   UNL d   1      25.072 -14.234  -4.164  0.00  0.00     0.069 C 
ENDROOT
BRANCH   8  10
ATOM     10  N   UNL d   1      25.877 -16.074  -2.760  0.00  0.00    -0.392 N 
ATOM     11  H   UNL d   1      26.421 -16.944  -2.798  0.00  0.00     0.159 HD
BRANCH  10  12
ATOM     12  C   UNL d   1      24.643 -16.052  -2.020  0.00  0.00     0.124 C 
BRANCH  12  13
ATOM     13  C   UNL d   1      24.801 -16.011  -0.514  0.00  0.00     0.057 C 
BRANCH  13  14
ATOM     14  C   UNL d   1      26.210 -15.660  -0.105  0.00  0.00    -0.044 A 
ATOM     15  C   UNL d   1      26.916 -14.542  -0.342  0.00  0.00    -0.005 A 
ATOM     16  C   UNL d   1      26.655 -13.304  -1.002  0.00  0.00     0.014 A 
ATOM     17  C   UNL d   1      28.229 -14.774   0.298  0.00  0.00     0.039 A 
ATOM     18  C   UNL d   1      27.604 -12.363  -1.057  0.00  0.00     0.001 A 
ATOM     19  C   UNL d   1      28.890 -12.557  -0.425  0.00  0.00     0.002 A 
ATOM     20  C   UNL d   1      29.228 -13.682   0.235  0.00  0.00     0.030 A 
ATOM     21  N   UNL d   1      28.305 -15.929   0.843  0.00  0.00    -0.381 N 
ATOM     22  C   UNL d   1      27.030 -16.672   0.657  0.00  0.00     0.108 A 
ATOM     23  H   UNL d   1      29.122 -16.256   1.355  0.00  0.00     0.160 HD
ATOM     24  C   UNL d   1      27.268 -17.944  -0.146  0.00  0.00     0.037 C 
ENDBRANCH  13  14
ENDBRANCH  12  13
ENDBRANCH  10  12
ENDBRANCH   8  10
BRANCH   4  25
ATOM     25  C   UNL d   1      30.568 -16.500  -5.345  0.00  0.00     0.280 C 
ATOM     26  N   UNL d   1      30.334 -17.888  -4.986  0.00  0.00    -0.357 N 
ATOM     27  C   UNL d   1      30.681 -18.765  -6.014  0.00  0.00     0.047 A 
ATOM     28  H   UNL d   1      30.085 -18.173  -4.056  0.00  0.00     0.162 HD
ATOM     29  C   UNL d   1      30.859 -20.139  -5.885  0.00  0.00     0.030 A 
ATOM     30  C   UNL d   1      30.877 -18.175  -7.271  0.00  0.00     0.030 A 
ATOM     31  C   UNL d   1      31.160 -20.911  -7.020  0.00  0.00     0.002 A 
ATOM     32  C   UNL d   1      31.286 -20.310  -8.279  0.00  0.00     0.002 A 
ATOM     33  C   UNL d   1      31.155 -18.927  -8.407  0.00  0.00     0.021 A 
ATOM     34  S   UNL d   1      30.718 -16.413  -7.172  0.00  0.00    -0.079 SA
ENDBRANCH   4  25
TORSDOF 5
ENDMDL
