MODEL 1
REMARK VINA RESULT:   -32.559      0.000      0.000
REMARK INTER + INTRA:         -34.257
REMARK INTER:                 -34.051
REMARK INTRA:                  -0.206
REMARK CONF_INDEPENDENT:        1.492
REMARK UNBOUND:                -0.206
REMARK  5 active torsions:
REMARK  status: ('A' for Active; 'I' for Inactive)
REMARK    1  A    between atoms: N_1  and  C_2 
REMARK    2  A    between atoms: C_4  and  S_5 
REMARK    3  A    between atoms: S_5  and  C_6 
REMARK    4  A    between atoms: C_6  and  C_7 
REMARK       I    between atoms: C_7  and  N_9 
REMARK    5  A    between atoms: C_13  and  C_14 
ROOT
ATOM      1  C   UNL d   1      23.666 -16.935  -0.525  0.00  0.00     0.230 C 
ATOM      2  O   UNL d   1      23.467 -15.949  -1.247  0.00  0.00    -0.273 OA
ATOM      3  N   UNL d   1      24.969 -17.264  -0.171  0.00  0.00    -0.343 N 
ATOM      4  C   UNL d   1      25.519 -18.563   0.161  0.00  0.00     0.127 C 
ATOM      5  C   UNL d   1      26.744 -18.228   1.000  0.00  0.00     0.022 C 
ATOM      6  C   UNL d   1      27.290 -16.954   0.353  0.00  0.00     0.032 C 
ATOM      7  C   UNL d   1      26.061 -16.284  -0.297  0.00  0.00     0.120 C 
ENDROOT
BRANCH   1   8
ATOM      8  C   UNL d   1      22.482 -17.724   0.096  0.00  0.00     0.185 C 
BRANCH   8   9
ATOM      9  S   UNL d   1      22.269 -19.308  -0.805  0.00  0.00    -0.079 SA
BRANCH   9  10
ATOM     10  C   UNL d   1      20.633 -19.828  -0.519  0.00  0.00     0.226 A 
ATOM     11  N   UNL d   1      20.232 -20.744   0.417  0.00  0.00    -0.035 NA
ATOM     12  C   UNL d   1      18.934 -20.811   0.236  0.00  0.00     0.716 A 
ATOM     13  N   UNL d   1      18.575 -19.963  -0.774  0.00  0.00    -0.105 N 
ATOM     14  N   UNL d   1      19.643 -19.325  -1.270  0.00  0.00    -0.132 NA
ATOM     15  H   UNL d   1      17.655 -19.787  -1.159  0.00  0.00     0.208 HD
BRANCH  12  16
ATOM     16  N   UNL d   1      18.038 -21.564   0.885  0.00  0.00    -0.231 N 
ATOM     17  H   UNL d   1      17.565 -22.307   0.379  0.00  0.00     0.174 HD
ATOM     18  H   UNL d   1      17.848 -21.524   1.879  0.00  0.00     0.174 HD
ENDBRANCH  12  16
ENDBRANCH   9  10
ENDBRANCH   8   9
ENDBRANCH   1   8
BRANCH   7  19
ATOM     19  C   UNL d   1      26.347 -15.855  -1.727  0.00  0.00    -0.033 A 
ATOM     20  C   UNL d   1      27.510 -16.324  -2.357  0.00  0.00     0.012 A 
ATOM     21  C   UNL d   1      27.829 -15.913  -3.649  0.00  0.00     0.040 A 
ATOM     22  C   UNL d   1      27.021 -14.987  -4.302  0.00  0.00     0.102 A 
ATOM     23  C   UNL d   1      25.872 -14.487  -3.692  0.00  0.00     0.102 A 
ATOM     24  O   UNL d   1      27.396 -14.616  -5.564  0.00  0.00    -0.348 OA
ATOM     25  C   UNL d   1      25.510 -14.962  -2.429  0.00  0.00     0.049 A 
ATOM     26  O   UNL d   1      25.048 -13.581  -4.310  0.00  0.00    -0.348 OA
ATOM     27  C   UNL d   1      25.697 -12.324  -4.559  0.00  0.00     0.178 C 
ATOM     28  C   UNL d   1      26.625 -12.328  -5.772  0.00  0.00     0.053 C 
ATOM     29  C   UNL d   1      27.810 -13.251  -5.556  0.00  0.00     0.178 C 
ENDBRANCH   7  19
TORSDOF 5
ENDMDL
MODEL 2
REMARK VINA RESULT:   -31.932      1.253      1.585
REMARK INTER + INTRA:         -33.764
REMARK INTER:                 -33.424
REMARK INTRA:                  -0.340
REMARK CONF_INDEPENDENT:        1.492
REMARK UNBOUND:                -0.340
REMARK  5 active torsions:
REMARK  status: ('A' for Active; 'I' for Inactive)
REMARK    1  A    between atoms: N_1  and  C_2 
REMARK    2  A    between atoms: C_4  and  S_5 
REMARK    3  A    between atoms: S_5  and  C_6 
REMARK    4  A    between atoms: C_6  and  C_7 
REMARK       I    between atoms: C_7  and  N_9 
REMARK    5  A    between atoms: C_13  and  C_14 
ROOT
ATOM      1  C   UNL d   1      23.408 -16.554  -0.924  0.00  0.00     0.230 C 
ATOM      2  O   UNL d   1      23.285 -15.551  -1.638  0.00  0.00    -0.273 OA
ATOM      3  N   UNL d   1      24.679 -16.957  -0.534  0.00  0.00    -0.343 N 
ATOM      4  C   UNL d   1      25.148 -18.288  -0.201  0.00  0.00     0.127 C 
ATOM      5  C   UNL d   1      26.361 -18.029   0.680  0.00  0.00     0.022 C 
ATOM      6  C   UNL d   1      26.995 -16.780   0.067  0.00  0.00     0.032 C 
ATOM      7  C   UNL d   1      25.826 -16.037  -0.613  0.00  0.00     0.120 C 
ENDROOT
BRANCH   1   8
ATOM      8  C   UNL d   1      22.163 -17.284  -0.349  0.00  0.00     0.185 C 
BRANCH   8   9
ATOM      9  S   UNL d   1      22.212 -19.049  -0.847  0.00  0.00    -0.079 SA
BRANCH   9  10
ATOM     10  C   UNL d   1      20.635 -19.705  -0.515  0.00  0.00     0.226 A 
ATOM     11  N   UNL d   1      20.331 -20.615   0.462  0.00  0.00    -0.035 NA
ATOM     12  C   UNL d   1      19.043 -20.807   0.305  0.00  0.00     0.716 A 
ATOM     13  N   UNL d   1      18.594 -20.038  -0.732  0.00  0.00    -0.105 N 
ATOM     14  N   UNL d   1      19.594 -19.325  -1.270  0.00  0.00    -0.132 NA
ATOM     15  H   UNL d   1      17.658 -19.963  -1.110  0.00  0.00     0.208 HD
BRANCH  12  16
ATOM     16  N   UNL d   1      18.228 -21.612   0.997  0.00  0.00    -0.231 N 
ATOM     17  H   UNL d   1      18.069 -21.420   1.981  0.00  0.00     0.174 HD
ATOM     18  H   UNL d   1      17.669 -22.360   0.602  0.00  0.00     0.174 HD
ENDBRANCH  12  16
ENDBRANCH   9  10
ENDBRANCH   8   9
ENDBRANCH   1   8
BRANCH   7  19
ATOM     19  C   UNL d   1      26.179 -15.608  -2.028  0.00  0.00    -0.033 A 
ATOM     20  C   UNL d   1      25.556 -16.253  -3.108  0.00  0.00     0.012 A 
ATOM     21  C   UNL d   1      25.891 -15.922  -4.418  0.00  0.00     0.040 A 
ATOM     22  C   UNL d   1      26.892 -14.985  -4.662  0.00  0.00     0.102 A 
ATOM     23  C   UNL d   1      27.544 -14.346  -3.610  0.00  0.00     0.102 A 
ATOM     24  O   UNL d   1      27.181 -14.714  -5.972  0.00  0.00    -0.348 OA
ATOM     25  C   UNL d   1      27.149 -14.620  -2.298  0.00  0.00     0.049 A 
ATOM     26  O   UNL d   1      28.527 -13.411  -3.815  0.00  0.00    -0.348 OA
ATOM     27  C   UNL d   1      29.688 -13.963  -4.456  0.00  0.00     0.178 C 
ATOM     28  C   UNL d   1      29.540 -14.157  -5.963  0.00  0.00     0.053 C 
ATOM     29  C   UNL d   1      28.484 -15.201  -6.283  0.00  0.00     0.178 C 
ENDBRANCH   7  19
TORSDOF 5
ENDMDL
MODEL 3
REMARK VINA RESULT:   -30.781      1.470      2.059
REMARK INTER + INTRA:         -32.789
REMARK INTER:                 -32.273
REMARK INTRA:                  -0.516
REMARK CONF_INDEPENDENT:        1.492
REMARK UNBOUND:                -0.516
REMARK  5 active torsions:
REMARK  status: ('A' for Active; 'I' for Inactive)
REMARK    1  A    between atoms: N_1  and  C_2 
REMARK    2  A    between atoms: C_4  and  S_5 
REMARK    3  A    between atoms: S_5  and  C_6 
REMARK    4  A    between atoms: C_6  and  C_7 
REMARK       I    between atoms: C_7  and  N_9 
REMARK    5  A    between atoms: C_13  and  C_14 
ROOT
ATOM      1  C   UNL d   1      24.919 -17.123  -1.288  0.00  0.00     0.230 C 
ATOM      2  O   UNL d   1      24.717 -16.782  -2.460  0.00  0.00    -0.273 OA
ATOM      3  N   UNL d   1      26.018 -16.607  -0.612  0.00  0.00    -0.343 N 
ATOM      4  C   UNL d   1      26.773 -17.197   0.477  0.00  0.00     0.127 C 
ATOM      5  C   UNL d   1      27.411 -15.995   1.159  0.00  0.00     0.022 C 
ATOM      6  C   UNL d   1      27.739 -15.051   0.002  0.00  0.00     0.032 C 
ATOM      7  C   UNL d   1      26.712 -15.402  -1.096  0.00  0.00     0.120 C 
ENDROOT
BRANCH   1   8
ATOM      8  C   UNL d   1      23.896 -18.006  -0.524  0.00  0.00     0.185 C 
BRANCH   8   9
ATOM      9  S   UNL d   1      22.204 -17.352  -0.802  0.00  0.00    -0.079 SA
BRANCH   9  10
ATOM     10  C   UNL d   1      21.104 -18.662  -0.483  0.00  0.00     0.226 A 
ATOM     11  N   UNL d   1      19.800 -18.737  -0.895  0.00  0.00    -0.035 NA
ATOM     12  C   UNL d   1      19.393 -19.882  -0.402  0.00  0.00     0.716 A 
ATOM     13  N   UNL d   1      20.420 -20.471   0.280  0.00  0.00    -0.105 N 
ATOM     14  N   UNL d   1      21.523 -19.710   0.241  0.00  0.00    -0.132 NA
ATOM     15  H   UNL d   1      20.430 -21.352   0.779  0.00  0.00     0.208 HD
BRANCH  12  16
ATOM     16  N   UNL d   1      18.185 -20.452  -0.499  0.00  0.00    -0.231 N 
ATOM     17  H   UNL d   1      17.898 -21.113   0.216  0.00  0.00     0.174 HD
ATOM     18  H   UNL d   1      17.478 -20.212  -1.182  0.00  0.00     0.174 HD
ENDBRANCH  12  16
ENDBRANCH   9  10
ENDBRANCH   8   9
ENDBRANCH   1   8
BRANCH   7  19
ATOM     19  C   UNL d   1      27.376 -15.574  -2.452  0.00  0.00    -0.033 A 
ATOM     20  C   UNL d   1      28.571 -16.307  -2.536  0.00  0.00     0.012 A 
ATOM     21  C   UNL d   1      29.233 -16.444  -3.753  0.00  0.00     0.040 A 
ATOM     22  C   UNL d   1      28.741 -15.801  -4.886  0.00  0.00     0.102 A 
ATOM     23  C   UNL d   1      27.570 -15.047  -4.828  0.00  0.00     0.102 A 
ATOM     24  O   UNL d   1      29.445 -15.966  -6.047  0.00  0.00    -0.348 OA
ATOM     25  C   UNL d   1      26.863 -14.980  -3.625  0.00  0.00     0.049 A 
ATOM     26  O   UNL d   1      27.053 -14.410  -5.927  0.00  0.00    -0.348 OA
ATOM     27  C   UNL d   1      27.921 -13.381  -6.429  0.00  0.00     0.178 C 
ATOM     28  C   UNL d   1      29.090 -13.900  -7.263  0.00  0.00     0.053 C 
ATOM     29  C   UNL d   1      30.044 -14.726  -6.421  0.00  0.00     0.178 C 
ENDBRANCH   7  19
TORSDOF 5
ENDMDL
MODEL 4
REMARK VINA RESULT:   -30.439      2.818      4.633
REMARK INTER + INTRA:         -32.516
REMARK INTER:                 -31.930
REMARK INTRA:                  -0.586
REMARK CONF_INDEPENDENT:        1.492
REMARK UNBOUND:                -0.586
REMARK  5 active torsions:
REMARK  status: ('A' for Active; 'I' for Inactive)
REMARK    1  A    between atoms: N_1  and  C_2 
REMARK    2  A    between atoms: C_4  and  S_5 
REMARK    3  A    between atoms: S_5  and  C_6 
REMARK    4  A    between atoms: C_6  and  C_7 
REMARK       I    between atoms: C_7  and  N_9 
REMARK    5  A    between atoms: C_13  and  C_14 
ROOT
ATOM      1  C   UNL d   1      24.227 -16.570  -0.717  0.00  0.00     0.230 C 
ATOM      2  O   UNL d   1      24.915 -17.025   0.206  0.00  0.00    -0.273 OA
ATOM      3  N   UNL d   1      24.845 -15.857  -1.737  0.00  0.00    -0.343 N 
ATOM      4  C   UNL d   1      24.294 -14.812  -2.577  0.00  0.00     0.127 C 
ATOM      5  C   UNL d   1      25.176 -14.850  -3.817  0.00  0.00     0.022 C 
ATOM      6  C   UNL d   1      26.565 -15.175  -3.265  0.00  0.00     0.032 C 
ATOM      7  C   UNL d   1      26.298 -15.952  -1.959  0.00  0.00     0.120 C 
ENDROOT
BRANCH   1   8
ATOM      8  C   UNL d   1      22.713 -16.899  -0.822  0.00  0.00     0.185 C 
BRANCH   8   9
ATOM      9  S   UNL d   1      22.504 -18.685  -1.186  0.00  0.00    -0.079 SA
BRANCH   9  10
ATOM     10  C   UNL d   1      20.985 -19.163  -0.484  0.00  0.00     0.226 A 
ATOM     11  N   UNL d   1      20.766 -19.461   0.835  0.00  0.00    -0.035 NA
ATOM     12  C   UNL d   1      19.493 -19.776   0.866  0.00  0.00     0.716 A 
ATOM     13  N   UNL d   1      18.971 -19.669  -0.392  0.00  0.00    -0.105 N 
ATOM     14  N   UNL d   1      19.905 -19.278  -1.270  0.00  0.00    -0.132 NA
ATOM     15  H   UNL d   1      18.025 -19.847  -0.705  0.00  0.00     0.208 HD
BRANCH  12  16
ATOM     16  N   UNL d   1      18.753 -20.158   1.913  0.00  0.00    -0.231 N 
ATOM     17  H   UNL d   1      18.057 -19.516   2.281  0.00  0.00     0.174 HD
ATOM     18  H   UNL d   1      18.756 -21.082   2.328  0.00  0.00     0.174 HD
ENDBRANCH  12  16
ENDBRANCH   9  10
ENDBRANCH   8   9
ENDBRANCH   1   8
BRANCH   7  19
ATOM     19  C   UNL d   1      27.136 -15.421  -0.807  0.00  0.00    -0.033 A 
ATOM     20  C   UNL d   1      28.343 -16.066  -0.492  0.00  0.00     0.012 A 
ATOM     21  C   UNL d   1      29.112 -15.637   0.587  0.00  0.00     0.040 A 
ATOM     22  C   UNL d   1      28.656 -14.599   1.395  0.00  0.00     0.102 A 
ATOM     23  C   UNL d   1      27.451 -13.956   1.119  0.00  0.00     0.102 A 
ATOM     24  O   UNL d   1      29.454 -14.234   2.445  0.00  0.00    -0.348 OA
ATOM     25  C   UNL d   1      26.722 -14.333  -0.011  0.00  0.00     0.049 A 
ATOM     26  O   UNL d   1      26.978 -12.923   1.889  0.00  0.00    -0.348 OA
ATOM     27  C   UNL d   1      26.677 -13.330   3.234  0.00  0.00     0.178 C 
ATOM     28  C   UNL d   1      27.902 -13.459   4.137  0.00  0.00     0.053 C 
ATOM     29  C   UNL d   1      28.814 -14.580   3.672  0.00  0.00     0.178 C 
ENDBRANCH   7  19
TORSDOF 5
ENDMDL
MODEL 5
REMARK VINA RESULT:   -30.253      3.345      5.273
REMARK INTER + INTRA:         -32.292
REMARK INTER:                 -31.744
REMARK INTRA:                  -0.548
REMARK CONF_INDEPENDENT:        1.492
REMARK UNBOUND:                -0.548
REMARK  5 active torsions:
REMARK  status: ('A' for Active; 'I' for Inactive)
REMARK    1  A    between atoms: N_1  and  C_2 
REMARK    2  A    between atoms: C_4  and  S_5 
REMARK    3  A    between atoms: S_5  and  C_6 
REMARK    4  A    between atoms: C_6  and  C_7 
REMARK       I    between atoms: C_7  and  N_9 
REMARK    5  A    between atoms: C_13  and  C_14 
ROOT
ATOM      1  C   UNL d   1      25.040 -17.088  -0.611  0.00  0.00     0.230 C 
ATOM      2  O   UNL d   1      25.412 -17.185   0.566  0.00  0.00    -0.273 OA
ATOM      3  N   UNL d   1      25.701 -16.209  -1.460  0.00  0.00    -0.343 N 
ATOM      4  C   UNL d   1      25.189 -15.516  -2.627  0.00  0.00     0.127 C 
ATOM      5  C   UNL d   1      26.440 -15.215  -3.439  0.00  0.00     0.022 C 
ATOM      6  C   UNL d   1      27.498 -14.911  -2.377  0.00  0.00     0.032 C 
ATOM      7  C   UNL d   1      27.039 -15.692  -1.128  0.00  0.00     0.120 C 
ENDROOT
BRANCH   1   8
ATOM      8  C   UNL d   1      23.941 -18.025  -1.182  0.00  0.00     0.185 C 
BRANCH   8   9
ATOM      9  S   UNL d   1      22.293 -17.272  -0.895  0.00  0.00    -0.079 SA
BRANCH   9  10
ATOM     10  C   UNL d   1      21.207 -18.579  -0.518  0.00  0.00     0.226 A 
ATOM     11  N   UNL d   1      19.893 -18.668  -0.895  0.00  0.00    -0.035 NA
ATOM     12  C   UNL d   1      19.504 -19.804  -0.366  0.00  0.00     0.716 A 
ATOM     13  N   UNL d   1      20.551 -20.372   0.304  0.00  0.00    -0.105 N 
ATOM     14  N   UNL d   1      21.648 -19.608   0.220  0.00  0.00    -0.132 NA
ATOM     15  H   UNL d   1      20.577 -21.241   0.823  0.00  0.00     0.208 HD
BRANCH  12  16
ATOM     16  N   UNL d   1      18.297 -20.380  -0.419  0.00  0.00    -0.231 N 
ATOM     17  H   UNL d   1      17.841 -20.641   0.450  0.00  0.00     0.174 HD
ATOM     18  H   UNL d   1      17.742 -20.501  -1.257  0.00  0.00     0.174 HD
ENDBRANCH  12  16
ENDBRANCH   9  10
ENDBRANCH   8   9
ENDBRANCH   1   8
BRANCH   7  19
ATOM     19  C   UNL d   1      27.074 -14.825   0.121  0.00  0.00    -0.033 A 
ATOM     20  C   UNL d   1      26.657 -13.488   0.031  0.00  0.00     0.012 A 
ATOM     21  C   UNL d   1      26.723 -12.651   1.142  0.00  0.00     0.040 A 
ATOM     22  C   UNL d   1      27.259 -13.125   2.337  0.00  0.00     0.102 A 
ATOM     23  C   UNL d   1      27.702 -14.441   2.448  0.00  0.00     0.102 A 
ATOM     24  O   UNL d   1      27.306 -12.248   3.386  0.00  0.00    -0.348 OA
ATOM     25  C   UNL d   1      27.559 -15.302   1.357  0.00  0.00     0.049 A 
ATOM     26  O   UNL d   1      28.226 -14.943   3.613  0.00  0.00    -0.348 OA
ATOM     27  C   UNL d   1      29.450 -14.294   3.992  0.00  0.00     0.178 C 
ATOM     28  C   UNL d   1      29.257 -12.930   4.651  0.00  0.00     0.053 C 
ATOM     29  C   UNL d   1      28.664 -11.927   3.678  0.00  0.00     0.178 C 
ENDBRANCH   7  19
TORSDOF 5
ENDMDL
MODEL 6
REMARK VINA RESULT:   -30.087      2.979      4.632
REMARK INTER + INTRA:         -32.082
REMARK INTER:                 -31.579
REMARK INTRA:                  -0.504
REMARK CONF_INDEPENDENT:        1.492
REMARK UNBOUND:                -0.504
REMARK  5 active torsions:
REMARK  status: ('A' for Active; 'I' for Inactive)
REMARK    1  A    between atoms: N_1  and  C_2 
REMARK    2  A    between atoms: C_4  and  S_5 
REMARK    3  A    between atoms: S_5  and  C_6 
REMARK    4  A    between atoms: C_6  and  C_7 
REMARK       I    between atoms: C_7  and  N_9 
REMARK    5  A    between atoms: C_13  and  C_14 
ROOT
ATOM      1  C   UNL d   1      24.275 -16.828  -0.701  0.00  0.00     0.230 C 
ATOM      2  O   UNL d   1      24.969 -17.363   0.173  0.00  0.00    -0.273 OA
ATOM      3  N   UNL d   1      24.886 -16.023  -1.655  0.00  0.00    -0.343 N 
ATOM      4  C   UNL d   1      24.328 -14.908  -2.394  0.00  0.00     0.127 C 
ATOM      5  C   UNL d   1      25.203 -14.831  -3.637  0.00  0.00     0.022 C 
ATOM      6  C   UNL d   1      26.595 -15.202  -3.125  0.00  0.00     0.032 C 
ATOM      7  C   UNL d   1      26.337 -16.095  -1.893  0.00  0.00     0.120 C 
ENDROOT
BRANCH   1   8
ATOM      8  C   UNL d   1      22.761 -17.149  -0.826  0.00  0.00     0.185 C 
BRANCH   8   9
ATOM      9  S   UNL d   1      22.545 -18.944  -1.140  0.00  0.00    -0.079 SA
BRANCH   9  10
ATOM     10  C   UNL d   1      20.992 -19.381  -0.487  0.00  0.00     0.226 A 
ATOM     11  N   UNL d   1      20.751 -19.834   0.782  0.00  0.00    -0.035 NA
ATOM     12  C   UNL d   1      19.456 -20.041   0.788  0.00  0.00     0.716 A 
ATOM     13  N   UNL d   1      18.942 -19.722  -0.438  0.00  0.00    -0.105 N 
ATOM     14  N   UNL d   1      19.905 -19.298  -1.268  0.00  0.00    -0.132 NA
ATOM     15  H   UNL d   1      17.984 -19.776  -0.760  0.00  0.00     0.208 HD
BRANCH  12  16
ATOM     16  N   UNL d   1      18.686 -20.495   1.784  0.00  0.00    -0.231 N 
ATOM     17  H   UNL d   1      17.677 -20.467   1.676  0.00  0.00     0.174 HD
ATOM     18  H   UNL d   1      19.023 -20.959   2.619  0.00  0.00     0.174 HD
ENDBRANCH  12  16
ENDBRANCH   9  10
ENDBRANCH   8   9
ENDBRANCH   1   8
BRANCH   7  19
ATOM     19  C   UNL d   1      27.182 -15.669  -0.703  0.00  0.00    -0.033 A 
ATOM     20  C   UNL d   1      26.641 -14.764   0.224  0.00  0.00     0.012 A 
ATOM     21  C   UNL d   1      27.402 -14.313   1.299  0.00  0.00     0.040 A 
ATOM     22  C   UNL d   1      28.729 -14.716   1.426  0.00  0.00     0.102 A 
ATOM     23  C   UNL d   1      29.300 -15.595   0.508  0.00  0.00     0.102 A 
ATOM     24  O   UNL d   1      29.425 -14.227   2.497  0.00  0.00    -0.348 OA
ATOM     25  C   UNL d   1      28.510 -16.110  -0.523  0.00  0.00     0.049 A 
ATOM     26  O   UNL d   1      30.600 -16.019   0.609  0.00  0.00    -0.348 OA
ATOM     27  C   UNL d   1      31.544 -14.947   0.463  0.00  0.00     0.178 C 
ATOM     28  C   UNL d   1      31.714 -14.086   1.713  0.00  0.00     0.053 C 
ATOM     29  C   UNL d   1      30.438 -13.333   2.040  0.00  0.00     0.178 C 
ENDBRANCH   7  19
TORSDOF 5
ENDMDL
