MODEL 1
REMARK VINA RESULT:    -7.424      0.000      0.000
REMARK INTER + INTRA:         -10.528
REMARK INTER:                  -9.214
REMARK INTRA:                  -1.314
REMARK CONF_INDEPENDENT:        1.790
REMARK UNBOUND:                -1.314
REMARK  6 active torsions:
REMARK  status: ('A' for Active; 'I' for Inactive)
REMARK    1  A    between atoms: C_5  and  C_6 
REMARK       I    between atoms: C_6  and  N_8 
REMARK    2  A    between atoms: N_8  and  N_9 
REMARK       I    between atoms: N_9  and  C_10 
REMARK    3  A    between atoms: C_10  and  C_12 
REMARK    4  A    between atoms: C_12  and  C_13 
REMARK    5  A    between atoms: C_13  and  C_15 
REMARK    6  A    between atoms: C_18  and  O_19 
ROOT
ATOM      1  C   UNL d   1      25.149 -15.991  -1.428  0.00  0.00     0.272 C 
ATOM      2  O   UNL d   1      25.258 -15.420  -0.337  0.00  0.00    -0.266 OA
ATOM      3  N   UNL d   1      24.214 -16.988  -1.645  0.00  0.00    -0.263 N 
ATOM      4  H   UNL d   1      24.082 -17.486  -2.524  0.00  0.00     0.190 HD
ENDROOT
BRANCH   3   5
ATOM      5  N   UNL d   1      23.348 -17.411  -0.607  0.00  0.00    -0.267 N 
ATOM      6  C   UNL d   1      22.534 -18.498  -0.872  0.00  0.00     0.236 C 
ATOM      7  O   UNL d   1      22.556 -19.040  -1.978  0.00  0.00    -0.272 OA
ATOM      8  H   UNL d   1      23.318 -16.849   0.241  0.00  0.00     0.190 HD
BRANCH   6   9
ATOM      9  C   UNL d   1      21.626 -18.949   0.275  0.00  0.00     0.109 C 
BRANCH   9  10
ATOM     10  C   UNL d   1      20.116 -18.951  -0.098  0.00  0.00    -0.007 C 
ATOM     11  C   UNL d   1      19.904 -19.695  -1.430  0.00  0.00     0.011 C 
BRANCH  10  12
ATOM     12  C   UNL d   1      19.213 -19.588   1.005  0.00  0.00    -0.019 C 
ATOM     13  C   UNL d   1      18.428 -20.798   0.490  0.00  0.00     0.010 C 
ATOM     14  C   UNL d   1      20.035 -20.040   2.225  0.00  0.00     0.010 C 
ENDBRANCH  10  12
ENDBRANCH   9  10
ENDBRANCH   6   9
ENDBRANCH   3   5
BRANCH   1  15
ATOM     15  C   UNL d   1      26.060 -15.593  -2.561  0.00  0.00     0.066 A 
ATOM     16  C   UNL d   1      27.419 -15.947  -2.592  0.00  0.00     0.020 A 
ATOM     17  C   UNL d   1      28.244 -15.575  -3.671  0.00  0.00     0.008 A 
ATOM     18  C   UNL d   1      27.729 -14.852  -4.749  0.00  0.00    -0.059 A 
ATOM     19  C   UNL d   1      28.576 -14.461  -5.927  0.00  0.00     0.048 C 
ATOM     20  C   UNL d   1      26.380 -14.486  -4.723  0.00  0.00     0.044 A 
ATOM     21  C   UNL d   1      25.562 -14.844  -3.645  0.00  0.00     0.082 A 
BRANCH  21  22
ATOM     22  O   UNL d   1      24.265 -14.404  -3.740  0.00  0.00    -0.360 OA
ATOM     23  H   UNL d   1      24.264 -13.428  -3.650  0.00  0.00     0.217 HD
ENDBRANCH  21  22
ENDBRANCH   1  15
TORSDOF 6
ENDMDL
MODEL 2
REMARK VINA RESULT:    -7.282      2.141      8.015
REMARK INTER + INTRA:         -10.068
REMARK INTER:                  -9.072
REMARK INTRA:                  -0.996
REMARK CONF_INDEPENDENT:        1.790
REMARK UNBOUND:                -0.996
REMARK  6 active torsions:
REMARK  status: ('A' for Active; 'I' for Inactive)
REMARK    1  A    between atoms: C_5  and  C_6 
REMARK       I    between atoms: C_6  and  N_8 
REMARK    2  A    between atoms: N_8  and  N_9 
REMARK       I    between atoms: N_9  and  C_10 
REMARK    3  A    between atoms: C_10  and  C_12 
REMARK    4  A    between atoms: C_12  and  C_13 
REMARK    5  A    between atoms: C_13  and  C_15 
REMARK    6  A    between atoms: C_18  and  O_19 
ROOT
ATOM      1  C   UNL d   1      22.050 -18.091  -0.054  0.00  0.00     0.272 C 
ATOM      2  O   UNL d   1      21.796 -17.080  -0.718  0.00  0.00    -0.266 OA
ATOM      3  N   UNL d   1      23.338 -18.403   0.345  0.00  0.00    -0.263 N 
ATOM      4  H   UNL d   1      23.600 -19.219   0.895  0.00  0.00     0.190 HD
ENDROOT
BRANCH   3   5
ATOM      5  N   UNL d   1      24.431 -17.574  -0.013  0.00  0.00    -0.267 N 
ATOM      6  C   UNL d   1      24.652 -17.375  -1.364  0.00  0.00     0.236 C 
ATOM      7  O   UNL d   1      23.937 -17.928  -2.202  0.00  0.00    -0.272 OA
ATOM      8  H   UNL d   1      25.032 -17.237   0.736  0.00  0.00     0.190 HD
BRANCH   6   9
ATOM      9  C   UNL d   1      25.822 -16.455  -1.721  0.00  0.00     0.109 C 
BRANCH   9  10
ATOM     10  C   UNL d   1      27.212 -17.063  -1.373  0.00  0.00    -0.007 C 
ATOM     11  C   UNL d   1      28.307 -16.397  -2.226  0.00  0.00     0.011 C 
BRANCH  10  12
ATOM     12  C   UNL d   1      27.576 -16.929   0.140  0.00  0.00    -0.019 C 
ATOM     13  C   UNL d   1      27.041 -15.634   0.756  0.00  0.00     0.010 C 
ATOM     14  C   UNL d   1      27.030 -18.108   0.965  0.00  0.00     0.010 C 
ENDBRANCH  10  12
ENDBRANCH   9  10
ENDBRANCH   6   9
ENDBRANCH   3   5
BRANCH   1  15
ATOM     15  C   UNL d   1      20.927 -19.018   0.337  0.00  0.00     0.066 A 
ATOM     16  C   UNL d   1      20.636 -19.320   1.678  0.00  0.00     0.020 A 
ATOM     17  C   UNL d   1      19.571 -20.177   2.016  0.00  0.00     0.008 A 
ATOM     18  C   UNL d   1      18.766 -20.743   1.025  0.00  0.00    -0.059 A 
ATOM     19  C   UNL d   1      17.608 -21.641   1.353  0.00  0.00     0.048 C 
ATOM     20  C   UNL d   1      19.055 -20.457  -0.312  0.00  0.00     0.044 A 
ATOM     21  C   UNL d   1      20.121 -19.616  -0.651  0.00  0.00     0.082 A 
BRANCH  21  22
ATOM     22  O   UNL d   1      20.303 -19.436  -1.999  0.00  0.00    -0.360 OA
ATOM     23  H   UNL d   1      20.866 -18.643  -2.130  0.00  0.00     0.217 HD
ENDBRANCH  21  22
ENDBRANCH   1  15
TORSDOF 6
ENDMDL
MODEL 3
REMARK VINA RESULT:    -7.162      1.935      2.271
REMARK INTER + INTRA:         -10.383
REMARK INTER:                  -8.952
REMARK INTRA:                  -1.431
REMARK CONF_INDEPENDENT:        1.790
REMARK UNBOUND:                -1.431
REMARK  6 active torsions:
REMARK  status: ('A' for Active; 'I' for Inactive)
REMARK    1  A    between atoms: C_5  and  C_6 
REMARK       I    between atoms: C_6  and  N_8 
REMARK    2  A    between atoms: N_8  and  N_9 
REMARK       I    between atoms: N_9  and  C_10 
REMARK    3  A    between atoms: C_10  and  C_12 
REMARK    4  A    between atoms: C_12  and  C_13 
REMARK    5  A    between atoms: C_13  and  C_15 
REMARK    6  A    between atoms: C_18  and  O_19 
ROOT
ATOM      1  C   UNL d   1      25.570 -15.654  -1.954  0.00  0.00     0.272 C 
ATOM      2  O   UNL d   1      26.476 -16.494  -1.915  0.00  0.00    -0.266 OA
ATOM      3  N   UNL d   1      24.271 -15.957  -1.583  0.00  0.00    -0.263 N 
ATOM      4  H   UNL d   1      23.491 -15.302  -1.593  0.00  0.00     0.190 HD
ENDROOT
BRANCH   3   5
ATOM      5  N   UNL d   1      23.923 -17.262  -1.156  0.00  0.00    -0.267 N 
ATOM      6  C   UNL d   1      22.607 -17.470  -0.784  0.00  0.00     0.236 C 
ATOM      7  O   UNL d   1      21.798 -16.541  -0.801  0.00  0.00    -0.272 OA
ATOM      8  H   UNL d   1      24.671 -17.947  -1.075  0.00  0.00     0.190 HD
BRANCH   6   9
ATOM      9  C   UNL d   1      22.252 -18.896  -0.351  0.00  0.00     0.109 C 
BRANCH   9  10
ATOM     10  C   UNL d   1      20.720 -19.158  -0.291  0.00  0.00    -0.007 C 
ATOM     11  C   UNL d   1      20.225 -19.699  -1.645  0.00  0.00     0.011 C 
BRANCH  10  12
ATOM     12  C   UNL d   1      20.312 -20.147   0.847  0.00  0.00    -0.019 C 
ATOM     13  C   UNL d   1      20.280 -19.472   2.221  0.00  0.00     0.010 C 
ATOM     14  C   UNL d   1      18.929 -20.771   0.592  0.00  0.00     0.010 C 
ENDBRANCH  10  12
ENDBRANCH   9  10
ENDBRANCH   6   9
ENDBRANCH   3   5
BRANCH   1  15
ATOM     15  C   UNL d   1      25.882 -14.254  -2.419  0.00  0.00     0.066 A 
ATOM     16  C   UNL d   1      26.754 -13.406  -1.716  0.00  0.00     0.020 A 
ATOM     17  C   UNL d   1      27.040 -12.109  -2.181  0.00  0.00     0.008 A 
ATOM     18  C   UNL d   1      26.471 -11.631  -3.364  0.00  0.00    -0.059 A 
ATOM     19  C   UNL d   1      26.775 -10.261  -3.900  0.00  0.00     0.048 C 
ATOM     20  C   UNL d   1      25.594 -12.463  -4.065  0.00  0.00     0.044 A 
ATOM     21  C   UNL d   1      25.299 -13.749  -3.598  0.00  0.00     0.082 A 
BRANCH  21  22
ATOM     22  O   UNL d   1      24.409 -14.450  -4.372  0.00  0.00    -0.360 OA
ATOM     23  H   UNL d   1      23.587 -13.921  -4.452  0.00  0.00     0.217 HD
ENDBRANCH  21  22
ENDBRANCH   1  15
TORSDOF 6
ENDMDL
MODEL 4
REMARK VINA RESULT:    -7.157      2.350      3.087
REMARK INTER + INTRA:         -10.980
REMARK INTER:                  -8.947
REMARK INTRA:                  -2.032
REMARK CONF_INDEPENDENT:        1.790
REMARK UNBOUND:                -2.032
REMARK  6 active torsions:
REMARK  status: ('A' for Active; 'I' for Inactive)
REMARK    1  A    between atoms: C_5  and  C_6 
REMARK       I    between atoms: C_6  and  N_8 
REMARK    2  A    between atoms: N_8  and  N_9 
REMARK       I    between atoms: N_9  and  C_10 
REMARK    3  A    between atoms: C_10  and  C_12 
REMARK    4  A    between atoms: C_12  and  C_13 
REMARK    5  A    between atoms: C_13  and  C_15 
REMARK    6  A    between atoms: C_18  and  O_19 
ROOT
ATOM      1  C   UNL d   1      24.442 -18.018  -0.657  0.00  0.00     0.272 C 
ATOM      2  O   UNL d   1      24.875 -19.056  -0.145  0.00  0.00    -0.266 OA
ATOM      3  N   UNL d   1      23.099 -17.845  -0.944  0.00  0.00    -0.263 N 
ATOM      4  H   UNL d   1      22.692 -17.009  -1.360  0.00  0.00     0.190 HD
ENDROOT
BRANCH   3   5
ATOM      5  N   UNL d   1      22.160 -18.871  -0.675  0.00  0.00    -0.267 N 
ATOM      6  C   UNL d   1      20.826 -18.574  -0.891  0.00  0.00     0.236 C 
ATOM      7  O   UNL d   1      20.490 -17.451  -1.270  0.00  0.00    -0.272 OA
ATOM      8  H   UNL d   1      22.510 -19.736  -0.270  0.00  0.00     0.190 HD
BRANCH   6   9
ATOM      9  C   UNL d   1      19.836 -19.709  -0.617  0.00  0.00     0.109 C 
BRANCH   9  10
ATOM     10  C   UNL d   1      20.018 -20.361   0.783  0.00  0.00    -0.007 C 
ATOM     11  C   UNL d   1      20.568 -19.325   1.781  0.00  0.00     0.011 C 
BRANCH  10  12
ATOM     12  C   UNL d   1      18.699 -20.979   1.347  0.00  0.00    -0.019 C 
ATOM     13  C   UNL d   1      18.030 -20.075   2.386  0.00  0.00     0.010 C 
ATOM     14  C   UNL d   1      17.677 -21.259   0.232  0.00  0.00     0.010 C 
ENDBRANCH  10  12
ENDBRANCH   9  10
ENDBRANCH   6   9
ENDBRANCH   3   5
BRANCH   1  15
ATOM     15  C   UNL d   1      25.401 -16.900  -0.981  0.00  0.00     0.066 A 
ATOM     16  C   UNL d   1      24.994 -15.729  -1.642  0.00  0.00     0.020 A 
ATOM     17  C   UNL d   1      25.907 -14.694  -1.918  0.00  0.00     0.008 A 
ATOM     18  C   UNL d   1      27.246 -14.800  -1.532  0.00  0.00    -0.059 A 
ATOM     19  C   UNL d   1      28.240 -13.703  -1.790  0.00  0.00     0.048 C 
ATOM     20  C   UNL d   1      27.663 -15.965  -0.884  0.00  0.00     0.044 A 
ATOM     21  C   UNL d   1      26.759 -17.000  -0.620  0.00  0.00     0.082 A 
BRANCH  21  22
ATOM     22  O   UNL d   1      27.306 -18.093   0.005  0.00  0.00    -0.360 OA
ATOM     23  H   UNL d   1      26.655 -18.826  -0.032  0.00  0.00     0.217 HD
ENDBRANCH  21  22
ENDBRANCH   1  15
TORSDOF 6
ENDMDL
MODEL 5
REMARK VINA RESULT:    -7.034      1.987      8.361
REMARK INTER + INTRA:         -10.125
REMARK INTER:                  -8.823
REMARK INTRA:                  -1.301
REMARK CONF_INDEPENDENT:        1.790
REMARK UNBOUND:                -1.301
REMARK  6 active torsions:
REMARK  status: ('A' for Active; 'I' for Inactive)
REMARK    1  A    between atoms: C_5  and  C_6 
REMARK       I    between atoms: C_6  and  N_8 
REMARK    2  A    between atoms: N_8  and  N_9 
REMARK       I    between atoms: N_9  and  C_10 
REMARK    3  A    between atoms: C_10  and  C_12 
REMARK    4  A    between atoms: C_12  and  C_13 
REMARK    5  A    between atoms: C_13  and  C_15 
REMARK    6  A    between atoms: C_18  and  O_19 
ROOT
ATOM      1  C   UNL d   1      22.018 -18.232  -0.386  0.00  0.00     0.272 C 
ATOM      2  O   UNL d   1      21.733 -17.219  -1.034  0.00  0.00    -0.266 OA
ATOM      3  N   UNL d   1      23.329 -18.595  -0.128  0.00  0.00    -0.263 N 
ATOM      4  H   UNL d   1      23.616 -19.415   0.403  0.00  0.00     0.190 HD
ENDROOT
BRANCH   3   5
ATOM      5  N   UNL d   1      24.408 -17.819  -0.620  0.00  0.00    -0.267 N 
ATOM      6  C   UNL d   1      25.600 -17.888   0.079  0.00  0.00     0.236 C 
ATOM      7  O   UNL d   1      25.688 -18.575   1.098  0.00  0.00    -0.272 OA
ATOM      8  H   UNL d   1      24.225 -17.202  -1.408  0.00  0.00     0.190 HD
BRANCH   6   9
ATOM      9  C   UNL d   1      26.756 -17.059  -0.488  0.00  0.00     0.109 C 
BRANCH   9  10
ATOM     10  C   UNL d   1      26.477 -15.529  -0.484  0.00  0.00    -0.007 C 
ATOM     11  C   UNL d   1      27.128 -14.878   0.750  0.00  0.00     0.011 C 
BRANCH  10  12
ATOM     12  C   UNL d   1      26.979 -14.812  -1.778  0.00  0.00    -0.019 C 
ATOM     13  C   UNL d   1      28.498 -14.907  -1.945  0.00  0.00     0.010 C 
ATOM     14  C   UNL d   1      26.324 -15.395  -3.043  0.00  0.00     0.010 C 
ENDBRANCH  10  12
ENDBRANCH   9  10
ENDBRANCH   6   9
ENDBRANCH   3   5
BRANCH   1  15
ATOM     15  C   UNL d   1      20.909 -19.104   0.144  0.00  0.00     0.066 A 
ATOM     16  C   UNL d   1      20.687 -19.284   1.520  0.00  0.00     0.020 A 
ATOM     17  C   UNL d   1      19.634 -20.092   1.988  0.00  0.00     0.008 A 
ATOM     18  C   UNL d   1      18.770 -20.730   1.095  0.00  0.00    -0.059 A 
ATOM     19  C   UNL d   1      17.621 -21.579   1.562  0.00  0.00     0.048 C 
ATOM     20  C   UNL d   1      18.988 -20.566  -0.275  0.00  0.00     0.044 A 
ATOM     21  C   UNL d   1      20.043 -19.773  -0.743  0.00  0.00     0.082 A 
BRANCH  21  22
ATOM     22  O   UNL d   1      20.153 -19.714  -2.109  0.00  0.00    -0.360 OA
ATOM     23  H   UNL d   1      20.653 -20.502  -2.412  0.00  0.00     0.217 HD
ENDBRANCH  21  22
ENDBRANCH   1  15
TORSDOF 6
ENDMDL
MODEL 6
REMARK VINA RESULT:    -7.021      1.671      2.016
REMARK INTER + INTRA:         -10.806
REMARK INTER:                  -8.811
REMARK INTRA:                  -1.996
REMARK CONF_INDEPENDENT:        1.790
REMARK UNBOUND:                -1.996
REMARK  6 active torsions:
REMARK  status: ('A' for Active; 'I' for Inactive)
REMARK    1  A    between atoms: C_5  and  C_6 
REMARK       I    between atoms: C_6  and  N_8 
REMARK    2  A    between atoms: N_8  and  N_9 
REMARK       I    between atoms: N_9  and  C_10 
REMARK    3  A    between atoms: C_10  and  C_12 
REMARK    4  A    between atoms: C_12  and  C_13 
REMARK    5  A    between atoms: C_13  and  C_15 
REMARK    6  A    between atoms: C_18  and  O_19 
ROOT
ATOM      1  C   UNL d   1      25.427 -17.717  -0.165  0.00  0.00     0.272 C 
ATOM      2  O   UNL d   1      25.939 -18.528   0.616  0.00  0.00    -0.266 OA
ATOM      3  N   UNL d   1      24.085 -17.767  -0.500  0.00  0.00    -0.263 N 
ATOM      4  H   UNL d   1      23.615 -17.122  -1.133  0.00  0.00     0.190 HD
ENDROOT
BRANCH   3   5
ATOM      5  N   UNL d   1      23.240 -18.773   0.030  0.00  0.00    -0.267 N 
ATOM      6  C   UNL d   1      21.887 -18.662  -0.236  0.00  0.00     0.236 C 
ATOM      7  O   UNL d   1      21.454 -17.706  -0.883  0.00  0.00    -0.272 OA
ATOM      8  H   UNL d   1      23.662 -19.473   0.636  0.00  0.00     0.190 HD
BRANCH   6   9
ATOM      9  C   UNL d   1      21.000 -19.776   0.327  0.00  0.00     0.109 C 
BRANCH   9  10
ATOM     10  C   UNL d   1      19.500 -19.378   0.427  0.00  0.00    -0.007 C 
ATOM     11  C   UNL d   1      18.779 -19.702  -0.895  0.00  0.00     0.011 C 
BRANCH  10  12
ATOM     12  C   UNL d   1      18.759 -20.077   1.611  0.00  0.00    -0.019 C 
ATOM     13  C   UNL d   1      18.032 -21.351   1.171  0.00  0.00     0.010 C 
ATOM     14  C   UNL d   1      19.725 -20.449   2.749  0.00  0.00     0.010 C 
ENDBRANCH  10  12
ENDBRANCH   9  10
ENDBRANCH   6   9
ENDBRANCH   3   5
BRANCH   1  15
ATOM     15  C   UNL d   1      26.285 -16.637  -0.773  0.00  0.00     0.066 A 
ATOM     16  C   UNL d   1      27.651 -16.505  -0.472  0.00  0.00     0.020 A 
ATOM     17  C   UNL d   1      28.433 -15.496  -1.066  0.00  0.00     0.008 A 
ATOM     18  C   UNL d   1      27.873 -14.603  -1.982  0.00  0.00    -0.059 A 
ATOM     19  C   UNL d   1      28.685 -13.531  -2.652  0.00  0.00     0.048 C 
ATOM     20  C   UNL d   1      26.513 -14.719  -2.280  0.00  0.00     0.044 A 
ATOM     21  C   UNL d   1      25.730 -15.714  -1.680  0.00  0.00     0.082 A 
BRANCH  21  22
ATOM     22  O   UNL d   1      24.408 -15.702  -2.048  0.00  0.00    -0.360 OA
ATOM     23  H   UNL d   1      24.250 -14.908  -2.601  0.00  0.00     0.217 HD
ENDBRANCH  21  22
ENDBRANCH   1  15
TORSDOF 6
ENDMDL
MODEL 7
REMARK VINA RESULT:    -6.892      1.705      8.328
REMARK INTER + INTRA:          -9.871
REMARK INTER:                  -8.682
REMARK INTRA:                  -1.189
REMARK CONF_INDEPENDENT:        1.790
REMARK UNBOUND:                -1.189
REMARK  6 active torsions:
REMARK  status: ('A' for Active; 'I' for Inactive)
REMARK    1  A    between atoms: C_5  and  C_6 
REMARK       I    between atoms: C_6  and  N_8 
REMARK    2  A    between atoms: N_8  and  N_9 
REMARK       I    between atoms: N_9  and  C_10 
REMARK    3  A    between atoms: C_10  and  C_12 
REMARK    4  A    between atoms: C_12  and  C_13 
REMARK    5  A    between atoms: C_13  and  C_15 
REMARK    6  A    between atoms: C_18  and  O_19 
ROOT
ATOM      1  C   UNL d   1      21.868 -18.434  -0.738  0.00  0.00     0.272 C 
ATOM      2  O   UNL d   1      22.332 -18.732  -1.845  0.00  0.00    -0.266 OA
ATOM      3  N   UNL d   1      22.411 -17.424   0.037  0.00  0.00    -0.263 N 
ATOM      4  H   UNL d   1      22.064 -17.138   0.951  0.00  0.00     0.190 HD
ENDROOT
BRANCH   3   5
ATOM      5  N   UNL d   1      23.543 -16.696  -0.405  0.00  0.00    -0.267 N 
ATOM      6  C   UNL d   1      24.728 -17.398  -0.535  0.00  0.00     0.236 C 
ATOM      7  O   UNL d   1      24.781 -18.595  -0.245  0.00  0.00    -0.272 OA
ATOM      8  H   UNL d   1      23.440 -15.692  -0.527  0.00  0.00     0.190 HD
BRANCH   6   9
ATOM      9  C   UNL d   1      25.930 -16.593  -1.038  0.00  0.00     0.109 C 
BRANCH   9  10
ATOM     10  C   UNL d   1      25.529 -15.358  -1.895  0.00  0.00    -0.007 C 
ATOM     11  C   UNL d   1      26.197 -14.089  -1.335  0.00  0.00     0.011 C 
BRANCH  10  12
ATOM     12  C   UNL d   1      25.893 -15.517  -3.406  0.00  0.00    -0.019 C 
ATOM     13  C   UNL d   1      25.332 -14.379  -4.262  0.00  0.00     0.010 C 
ATOM     14  C   UNL d   1      27.415 -15.571  -3.623  0.00  0.00     0.010 C 
ENDBRANCH  10  12
ENDBRANCH   9  10
ENDBRANCH   6   9
ENDBRANCH   3   5
BRANCH   1  15
ATOM     15  C   UNL d   1      20.675 -19.190  -0.212  0.00  0.00     0.066 A 
ATOM     16  C   UNL d   1      19.677 -19.701  -1.058  0.00  0.00     0.020 A 
ATOM     17  C   UNL d   1      18.581 -20.417  -0.541  0.00  0.00     0.008 A 
ATOM     18  C   UNL d   1      18.460 -20.648   0.831  0.00  0.00    -0.059 A 
ATOM     19  C   UNL d   1      17.316 -21.429   1.413  0.00  0.00     0.048 C 
ATOM     20  C   UNL d   1      19.442 -20.134   1.682  0.00  0.00     0.044 A 
ATOM     21  C   UNL d   1      20.526 -19.412   1.171  0.00  0.00     0.082 A 
BRANCH  21  22
ATOM     22  O   UNL d   1      21.405 -18.950   2.119  0.00  0.00    -0.360 OA
ATOM     23  H   UNL d   1      21.412 -19.584   2.867  0.00  0.00     0.217 HD
ENDBRANCH  21  22
ENDBRANCH   1  15
TORSDOF 6
ENDMDL
MODEL 8
REMARK VINA RESULT:    -6.829      1.234      8.350
REMARK INTER + INTRA:         -10.640
REMARK INTER:                  -8.619
REMARK INTRA:                  -2.021
REMARK CONF_INDEPENDENT:        1.790
REMARK UNBOUND:                -2.021
REMARK  6 active torsions:
REMARK  status: ('A' for Active; 'I' for Inactive)
REMARK    1  A    between atoms: C_5  and  C_6 
REMARK       I    between atoms: C_6  and  N_8 
REMARK    2  A    between atoms: N_8  and  N_9 
REMARK       I    between atoms: N_9  and  C_10 
REMARK    3  A    between atoms: C_10  and  C_12 
REMARK    4  A    between atoms: C_12  and  C_13 
REMARK    5  A    between atoms: C_13  and  C_15 
REMARK    6  A    between atoms: C_18  and  O_19 
ROOT
ATOM      1  C   UNL d   1      22.631 -18.663  -1.232  0.00  0.00     0.272 C 
ATOM      2  O   UNL d   1      22.914 -19.281  -2.265  0.00  0.00    -0.266 OA
ATOM      3  N   UNL d   1      23.346 -17.551  -0.821  0.00  0.00    -0.263 N 
ATOM      4  H   UNL d   1      23.151 -17.006   0.017  0.00  0.00     0.190 HD
ENDROOT
BRANCH   3   5
ATOM      5  N   UNL d   1      24.455 -17.084  -1.568  0.00  0.00    -0.267 N 
ATOM      6  C   UNL d   1      25.204 -16.064  -1.008  0.00  0.00     0.236 C 
ATOM      7  O   UNL d   1      24.885 -15.578   0.078  0.00  0.00    -0.272 OA
ATOM      8  H   UNL d   1      24.593 -17.468  -2.500  0.00  0.00     0.190 HD
BRANCH   6   9
ATOM      9  C   UNL d   1      26.412 -15.595  -1.825  0.00  0.00     0.109 C 
BRANCH   9  10
ATOM     10  C   UNL d   1      26.043 -15.145  -3.267  0.00  0.00    -0.007 C 
ATOM     11  C   UNL d   1      24.768 -14.281  -3.240  0.00  0.00     0.011 C 
BRANCH  10  12
ATOM     12  C   UNL d   1      27.191 -14.358  -3.976  0.00  0.00    -0.019 C 
ATOM     13  C   UNL d   1      27.974 -15.231  -4.960  0.00  0.00     0.010 C 
ATOM     14  C   UNL d   1      26.657 -13.136  -4.744  0.00  0.00     0.010 C 
ENDBRANCH  10  12
ENDBRANCH   9  10
ENDBRANCH   6   9
ENDBRANCH   3   5
BRANCH   1  15
ATOM     15  C   UNL d   1      21.471 -19.129  -0.390  0.00  0.00     0.066 A 
ATOM     16  C   UNL d   1      21.434 -18.948   1.004  0.00  0.00     0.020 A 
ATOM     17  C   UNL d   1      20.331 -19.380   1.764  0.00  0.00     0.008 A 
ATOM     18  C   UNL d   1      19.235 -19.992   1.152  0.00  0.00    -0.059 A 
ATOM     19  C   UNL d   1      18.032 -20.442   1.932  0.00  0.00     0.048 C 
ATOM     20  C   UNL d   1      19.267 -20.186  -0.231  0.00  0.00     0.044 A 
ATOM     21  C   UNL d   1      20.368 -19.769  -0.988  0.00  0.00     0.082 A 
BRANCH  21  22
ATOM     22  O   UNL d   1      20.276 -20.038  -2.331  0.00  0.00    -0.360 OA
ATOM     23  H   UNL d   1      21.088 -19.704  -2.768  0.00  0.00     0.217 HD
ENDBRANCH  21  22
ENDBRANCH   1  15
TORSDOF 6
ENDMDL
MODEL 9
REMARK VINA RESULT:    -6.335      5.861      7.872
REMARK INTER + INTRA:         -10.069
REMARK INTER:                  -8.125
REMARK INTRA:                  -1.944
REMARK CONF_INDEPENDENT:        1.790
REMARK UNBOUND:                -1.944
REMARK  6 active torsions:
REMARK  status: ('A' for Active; 'I' for Inactive)
REMARK    1  A    between atoms: C_5  and  C_6 
REMARK       I    between atoms: C_6  and  N_8 
REMARK    2  A    between atoms: N_8  and  N_9 
REMARK       I    between atoms: N_9  and  C_10 
REMARK    3  A    between atoms: C_10  and  C_12 
REMARK    4  A    between atoms: C_12  and  C_13 
REMARK    5  A    between atoms: C_13  and  C_15 
REMARK    6  A    between atoms: C_18  and  O_19 
ROOT
ATOM      1  C   UNL d   1      27.389 -13.566   2.709  0.00  0.00     0.272 C 
ATOM      2  O   UNL d   1      26.795 -12.680   2.085  0.00  0.00    -0.266 OA
ATOM      3  N   UNL d   1      27.647 -14.808   2.155  0.00  0.00    -0.263 N 
ATOM      4  H   UNL d   1      28.135 -15.569   2.624  0.00  0.00     0.190 HD
ENDROOT
BRANCH   3   5
ATOM      5  N   UNL d   1      27.218 -15.121   0.841  0.00  0.00    -0.267 N 
ATOM      6  C   UNL d   1      27.100 -16.462   0.522  0.00  0.00     0.236 C 
ATOM      7  O   UNL d   1      27.390 -17.329   1.348  0.00  0.00    -0.272 OA
ATOM      8  H   UNL d   1      27.095 -14.350   0.189  0.00  0.00     0.190 HD
BRANCH   6   9
ATOM      9  C   UNL d   1      26.611 -16.771  -0.896  0.00  0.00     0.109 C 
BRANCH   9  10
ATOM     10  C   UNL d   1      25.188 -16.217  -1.191  0.00  0.00    -0.007 C 
ATOM     11  C   UNL d   1      25.147 -15.591  -2.597  0.00  0.00     0.011 C 
BRANCH  10  12
ATOM     12  C   UNL d   1      24.071 -17.302  -1.069  0.00  0.00    -0.019 C 
ATOM     13  C   UNL d   1      24.480 -18.459  -0.155  0.00  0.00     0.010 C 
ATOM     14  C   UNL d   1      22.757 -16.710  -0.528  0.00  0.00     0.010 C 
ENDBRANCH  10  12
ENDBRANCH   9  10
ENDBRANCH   6   9
ENDBRANCH   3   5
BRANCH   1  15
ATOM     15  C   UNL d   1      27.851 -13.293   4.118  0.00  0.00     0.066 A 
ATOM     16  C   UNL d   1      27.961 -11.989   4.633  0.00  0.00     0.020 A 
ATOM     17  C   UNL d   1      28.380 -11.763   5.957  0.00  0.00     0.008 A 
ATOM     18  C   UNL d   1      28.688 -12.832   6.803  0.00  0.00    -0.059 A 
ATOM     19  C   UNL d   1      29.115 -12.625   8.228  0.00  0.00     0.048 C 
ATOM     20  C   UNL d   1      28.592 -14.131   6.297  0.00  0.00     0.044 A 
ATOM     21  C   UNL d   1      28.188 -14.357   4.976  0.00  0.00     0.082 A 
BRANCH  21  22
ATOM     22  O   UNL d   1      28.155 -15.678   4.606  0.00  0.00    -0.360 OA
ATOM     23  H   UNL d   1      28.937 -15.859   4.042  0.00  0.00     0.217 HD
ENDBRANCH  21  22
ENDBRANCH   1  15
TORSDOF 6
ENDMDL
