MODEL 1
REMARK VINA RESULT:   -31.587      0.000      0.000
REMARK INTER + INTRA:         -35.371
REMARK INTER:                 -33.675
REMARK INTRA:                  -1.696
REMARK CONF_INDEPENDENT:        2.088
REMARK UNBOUND:                -1.696
REMARK  7 active torsions:
REMARK  status: ('A' for Active; 'I' for Inactive)
REMARK    1  A    between atoms: C_2  and  C_3 
REMARK       I    between atoms: C_2  and  N_24 
REMARK    2  A    between atoms: C_3  and  O_4 
REMARK    3  A    between atoms: O_4  and  C_5 
REMARK    4  A    between atoms: C_5  and  C_7 
REMARK    5  A    between atoms: C_9  and  C_10 
REMARK    6  A    between atoms: N_17  and  C_18 
REMARK    7  A    between atoms: N_24  and  C_25 
ROOT
ATOM      1  C   UNL d   1      28.561 -15.572  -1.530  0.00  0.00     0.312 C 
ATOM      2  O   UNL d   1      29.318 -15.499  -0.565  0.00  0.00    -0.258 OA
ENDROOT
BRANCH   1   3
ATOM      3  O   UNL d   1      27.228 -15.247  -1.456  0.00  0.00    -0.307 OA
BRANCH   3   4
ATOM      4  C   UNL d   1      26.495 -15.978  -0.429  0.00  0.00     0.282 C 
BRANCH   4   5
ATOM      5  C   UNL d   1      26.425 -17.489  -0.599  0.00  0.00     0.246 C 
ATOM      6  O   UNL d   1      27.480 -18.146  -0.502  0.00  0.00    -0.271 OA
ATOM      7  N   UNL d   1      25.241 -18.211  -0.721  0.00  0.00    -0.332 N 
ATOM      8  H   UNL d   1      25.586 -19.156  -0.497  0.00  0.00     0.168 HD
BRANCH   7   9
ATOM      9  C   UNL d   1      23.765 -18.268  -0.851  0.00  0.00     0.003 C 
ATOM     10  C   UNL d   1      23.388 -18.985   0.230  0.00  0.00     0.052 C 
ATOM     11  C   UNL d   1      22.299 -18.452   0.859  0.00  0.00     0.054 C 
ATOM     12  C   UNL d   1      21.293 -18.951   0.186  0.00  0.00     0.023 C 
ATOM     13  N   UNL d   1      20.787 -20.177   0.507  0.00  0.00    -0.318 N 
ATOM     14  C   UNL d   1      20.976 -18.331  -0.971  0.00  0.00     0.095 C 
ATOM     15  C   UNL d   1      19.634 -20.280  -0.153  0.00  0.00     0.299 C 
ATOM     16  H   UNL d   1      21.080 -20.664   1.338  0.00  0.00     0.169 HD
ATOM     17  O   UNL d   1      18.682 -20.988   0.283  0.00  0.00    -0.254 OA
ATOM     18  N   UNL d   1      19.747 -19.325  -1.272  0.00  0.00    -0.226 NA
ATOM     19  H   UNL d   1      18.782 -18.992  -1.408  0.00  0.00     0.133 HD
ATOM     20  C   UNL d   1      22.455 -17.808  -1.480  0.00  0.00     0.075 C 
ENDBRANCH   7   9
ENDBRANCH   4   5
ENDBRANCH   3   4
ENDBRANCH   1   3
BRANCH   1  21
ATOM     21  C   UNL d   1      28.959 -15.992  -2.855  0.00  0.00     0.136 A 
ATOM     22  C   UNL d   1      29.867 -16.963  -3.246  0.00  0.00     0.072 A 
ATOM     23  C   UNL d   1      29.814 -17.031  -4.661  0.00  0.00     0.090 A 
ATOM     24  N   UNL d   1      28.858 -16.218  -5.132  0.00  0.00    -0.166 NA
ATOM     25  N   UNL d   1      28.343 -15.594  -4.032  0.00  0.00    -0.227 N 
BRANCH  23  26
ATOM     26  C   UNL d   1      30.598 -17.912  -5.533  0.00  0.00    -0.006 A 
ATOM     27  C   UNL d   1      31.193 -17.441  -6.712  0.00  0.00     0.014 A 
ATOM     28  C   UNL d   1      31.844 -18.328  -7.581  0.00  0.00     0.001 A 
ATOM     29  C   UNL d   1      31.994 -19.669  -7.232  0.00  0.00     0.000 A 
ATOM     30  C   UNL d   1      31.447 -20.138  -6.040  0.00  0.00     0.001 A 
ATOM     31  C   UNL d   1      30.750 -19.265  -5.197  0.00  0.00     0.014 A 
ENDBRANCH  23  26
BRANCH  25  32
ATOM     32  C   UNL d   1      27.389 -14.559  -4.207  0.00  0.00     0.059 A 
ATOM     33  C   UNL d   1      26.021 -14.860  -4.241  0.00  0.00     0.031 A 
ATOM     34  C   UNL d   1      25.099 -13.844  -4.511  0.00  0.00     0.002 A 
ATOM     35  C   UNL d   1      25.532 -12.530  -4.689  0.00  0.00     0.000 A 
ATOM     36  C   UNL d   1      26.896 -12.234  -4.649  0.00  0.00     0.002 A 
ATOM     37  C   UNL d   1      27.827 -13.244  -4.405  0.00  0.00     0.031 A 
ENDBRANCH  25  32
ENDBRANCH   1  21
TORSDOF 7
ENDMDL
MODEL 2
REMARK VINA RESULT:   -31.556      2.063      5.668
REMARK INTER + INTRA:         -35.393
REMARK INTER:                 -33.644
REMARK INTRA:                  -1.749
REMARK CONF_INDEPENDENT:        2.088
REMARK UNBOUND:                -1.749
REMARK  7 active torsions:
REMARK  status: ('A' for Active; 'I' for Inactive)
REMARK    1  A    between atoms: C_2  and  C_3 
REMARK       I    between atoms: C_2  and  N_24 
REMARK    2  A    between atoms: C_3  and  O_4 
REMARK    3  A    between atoms: O_4  and  C_5 
REMARK    4  A    between atoms: C_5  and  C_7 
REMARK    5  A    between atoms: C_9  and  C_10 
REMARK    6  A    between atoms: N_17  and  C_18 
REMARK    7  A    between atoms: N_24  and  C_25 
ROOT
ATOM      1  C   UNL d   1      25.535 -15.005  -3.153  0.00  0.00     0.312 C 
ATOM      2  O   UNL d   1      25.533 -16.098  -3.713  0.00  0.00    -0.258 OA
ENDROOT
BRANCH   1   3
ATOM      3  O   UNL d   1      25.184 -14.845  -1.834  0.00  0.00    -0.307 OA
BRANCH   3   4
ATOM      4  C   UNL d   1      26.111 -15.464  -0.894  0.00  0.00     0.282 C 
BRANCH   4   5
ATOM      5  C   UNL d   1      26.148 -16.985  -0.887  0.00  0.00     0.246 C 
ATOM      6  O   UNL d   1      27.256 -17.550  -0.798  0.00  0.00    -0.271 OA
ATOM      7  N   UNL d   1      25.019 -17.798  -0.836  0.00  0.00    -0.332 N 
ATOM      8  H   UNL d   1      25.452 -18.683  -0.534  0.00  0.00     0.168 HD
BRANCH   7   9
ATOM      9  C   UNL d   1      23.546 -17.973  -0.845  0.00  0.00     0.003 C 
ATOM     10  C   UNL d   1      23.339 -18.891   0.123  0.00  0.00     0.052 C 
ATOM     11  C   UNL d   1      22.281 -18.575   0.927  0.00  0.00     0.054 C 
ATOM     12  C   UNL d   1      21.255 -19.050   0.268  0.00  0.00     0.023 C 
ATOM     13  N   UNL d   1      20.883 -20.355   0.415  0.00  0.00    -0.318 N 
ATOM     14  C   UNL d   1      20.774 -18.282  -0.732  0.00  0.00     0.095 C 
ATOM     15  C   UNL d   1      19.681 -20.457  -0.150  0.00  0.00     0.299 C 
ATOM     16  H   UNL d   1      21.297 -20.942   1.120  0.00  0.00     0.169 HD
ATOM     17  O   UNL d   1      18.837 -21.315   0.237  0.00  0.00    -0.254 OA
ATOM     18  N   UNL d   1      19.604 -19.325  -1.093  0.00  0.00    -0.226 NA
ATOM     19  H   UNL d   1      18.606 -19.068  -1.086  0.00  0.00     0.133 HD
ATOM     20  C   UNL d   1      22.147 -17.543  -1.270  0.00  0.00     0.075 C 
ENDBRANCH   7   9
ENDBRANCH   4   5
ENDBRANCH   3   4
ENDBRANCH   1   3
BRANCH   1  21
ATOM     21  C   UNL d   1      25.909 -13.760  -3.785  0.00  0.00     0.136 A 
ATOM     22  C   UNL d   1      25.270 -12.531  -3.780  0.00  0.00     0.072 A 
ATOM     23  C   UNL d   1      26.106 -11.627  -4.483  0.00  0.00     0.090 A 
ATOM     24  N   UNL d   1      27.254 -12.227  -4.829  0.00  0.00    -0.166 NA
ATOM     25  N   UNL d   1      27.128 -13.518  -4.402  0.00  0.00    -0.227 N 
BRANCH  23  26
ATOM     26  C   UNL d   1      25.851 -10.206  -4.741  0.00  0.00    -0.006 A 
ATOM     27  C   UNL d   1      25.760  -9.700  -6.045  0.00  0.00     0.014 A 
ATOM     28  C   UNL d   1      25.625  -8.322  -6.263  0.00  0.00     0.001 A 
ATOM     29  C   UNL d   1      25.478  -7.452  -5.184  0.00  0.00     0.000 A 
ATOM     30  C   UNL d   1      25.521  -7.950  -3.884  0.00  0.00     0.001 A 
ATOM     31  C   UNL d   1      25.710  -9.319  -3.664  0.00  0.00     0.014 A 
ENDBRANCH  23  26
BRANCH  25  32
ATOM     32  C   UNL d   1      28.134 -14.461  -4.738  0.00  0.00     0.059 A 
ATOM     33  C   UNL d   1      28.523 -14.629  -6.073  0.00  0.00     0.031 A 
ATOM     34  C   UNL d   1      29.443 -15.629  -6.402  0.00  0.00     0.002 A 
ATOM     35  C   UNL d   1      30.013 -16.416  -5.400  0.00  0.00     0.000 A 
ATOM     36  C   UNL d   1      29.625 -16.242  -4.071  0.00  0.00     0.002 A 
ATOM     37  C   UNL d   1      28.689 -15.263  -3.735  0.00  0.00     0.031 A 
ENDBRANCH  25  32
ENDBRANCH   1  21
TORSDOF 7
ENDMDL
MODEL 3
REMARK VINA RESULT:   -31.413      3.465      6.185
REMARK INTER + INTRA:         -35.266
REMARK INTER:                 -33.501
REMARK INTRA:                  -1.766
REMARK CONF_INDEPENDENT:        2.088
REMARK UNBOUND:                -1.766
REMARK  7 active torsions:
REMARK  status: ('A' for Active; 'I' for Inactive)
REMARK    1  A    between atoms: C_2  and  C_3 
REMARK       I    between atoms: C_2  and  N_24 
REMARK    2  A    between atoms: C_3  and  O_4 
REMARK    3  A    between atoms: O_4  and  C_5 
REMARK    4  A    between atoms: C_5  and  C_7 
REMARK    5  A    between atoms: C_9  and  C_10 
REMARK    6  A    between atoms: N_17  and  C_18 
REMARK    7  A    between atoms: N_24  and  C_25 
ROOT
ATOM      1  C   UNL d   1      25.512 -14.728  -3.276  0.00  0.00     0.312 C 
ATOM      2  O   UNL d   1      25.239 -15.303  -4.327  0.00  0.00    -0.258 OA
ENDROOT
BRANCH   1   3
ATOM      3  O   UNL d   1      25.565 -15.377  -2.066  0.00  0.00    -0.307 OA
BRANCH   3   4
ATOM      4  C   UNL d   1      26.652 -16.342  -1.958  0.00  0.00     0.282 C 
BRANCH   4   5
ATOM      5  C   UNL d   1      26.486 -17.429  -0.906  0.00  0.00     0.246 C 
ATOM      6  O   UNL d   1      27.489 -17.781  -0.254  0.00  0.00    -0.271 OA
ATOM      7  N   UNL d   1      25.262 -17.968  -0.521  0.00  0.00    -0.332 N 
ATOM      8  H   UNL d   1      25.532 -18.396   0.377  0.00  0.00     0.168 HD
BRANCH   7   9
ATOM      9  C   UNL d   1      23.792 -18.089  -0.677  0.00  0.00     0.003 C 
ATOM     10  C   UNL d   1      23.447 -18.942   0.312  0.00  0.00     0.052 C 
ATOM     11  C   UNL d   1      22.325 -18.543   0.981  0.00  0.00     0.054 C 
ATOM     12  C   UNL d   1      21.353 -19.016   0.243  0.00  0.00     0.023 C 
ATOM     13  N   UNL d   1      20.913 -20.295   0.417  0.00  0.00    -0.318 N 
ATOM     14  C   UNL d   1      21.013 -18.288  -0.842  0.00  0.00     0.095 C 
ATOM     15  C   UNL d   1      19.773 -20.386  -0.265  0.00  0.00     0.299 C 
ATOM     16  H   UNL d   1      21.226 -20.856   1.193  0.00  0.00     0.169 HD
ATOM     17  O   UNL d   1      18.858 -21.189   0.075  0.00  0.00    -0.254 OA
ATOM     18  N   UNL d   1      19.842 -19.306  -1.270  0.00  0.00    -0.226 NA
ATOM     19  H   UNL d   1      18.861 -19.013  -1.381  0.00  0.00     0.133 HD
ATOM     20  C   UNL d   1      22.464 -17.632  -1.269  0.00  0.00     0.075 C 
ENDBRANCH   7   9
ENDBRANCH   4   5
ENDBRANCH   3   4
ENDBRANCH   1   3
BRANCH   1  21
ATOM     21  C   UNL d   1      25.818 -13.319  -3.167  0.00  0.00     0.136 A 
ATOM     22  C   UNL d   1      25.352 -12.247  -3.911  0.00  0.00     0.072 A 
ATOM     23  C   UNL d   1      25.901 -11.074  -3.333  0.00  0.00     0.090 A 
ATOM     24  N   UNL d   1      26.596 -11.381  -2.228  0.00  0.00    -0.166 NA
ATOM     25  N   UNL d   1      26.539 -12.741  -2.134  0.00  0.00    -0.227 N 
BRANCH  23  26
ATOM     26  C   UNL d   1      25.695  -9.691  -3.776  0.00  0.00    -0.006 A 
ATOM     27  C   UNL d   1      25.797  -8.612  -2.888  0.00  0.00     0.014 A 
ATOM     28  C   UNL d   1      25.488  -7.312  -3.314  0.00  0.00     0.001 A 
ATOM     29  C   UNL d   1      25.176  -7.067  -4.650  0.00  0.00     0.000 A 
ATOM     30  C   UNL d   1      25.117  -8.127  -5.551  0.00  0.00     0.001 A 
ATOM     31  C   UNL d   1      25.372  -9.432  -5.116  0.00  0.00     0.014 A 
ENDBRANCH  23  26
BRANCH  25  32
ATOM     32  C   UNL d   1      27.299 -13.398  -1.131  0.00  0.00     0.059 A 
ATOM     33  C   UNL d   1      28.639 -13.729  -1.366  0.00  0.00     0.031 A 
ATOM     34  C   UNL d   1      29.346 -14.463  -0.408  0.00  0.00     0.002 A 
ATOM     35  C   UNL d   1      28.737 -14.814   0.798  0.00  0.00     0.000 A 
ATOM     36  C   UNL d   1      27.403 -14.478   1.030  0.00  0.00     0.002 A 
ATOM     37  C   UNL d   1      26.681 -13.767   0.070  0.00  0.00     0.031 A 
ENDBRANCH  25  32
ENDBRANCH   1  21
TORSDOF 7
ENDMDL
MODEL 4
REMARK VINA RESULT:   -31.251      1.948      2.907
REMARK INTER + INTRA:         -35.051
REMARK INTER:                 -33.339
REMARK INTRA:                  -1.712
REMARK CONF_INDEPENDENT:        2.088
REMARK UNBOUND:                -1.712
REMARK  7 active torsions:
REMARK  status: ('A' for Active; 'I' for Inactive)
REMARK    1  A    between atoms: C_2  and  C_3 
REMARK       I    between atoms: C_2  and  N_24 
REMARK    2  A    between atoms: C_3  and  O_4 
REMARK    3  A    between atoms: O_4  and  C_5 
REMARK    4  A    between atoms: C_5  and  C_7 
REMARK    5  A    between atoms: C_9  and  C_10 
REMARK    6  A    between atoms: N_17  and  C_18 
REMARK    7  A    between atoms: N_24  and  C_25 
ROOT
ATOM      1  C   UNL d   1      25.459 -14.764  -3.356  0.00  0.00     0.312 C 
ATOM      2  O   UNL d   1      24.538 -14.107  -3.835  0.00  0.00    -0.258 OA
ENDROOT
BRANCH   1   3
ATOM      3  O   UNL d   1      25.279 -15.656  -2.327  0.00  0.00    -0.307 OA
BRANCH   3   4
ATOM      4  C   UNL d   1      26.502 -16.326  -1.901  0.00  0.00     0.282 C 
BRANCH   4   5
ATOM      5  C   UNL d   1      26.336 -17.456  -0.896  0.00  0.00     0.246 C 
ATOM      6  O   UNL d   1      27.339 -17.836  -0.261  0.00  0.00    -0.271 OA
ATOM      7  N   UNL d   1      25.112 -18.011  -0.533  0.00  0.00    -0.332 N 
ATOM      8  H   UNL d   1      25.382 -18.476   0.346  0.00  0.00     0.168 HD
BRANCH   7   9
ATOM      9  C   UNL d   1      23.642 -18.124  -0.693  0.00  0.00     0.003 C 
ATOM     10  C   UNL d   1      23.284 -18.945   0.318  0.00  0.00     0.052 C 
ATOM     11  C   UNL d   1      22.163 -18.517   0.970  0.00  0.00     0.054 C 
ATOM     12  C   UNL d   1      21.191 -19.004   0.241  0.00  0.00     0.023 C 
ATOM     13  N   UNL d   1      20.739 -20.274   0.450  0.00  0.00    -0.318 N 
ATOM     14  C   UNL d   1      20.861 -18.305  -0.866  0.00  0.00     0.095 C 
ATOM     15  C   UNL d   1      19.601 -20.374  -0.235  0.00  0.00     0.299 C 
ATOM     16  H   UNL d   1      21.043 -20.814   1.243  0.00  0.00     0.169 HD
ATOM     17  O   UNL d   1      18.678 -21.160   0.124  0.00  0.00    -0.254 OA
ATOM     18  N   UNL d   1      19.685 -19.325  -1.270  0.00  0.00    -0.226 NA
ATOM     19  H   UNL d   1      18.706 -19.026  -1.395  0.00  0.00     0.133 HD
ATOM     20  C   UNL d   1      22.320 -17.673  -1.305  0.00  0.00     0.075 C 
ENDBRANCH   7   9
ENDBRANCH   4   5
ENDBRANCH   3   4
ENDBRANCH   1   3
BRANCH   1  21
ATOM     21  C   UNL d   1      26.832 -14.700  -3.805  0.00  0.00     0.136 A 
ATOM     22  C   UNL d   1      27.442 -15.302  -4.894  0.00  0.00     0.072 A 
ATOM     23  C   UNL d   1      28.781 -14.838  -4.925  0.00  0.00     0.090 A 
ATOM     24  N   UNL d   1      28.979 -13.920  -3.967  0.00  0.00    -0.166 NA
ATOM     25  N   UNL d   1      27.794 -13.841  -3.295  0.00  0.00    -0.227 N 
BRANCH  23  26
ATOM     26  C   UNL d   1      29.819 -15.199  -5.897  0.00  0.00    -0.006 A 
ATOM     27  C   UNL d   1      30.164 -16.535  -6.142  0.00  0.00     0.014 A 
ATOM     28  C   UNL d   1      31.233 -16.845  -6.994  0.00  0.00     0.001 A 
ATOM     29  C   UNL d   1      31.897 -15.834  -7.685  0.00  0.00     0.000 A 
ATOM     30  C   UNL d   1      31.531 -14.505  -7.483  0.00  0.00     0.001 A 
ATOM     31  C   UNL d   1      30.500 -14.189  -6.592  0.00  0.00     0.014 A 
ENDBRANCH  23  26
BRANCH  25  32
ATOM     32  C   UNL d   1      27.714 -13.044  -2.124  0.00  0.00     0.059 A 
ATOM     33  C   UNL d   1      28.051 -13.587  -0.877  0.00  0.00     0.031 A 
ATOM     34  C   UNL d   1      27.873 -12.821   0.279  0.00  0.00     0.002 A 
ATOM     35  C   UNL d   1      27.418 -11.505   0.187  0.00  0.00     0.000 A 
ATOM     36  C   UNL d   1      27.088 -10.966  -1.058  0.00  0.00     0.002 A 
ATOM     37  C   UNL d   1      27.238 -11.730  -2.216  0.00  0.00     0.031 A 
ENDBRANCH  25  32
ENDBRANCH   1  21
TORSDOF 7
ENDMDL
MODEL 5
REMARK VINA RESULT:   -31.245      1.410      2.105
REMARK INTER + INTRA:         -34.665
REMARK INTER:                 -33.333
REMARK INTRA:                  -1.332
REMARK CONF_INDEPENDENT:        2.088
REMARK UNBOUND:                -1.332
REMARK  7 active torsions:
REMARK  status: ('A' for Active; 'I' for Inactive)
REMARK    1  A    between atoms: C_2  and  C_3 
REMARK       I    between atoms: C_2  and  N_24 
REMARK    2  A    between atoms: C_3  and  O_4 
REMARK    3  A    between atoms: O_4  and  C_5 
REMARK    4  A    between atoms: C_5  and  C_7 
REMARK    5  A    between atoms: C_9  and  C_10 
REMARK    6  A    between atoms: N_17  and  C_18 
REMARK    7  A    between atoms: N_24  and  C_25 
ROOT
ATOM      1  C   UNL d   1      26.346 -14.845  -2.806  0.00  0.00     0.312 C 
ATOM      2  O   UNL d   1      25.170 -15.131  -3.024  0.00  0.00    -0.258 OA
ENDROOT
BRANCH   1   3
ATOM      3  O   UNL d   1      26.825 -14.585  -1.545  0.00  0.00    -0.307 OA
BRANCH   3   4
ATOM      4  C   UNL d   1      26.164 -15.343  -0.490  0.00  0.00     0.282 C 
BRANCH   4   5
ATOM      5  C   UNL d   1      26.235 -16.859  -0.603  0.00  0.00     0.246 C 
ATOM      6  O   UNL d   1      27.351 -17.408  -0.510  0.00  0.00    -0.271 OA
ATOM      7  N   UNL d   1      25.124 -17.695  -0.669  0.00  0.00    -0.332 N 
ATOM      8  H   UNL d   1      25.563 -18.593  -0.419  0.00  0.00     0.168 HD
BRANCH   7   9
ATOM      9  C   UNL d   1      23.657 -17.897  -0.758  0.00  0.00     0.003 C 
ATOM     10  C   UNL d   1      23.411 -18.800   0.215  0.00  0.00     0.052 C 
ATOM     11  C   UNL d   1      22.303 -18.490   0.951  0.00  0.00     0.054 C 
ATOM     12  C   UNL d   1      21.324 -18.995   0.244  0.00  0.00     0.023 C 
ATOM     13  N   UNL d   1      20.968 -20.303   0.394  0.00  0.00    -0.318 N 
ATOM     14  C   UNL d   1      20.889 -18.254  -0.797  0.00  0.00     0.095 C 
ATOM     15  C   UNL d   1      19.802 -20.438  -0.236  0.00  0.00     0.299 C 
ATOM     16  H   UNL d   1      21.350 -20.870   1.133  0.00  0.00     0.169 HD
ATOM     17  O   UNL d   1      18.952 -21.305   0.119  0.00  0.00    -0.254 OA
ATOM     18  N   UNL d   1      19.759 -19.325  -1.204  0.00  0.00    -0.226 NA
ATOM     19  H   UNL d   1      18.758 -19.086  -1.258  0.00  0.00     0.133 HD
ATOM     20  C   UNL d   1      22.278 -17.500  -1.270  0.00  0.00     0.075 C 
ENDBRANCH   7   9
ENDBRANCH   4   5
ENDBRANCH   3   4
ENDBRANCH   1   3
BRANCH   1  21
ATOM     21  C   UNL d   1      27.370 -14.754  -3.822  0.00  0.00     0.136 A 
ATOM     22  C   UNL d   1      28.262 -15.712  -4.276  0.00  0.00     0.072 A 
ATOM     23  C   UNL d   1      28.988 -15.126  -5.343  0.00  0.00     0.090 A 
ATOM     24  N   UNL d   1      28.515 -13.901  -5.612  0.00  0.00    -0.166 NA
ATOM     25  N   UNL d   1      27.535 -13.684  -4.688  0.00  0.00    -0.227 N 
BRANCH  23  26
ATOM     26  C   UNL d   1      30.048 -15.754  -6.140  0.00  0.00    -0.006 A 
ATOM     27  C   UNL d   1      30.897 -14.998  -6.960  0.00  0.00     0.014 A 
ATOM     28  C   UNL d   1      31.828 -15.634  -7.793  0.00  0.00     0.001 A 
ATOM     29  C   UNL d   1      31.989 -17.017  -7.739  0.00  0.00     0.000 A 
ATOM     30  C   UNL d   1      31.182 -17.774  -6.893  0.00  0.00     0.001 A 
ATOM     31  C   UNL d   1      30.215 -17.146  -6.100  0.00  0.00     0.014 A 
ENDBRANCH  23  26
BRANCH  25  32
ATOM     32  C   UNL d   1      26.919 -12.407  -4.619  0.00  0.00     0.059 A 
ATOM     33  C   UNL d   1      27.080 -11.489  -5.664  0.00  0.00     0.031 A 
ATOM     34  C   UNL d   1      26.551 -10.201  -5.538  0.00  0.00     0.002 A 
ATOM     35  C   UNL d   1      25.817  -9.851  -4.404  0.00  0.00     0.000 A 
ATOM     36  C   UNL d   1      25.654 -10.770  -3.367  0.00  0.00     0.002 A 
ATOM     37  C   UNL d   1      26.200 -12.050  -3.471  0.00  0.00     0.031 A 
ENDBRANCH  25  32
ENDBRANCH   1  21
TORSDOF 7
ENDMDL
MODEL 6
REMARK VINA RESULT:   -31.004      4.497      7.236
REMARK INTER + INTRA:         -34.434
REMARK INTER:                 -33.092
REMARK INTRA:                  -1.342
REMARK CONF_INDEPENDENT:        2.088
REMARK UNBOUND:                -1.342
REMARK  7 active torsions:
REMARK  status: ('A' for Active; 'I' for Inactive)
REMARK    1  A    between atoms: C_2  and  C_3 
REMARK       I    between atoms: C_2  and  N_24 
REMARK    2  A    between atoms: C_3  and  O_4 
REMARK    3  A    between atoms: O_4  and  C_5 
REMARK    4  A    between atoms: C_5  and  C_7 
REMARK    5  A    between atoms: C_9  and  C_10 
REMARK    6  A    between atoms: N_17  and  C_18 
REMARK    7  A    between atoms: N_24  and  C_25 
ROOT
ATOM      1  C   UNL d   1      27.785 -15.232   0.904  0.00  0.00     0.312 C 
ATOM      2  O   UNL d   1      28.643 -16.008   0.489  0.00  0.00    -0.258 OA
ENDROOT
BRANCH   1   3
ATOM      3  O   UNL d   1      26.539 -15.129   0.336  0.00  0.00    -0.307 OA
BRANCH   3   4
ATOM      4  C   UNL d   1      26.378 -15.906  -0.887  0.00  0.00     0.282 C 
BRANCH   4   5
ATOM      5  C   UNL d   1      26.300 -17.417  -0.719  0.00  0.00     0.246 C 
ATOM      6  O   UNL d   1      27.352 -18.041  -0.478  0.00  0.00    -0.271 OA
ATOM      7  N   UNL d   1      25.113 -18.143  -0.683  0.00  0.00    -0.332 N 
ATOM      8  H   UNL d   1      25.452 -19.016  -0.255  0.00  0.00     0.168 HD
BRANCH   7   9
ATOM      9  C   UNL d   1      23.636 -18.219  -0.801  0.00  0.00     0.003 C 
ATOM     10  C   UNL d   1      23.286 -19.017   0.231  0.00  0.00     0.052 C 
ATOM     11  C   UNL d   1      22.194 -18.552   0.907  0.00  0.00     0.054 C 
ATOM     12  C   UNL d   1      21.190 -19.022   0.212  0.00  0.00     0.023 C 
ATOM     13  N   UNL d   1      20.712 -20.277   0.451  0.00  0.00    -0.318 N 
ATOM     14  C   UNL d   1      20.848 -18.330  -0.895  0.00  0.00     0.095 C 
ATOM     15  C   UNL d   1      19.553 -20.357  -0.202  0.00  0.00     0.299 C 
ATOM     16  H   UNL d   1      21.024 -20.815   1.243  0.00  0.00     0.169 HD
ATOM     17  O   UNL d   1      18.620 -21.114   0.193  0.00  0.00    -0.254 OA
ATOM     18  N   UNL d   1      19.635 -19.325  -1.253  0.00  0.00    -0.226 NA
ATOM     19  H   UNL d   1      18.662 -19.003  -1.355  0.00  0.00     0.133 HD
ATOM     20  C   UNL d   1      22.311 -17.743  -1.383  0.00  0.00     0.075 C 
ENDBRANCH   7   9
ENDBRANCH   4   5
ENDBRANCH   3   4
ENDBRANCH   1   3
BRANCH   1  21
ATOM     21  C   UNL d   1      27.960 -14.344   2.032  0.00  0.00     0.136 A 
ATOM     22  C   UNL d   1      28.093 -14.633   3.380  0.00  0.00     0.072 A 
ATOM     23  C   UNL d   1      28.326 -13.403   4.045  0.00  0.00     0.090 A 
ATOM     24  N   UNL d   1      28.430 -12.405   3.155  0.00  0.00    -0.166 NA
ATOM     25  N   UNL d   1      28.209 -12.983   1.939  0.00  0.00    -0.227 N 
BRANCH  23  26
ATOM     26  C   UNL d   1      28.528 -13.200   5.483  0.00  0.00    -0.006 A 
ATOM     27  C   UNL d   1      28.358 -11.942   6.080  0.00  0.00     0.014 A 
ATOM     28  C   UNL d   1      28.664 -11.754   7.435  0.00  0.00     0.001 A 
ATOM     29  C   UNL d   1      29.042 -12.837   8.226  0.00  0.00     0.000 A 
ATOM     30  C   UNL d   1      29.169 -14.100   7.653  0.00  0.00     0.001 A 
ATOM     31  C   UNL d   1      28.916 -14.279   6.289  0.00  0.00     0.014 A 
ENDBRANCH  23  26
BRANCH  25  32
ATOM     32  C   UNL d   1      28.119 -12.160   0.786  0.00  0.00     0.059 A 
ATOM     33  C   UNL d   1      27.435 -10.939   0.844  0.00  0.00     0.031 A 
ATOM     34  C   UNL d   1      27.270 -10.186  -0.322  0.00  0.00     0.002 A 
ATOM     35  C   UNL d   1      27.831 -10.619  -1.524  0.00  0.00     0.000 A 
ATOM     36  C   UNL d   1      28.516 -11.834  -1.576  0.00  0.00     0.002 A 
ATOM     37  C   UNL d   1      28.666 -12.606  -0.423  0.00  0.00     0.031 A 
ENDBRANCH  25  32
ENDBRANCH   1  21
TORSDOF 7
ENDMDL
MODEL 7
REMARK VINA RESULT:   -31.001      3.390      5.551
REMARK INTER + INTRA:         -34.758
REMARK INTER:                 -33.089
REMARK INTRA:                  -1.670
REMARK CONF_INDEPENDENT:        2.088
REMARK UNBOUND:                -1.670
REMARK  7 active torsions:
REMARK  status: ('A' for Active; 'I' for Inactive)
REMARK    1  A    between atoms: C_2  and  C_3 
REMARK       I    between atoms: C_2  and  N_24 
REMARK    2  A    between atoms: C_3  and  O_4 
REMARK    3  A    between atoms: O_4  and  C_5 
REMARK    4  A    between atoms: C_5  and  C_7 
REMARK    5  A    between atoms: C_9  and  C_10 
REMARK    6  A    between atoms: N_17  and  C_18 
REMARK    7  A    between atoms: N_24  and  C_25 
ROOT
ATOM      1  C   UNL d   1      25.028 -14.637  -2.848  0.00  0.00     0.312 C 
ATOM      2  O   UNL d   1      24.312 -14.043  -3.650  0.00  0.00    -0.258 OA
ENDROOT
BRANCH   1   3
ATOM      3  O   UNL d   1      25.153 -16.004  -2.834  0.00  0.00    -0.307 OA
BRANCH   3   4
ATOM      4  C   UNL d   1      26.386 -16.482  -2.219  0.00  0.00     0.282 C 
BRANCH   4   5
ATOM      5  C   UNL d   1      26.228 -17.432  -1.041  0.00  0.00     0.246 C 
ATOM      6  O   UNL d   1      27.235 -17.701  -0.357  0.00  0.00    -0.271 OA
ATOM      7  N   UNL d   1      25.007 -17.921  -0.585  0.00  0.00    -0.332 N 
ATOM      8  H   UNL d   1      25.283 -18.235   0.357  0.00  0.00     0.168 HD
BRANCH   7   9
ATOM      9  C   UNL d   1      23.536 -18.060  -0.716  0.00  0.00     0.003 C 
ATOM     10  C   UNL d   1      23.222 -18.939   0.261  0.00  0.00     0.052 C 
ATOM     11  C   UNL d   1      22.107 -18.571   0.959  0.00  0.00     0.054 C 
ATOM     12  C   UNL d   1      21.129 -19.044   0.230  0.00  0.00     0.023 C 
ATOM     13  N   UNL d   1      20.712 -20.333   0.385  0.00  0.00    -0.318 N 
ATOM     14  C   UNL d   1      20.757 -18.299  -0.833  0.00  0.00     0.095 C 
ATOM     15  C   UNL d   1      19.560 -20.426  -0.278  0.00  0.00     0.299 C 
ATOM     16  H   UNL d   1      21.047 -20.905   1.143  0.00  0.00     0.169 HD
ATOM     17  O   UNL d   1      18.663 -21.250   0.062  0.00  0.00    -0.254 OA
ATOM     18  N   UNL d   1      19.594 -19.325  -1.261  0.00  0.00    -0.226 NA
ATOM     19  H   UNL d   1      18.606 -19.044  -1.347  0.00  0.00     0.133 HD
ATOM     20  C   UNL d   1      22.190 -17.612  -1.273  0.00  0.00     0.075 C 
ENDBRANCH   7   9
ENDBRANCH   4   5
ENDBRANCH   3   4
ENDBRANCH   1   3
BRANCH   1  21
ATOM     21  C   UNL d   1      25.830 -13.993  -1.832  0.00  0.00     0.136 A 
ATOM     22  C   UNL d   1      25.919 -14.248  -0.473  0.00  0.00     0.072 A 
ATOM     23  C   UNL d   1      26.920 -13.386   0.044  0.00  0.00     0.090 A 
ATOM     24  N   UNL d   1      27.498 -12.695  -0.949  0.00  0.00    -0.166 NA
ATOM     25  N   UNL d   1      26.834 -13.069  -2.081  0.00  0.00    -0.227 N 
BRANCH  23  26
ATOM     26  C   UNL d   1      27.369 -13.290   1.437  0.00  0.00    -0.006 A 
ATOM     27  C   UNL d   1      27.759 -14.423   2.164  0.00  0.00     0.014 A 
ATOM     28  C   UNL d   1      28.078 -14.316   3.525  0.00  0.00     0.001 A 
ATOM     29  C   UNL d   1      28.111 -13.067   4.142  0.00  0.00     0.000 A 
ATOM     30  C   UNL d   1      27.770 -11.928   3.416  0.00  0.00     0.001 A 
ATOM     31  C   UNL d   1      27.398 -12.040   2.072  0.00  0.00     0.014 A 
ENDBRANCH  23  26
BRANCH  25  32
ATOM     32  C   UNL d   1      27.123 -12.408  -3.304  0.00  0.00     0.059 A 
ATOM     33  C   UNL d   1      26.478 -11.207  -3.625  0.00  0.00     0.031 A 
ATOM     34  C   UNL d   1      26.698 -10.620  -4.874  0.00  0.00     0.002 A 
ATOM     35  C   UNL d   1      27.598 -11.195  -5.773  0.00  0.00     0.000 A 
ATOM     36  C   UNL d   1      28.242 -12.389  -5.447  0.00  0.00     0.002 A 
ATOM     37  C   UNL d   1      28.011 -12.998  -4.212  0.00  0.00     0.031 A 
ENDBRANCH  25  32
ENDBRANCH   1  21
TORSDOF 7
ENDMDL
MODEL 8
REMARK VINA RESULT:   -30.937      2.863      5.631
REMARK INTER + INTRA:         -34.647
REMARK INTER:                 -33.025
REMARK INTRA:                  -1.622
REMARK CONF_INDEPENDENT:        2.088
REMARK UNBOUND:                -1.622
REMARK  7 active torsions:
REMARK  status: ('A' for Active; 'I' for Inactive)
REMARK    1  A    between atoms: C_2  and  C_3 
REMARK       I    between atoms: C_2  and  N_24 
REMARK    2  A    between atoms: C_3  and  O_4 
REMARK    3  A    between atoms: O_4  and  C_5 
REMARK    4  A    between atoms: C_5  and  C_7 
REMARK    5  A    between atoms: C_9  and  C_10 
REMARK    6  A    between atoms: N_17  and  C_18 
REMARK    7  A    between atoms: N_24  and  C_25 
ROOT
ATOM      1  C   UNL d   1      25.587 -14.724  -3.364  0.00  0.00     0.312 C 
ATOM      2  O   UNL d   1      25.091 -14.616  -4.484  0.00  0.00    -0.258 OA
ENDROOT
BRANCH   1   3
ATOM      3  O   UNL d   1      25.396 -15.828  -2.570  0.00  0.00    -0.307 OA
BRANCH   3   4
ATOM      4  C   UNL d   1      26.565 -16.201  -1.782  0.00  0.00     0.282 C 
BRANCH   4   5
ATOM      5  C   UNL d   1      26.422 -17.442  -0.912  0.00  0.00     0.246 C 
ATOM      6  O   UNL d   1      27.439 -17.887  -0.344  0.00  0.00    -0.271 OA
ATOM      7  N   UNL d   1      25.208 -18.043  -0.594  0.00  0.00    -0.332 N 
ATOM      8  H   UNL d   1      25.496 -18.606   0.219  0.00  0.00     0.168 HD
BRANCH   7   9
ATOM      9  C   UNL d   1      23.735 -18.146  -0.740  0.00  0.00     0.003 C 
ATOM     10  C   UNL d   1      23.380 -18.950   0.286  0.00  0.00     0.052 C 
ATOM     11  C   UNL d   1      22.268 -18.503   0.941  0.00  0.00     0.054 C 
ATOM     12  C   UNL d   1      21.285 -18.992   0.228  0.00  0.00     0.023 C 
ATOM     13  N   UNL d   1      20.826 -20.255   0.460  0.00  0.00    -0.318 N 
ATOM     14  C   UNL d   1      20.952 -18.307  -0.886  0.00  0.00     0.095 C 
ATOM     15  C   UNL d   1      19.681 -20.356  -0.214  0.00  0.00     0.299 C 
ATOM     16  H   UNL d   1      21.132 -20.787   1.258  0.00  0.00     0.169 HD
ATOM     17  O   UNL d   1      18.754 -21.129   0.164  0.00  0.00    -0.254 OA
ATOM     18  N   UNL d   1      19.764 -19.323  -1.265  0.00  0.00    -0.226 NA
ATOM     19  H   UNL d   1      18.787 -19.018  -1.386  0.00  0.00     0.133 HD
ATOM     20  C   UNL d   1      22.412 -17.694  -1.347  0.00  0.00     0.075 C 
ENDBRANCH   7   9
ENDBRANCH   4   5
ENDBRANCH   3   4
ENDBRANCH   1   3
BRANCH   1  21
ATOM     21  C   UNL d   1      26.431 -13.728  -2.743  0.00  0.00     0.136 A 
ATOM     22  C   UNL d   1      26.275 -13.051  -1.544  0.00  0.00     0.072 A 
ATOM     23  C   UNL d   1      27.434 -12.253  -1.368  0.00  0.00     0.090 A 
ATOM     24  N   UNL d   1      28.315 -12.486  -2.351  0.00  0.00    -0.166 NA
ATOM     25  N   UNL d   1      27.701 -13.381  -3.178  0.00  0.00    -0.227 N 
BRANCH  23  26
ATOM     26  C   UNL d   1      27.726 -11.356  -0.244  0.00  0.00    -0.006 A 
ATOM     27  C   UNL d   1      27.276 -11.634   1.055  0.00  0.00     0.014 A 
ATOM     28  C   UNL d   1      27.476 -10.707   2.087  0.00  0.00     0.001 A 
ATOM     29  C   UNL d   1      28.212  -9.546   1.855  0.00  0.00     0.000 A 
ATOM     30  C   UNL d   1      28.703  -9.283   0.579  0.00  0.00     0.001 A 
ATOM     31  C   UNL d   1      28.459 -10.182  -0.465  0.00  0.00     0.014 A 
ENDBRANCH  23  26
BRANCH  25  32
ATOM     32  C   UNL d   1      28.327 -13.735  -4.402  0.00  0.00     0.059 A 
ATOM     33  C   UNL d   1      28.139 -12.946  -5.544  0.00  0.00     0.031 A 
ATOM     34  C   UNL d   1      28.680 -13.360  -6.764  0.00  0.00     0.002 A 
ATOM     35  C   UNL d   1      29.451 -14.521  -6.834  0.00  0.00     0.000 A 
ATOM     36  C   UNL d   1      29.640 -15.302  -5.692  0.00  0.00     0.002 A 
ATOM     37  C   UNL d   1      29.084 -14.911  -4.474  0.00  0.00     0.031 A 
ENDBRANCH  25  32
ENDBRANCH   1  21
TORSDOF 7
ENDMDL
MODEL 9
REMARK VINA RESULT:   -30.566      2.204      5.063
REMARK INTER + INTRA:         -34.672
REMARK INTER:                 -32.654
REMARK INTRA:                  -2.018
REMARK CONF_INDEPENDENT:        2.088
REMARK UNBOUND:                -2.018
REMARK  7 active torsions:
REMARK  status: ('A' for Active; 'I' for Inactive)
REMARK    1  A    between atoms: C_2  and  C_3 
REMARK       I    between atoms: C_2  and  N_24 
REMARK    2  A    between atoms: C_3  and  O_4 
REMARK    3  A    between atoms: O_4  and  C_5 
REMARK    4  A    between atoms: C_5  and  C_7 
REMARK    5  A    between atoms: C_9  and  C_10 
REMARK    6  A    between atoms: N_17  and  C_18 
REMARK    7  A    between atoms: N_24  and  C_25 
ROOT
ATOM      1  C   UNL d   1      25.671 -15.536  -2.354  0.00  0.00     0.312 C 
ATOM      2  O   UNL d   1      25.261 -16.616  -2.772  0.00  0.00    -0.258 OA
ENDROOT
BRANCH   1   3
ATOM      3  O   UNL d   1      25.660 -15.202  -1.021  0.00  0.00    -0.307 OA
BRANCH   3   4
ATOM      4  C   UNL d   1      26.546 -16.018  -0.198  0.00  0.00     0.282 C 
BRANCH   4   5
ATOM      5  C   UNL d   1      26.478 -17.522  -0.421  0.00  0.00     0.246 C 
ATOM      6  O   UNL d   1      27.529 -18.184  -0.318  0.00  0.00    -0.271 OA
ATOM      7  N   UNL d   1      25.297 -18.236  -0.599  0.00  0.00    -0.332 N 
ATOM      8  H   UNL d   1      25.634 -19.189  -0.398  0.00  0.00     0.168 HD
BRANCH   7   9
ATOM      9  C   UNL d   1      23.824 -18.285  -0.770  0.00  0.00     0.003 C 
ATOM     10  C   UNL d   1      23.408 -18.947   0.332  0.00  0.00     0.052 C 
ATOM     11  C   UNL d   1      22.307 -18.375   0.902  0.00  0.00     0.054 C 
ATOM     12  C   UNL d   1      21.315 -18.895   0.225  0.00  0.00     0.023 C 
ATOM     13  N   UNL d   1      20.788 -20.100   0.587  0.00  0.00    -0.318 N 
ATOM     14  C   UNL d   1      21.040 -18.328  -0.969  0.00  0.00     0.095 C 
ATOM     15  C   UNL d   1      19.653 -20.223  -0.101  0.00  0.00     0.299 C 
ATOM     16  H   UNL d   1      21.051 -20.550   1.448  0.00  0.00     0.169 HD
ATOM     17  O   UNL d   1      18.681 -20.901   0.339  0.00  0.00    -0.254 OA
ATOM     18  N   UNL d   1      19.809 -19.323  -1.260  0.00  0.00    -0.226 NA
ATOM     19  H   UNL d   1      18.852 -18.987  -1.440  0.00  0.00     0.133 HD
ATOM     20  C   UNL d   1      22.538 -17.843  -1.459  0.00  0.00     0.075 C 
ENDBRANCH   7   9
ENDBRANCH   4   5
ENDBRANCH   3   4
ENDBRANCH   1   3
BRANCH   1  21
ATOM     21  C   UNL d   1      26.220 -14.489  -3.187  0.00  0.00     0.136 A 
ATOM     22  C   UNL d   1      25.576 -13.519  -3.938  0.00  0.00     0.072 A 
ATOM     23  C   UNL d   1      26.584 -12.691  -4.493  0.00  0.00     0.090 A 
ATOM     24  N   UNL d   1      27.792 -13.058  -4.040  0.00  0.00    -0.166 NA
ATOM     25  N   UNL d   1      27.562 -14.147  -3.249  0.00  0.00    -0.227 N 
BRANCH  23  26
ATOM     26  C   UNL d   1      26.391 -11.527  -5.364  0.00  0.00    -0.006 A 
ATOM     27  C   UNL d   1      26.588 -11.605  -6.750  0.00  0.00     0.014 A 
ATOM     28  C   UNL d   1      26.503 -10.453  -7.544  0.00  0.00     0.001 A 
ATOM     29  C   UNL d   1      26.121  -9.238  -6.978  0.00  0.00     0.000 A 
ATOM     30  C   UNL d   1      25.878  -9.159  -5.609  0.00  0.00     0.001 A 
ATOM     31  C   UNL d   1      26.015 -10.297  -4.807  0.00  0.00     0.014 A 
ENDBRANCH  23  26
BRANCH  25  32
ATOM     32  C   UNL d   1      28.667 -14.862  -2.717  0.00  0.00     0.059 A 
ATOM     33  C   UNL d   1      29.063 -16.076  -3.292  0.00  0.00     0.031 A 
ATOM     34  C   UNL d   1      30.089 -16.818  -2.699  0.00  0.00     0.002 A 
ATOM     35  C   UNL d   1      30.753 -16.325  -1.575  0.00  0.00     0.000 A 
ATOM     36  C   UNL d   1      30.358 -15.112  -1.008  0.00  0.00     0.002 A 
ATOM     37  C   UNL d   1      29.319 -14.375  -1.578  0.00  0.00     0.031 A 
ENDBRANCH  25  32
ENDBRANCH   1  21
TORSDOF 7
ENDMDL
