MODEL 1
REMARK VINA RESULT:    -7.621      0.000      0.000
REMARK INTER + INTRA:          -9.704
REMARK INTER:                  -8.516
REMARK INTRA:                  -1.188
REMARK CONF_INDEPENDENT:        0.895
REMARK UNBOUND:                -1.188
REMARK  3 active torsions:
REMARK  status: ('A' for Active; 'I' for Inactive)
REMARK    1  A    between atoms: C_7  and  C_8 
REMARK       I    between atoms: C_8  and  N_10 
REMARK    2  A    between atoms: N_10  and  C_11 
REMARK    3  A    between atoms: C_17  and  O_18 
ROOT
ATOM      1  C   UNL d   1      21.046 -19.035  -0.366  0.00  0.00     0.256 C 
ATOM      2  O   UNL d   1      20.991 -18.936  -1.598  0.00  0.00    -0.267 OA
ATOM      3  N   UNL d   1      22.133 -18.605   0.380  0.00  0.00    -0.320 N 
ATOM      4  H   UNL d   1      22.289 -18.933   1.308  0.00  0.00     0.169 HD
ENDROOT
BRANCH   3   5
ATOM      5  C   UNL d   1      23.227 -17.885  -0.123  0.00  0.00     0.070 A 
ATOM      6  C   UNL d   1      24.514 -18.312   0.230  0.00  0.00     0.056 A 
ATOM      7  C   UNL d   1      25.618 -17.645  -0.294  0.00  0.00     0.036 A 
ATOM      8 CL   UNL d   1      27.208 -18.200   0.062  0.00  0.00    -0.084 Cl
ATOM      9  C   UNL d   1      25.442 -16.539  -1.125  0.00  0.00     0.026 A 
ATOM     10  C   UNL d   1      24.156 -16.075  -1.417  0.00  0.00     0.040 A 
ATOM     11  C   UNL d   1      23.055 -16.738  -0.895  0.00  0.00     0.092 A 
BRANCH  11  12
ATOM     12  O   UNL d   1      21.807 -16.193  -1.011  0.00  0.00    -0.358 OA
ATOM     13  H   UNL d   1      21.184 -16.870  -1.312  0.00  0.00     0.217 HD
ENDBRANCH  11  12
ENDBRANCH   3   5
BRANCH   1  14
ATOM     14  C   UNL d   1      19.910 -19.757   0.330  0.00  0.00     0.038 A 
ATOM     15  C   UNL d   1      18.954 -20.363  -0.520  0.00  0.00     0.017 A 
ATOM     16  C   UNL d   1      17.865 -21.080  -0.014  0.00  0.00     0.001 A 
ATOM     17  C   UNL d   1      17.698 -21.202   1.357  0.00  0.00     0.001 A 
ATOM     18  C   UNL d   1      18.621 -20.612   2.215  0.00  0.00     0.007 A 
ATOM     19  C   UNL d   1      19.729 -19.891   1.725  0.00  0.00    -0.046 A 
ATOM     20  C   UNL d   1      20.655 -19.327   2.755  0.00  0.00     0.049 C 
ENDBRANCH   1  14
TORSDOF 3
ENDMDL
MODEL 2
REMARK VINA RESULT:    -7.079      2.025      2.994
REMARK INTER + INTRA:          -8.804
REMARK INTER:                  -7.974
REMARK INTRA:                  -0.829
REMARK CONF_INDEPENDENT:        0.895
REMARK UNBOUND:                -0.829
REMARK  3 active torsions:
REMARK  status: ('A' for Active; 'I' for Inactive)
REMARK    1  A    between atoms: C_7  and  C_8 
REMARK       I    between atoms: C_8  and  N_10 
REMARK    2  A    between atoms: N_10  and  C_11 
REMARK    3  A    between atoms: C_17  and  O_18 
ROOT
ATOM      1  C   UNL d   1      22.258 -17.978  -0.241  0.00  0.00     0.256 C 
ATOM      2  O   UNL d   1      21.913 -16.987  -0.896  0.00  0.00    -0.267 OA
ATOM      3  N   UNL d   1      23.585 -18.333  -0.047  0.00  0.00    -0.320 N 
ATOM      4  H   UNL d   1      23.841 -19.254   0.230  0.00  0.00     0.169 HD
ENDROOT
BRANCH   3   5
ATOM      5  C   UNL d   1      24.693 -17.563  -0.429  0.00  0.00     0.070 A 
ATOM      6  C   UNL d   1      24.584 -16.779  -1.586  0.00  0.00     0.056 A 
ATOM      7  C   UNL d   1      25.652 -15.969  -1.961  0.00  0.00     0.036 A 
ATOM      8 CL   UNL d   1      25.511 -14.939  -3.333  0.00  0.00    -0.084 Cl
ATOM      9  C   UNL d   1      26.832 -15.972  -1.217  0.00  0.00     0.026 A 
ATOM     10  C   UNL d   1      26.961 -16.808  -0.104  0.00  0.00     0.040 A 
ATOM     11  C   UNL d   1      25.897 -17.617   0.270  0.00  0.00     0.092 A 
BRANCH  11  12
ATOM     12  O   UNL d   1      26.067 -18.573   1.232  0.00  0.00    -0.358 OA
ATOM     13  H   UNL d   1      27.009 -18.669   1.432  0.00  0.00     0.217 HD
ENDBRANCH  11  12
ENDBRANCH   3   5
BRANCH   1  14
ATOM     14  C   UNL d   1      21.165 -18.891   0.276  0.00  0.00     0.038 A 
ATOM     15  C   UNL d   1      21.026 -18.950   1.683  0.00  0.00     0.017 A 
ATOM     16  C   UNL d   1      20.045 -19.735   2.296  0.00  0.00     0.001 A 
ATOM     17  C   UNL d   1      19.181 -20.490   1.518  0.00  0.00     0.001 A 
ATOM     18  C   UNL d   1      19.298 -20.455   0.132  0.00  0.00     0.007 A 
ATOM     19  C   UNL d   1      20.277 -19.664  -0.506  0.00  0.00    -0.046 A 
ATOM     20  C   UNL d   1      20.280 -19.700  -2.001  0.00  0.00     0.049 C 
ENDBRANCH   1  14
TORSDOF 3
ENDMDL
MODEL 3
REMARK VINA RESULT:    -6.727      2.420      6.532
REMARK INTER + INTRA:          -8.794
REMARK INTER:                  -7.621
REMARK INTRA:                  -1.173
REMARK CONF_INDEPENDENT:        0.895
REMARK UNBOUND:                -1.173
REMARK  3 active torsions:
REMARK  status: ('A' for Active; 'I' for Inactive)
REMARK    1  A    between atoms: C_7  and  C_8 
REMARK       I    between atoms: C_8  and  N_10 
REMARK    2  A    between atoms: N_10  and  C_11 
REMARK    3  A    between atoms: C_17  and  O_18 
ROOT
ATOM      1  C   UNL d   1      23.086 -17.732  -0.406  0.00  0.00     0.256 C 
ATOM      2  O   UNL d   1      22.356 -16.887  -0.939  0.00  0.00    -0.267 OA
ATOM      3  N   UNL d   1      22.598 -18.881   0.197  0.00  0.00    -0.320 N 
ATOM      4  H   UNL d   1      23.145 -19.398   0.850  0.00  0.00     0.169 HD
ENDROOT
BRANCH   3   5
ATOM      5  C   UNL d   1      21.263 -19.311   0.162  0.00  0.00     0.070 A 
ATOM      6  C   UNL d   1      20.657 -19.679   1.371  0.00  0.00     0.056 A 
ATOM      7  C   UNL d   1      19.319 -20.063   1.370  0.00  0.00     0.036 A 
ATOM      8 CL   UNL d   1      18.532 -20.443   2.854  0.00  0.00    -0.084 Cl
ATOM      9  C   UNL d   1      18.605 -20.122   0.175  0.00  0.00     0.026 A 
ATOM     10  C   UNL d   1      19.234 -19.821  -1.037  0.00  0.00     0.040 A 
ATOM     11  C   UNL d   1      20.568 -19.439  -1.039  0.00  0.00     0.092 A 
BRANCH  11  12
ATOM     12  O   UNL d   1      21.248 -19.325  -2.219  0.00  0.00    -0.358 OA
ATOM     13  H   UNL d   1      22.017 -18.752  -2.096  0.00  0.00     0.217 HD
ENDBRANCH  11  12
ENDBRANCH   3   5
BRANCH   1  14
ATOM     14  C   UNL d   1      24.568 -17.426  -0.326  0.00  0.00     0.038 A 
ATOM     15  C   UNL d   1      25.312 -18.217   0.580  0.00  0.00     0.017 A 
ATOM     16  C   UNL d   1      26.692 -18.058   0.739  0.00  0.00     0.001 A 
ATOM     17  C   UNL d   1      27.363 -17.094   0.002  0.00  0.00     0.001 A 
ATOM     18  C   UNL d   1      26.655 -16.299  -0.893  0.00  0.00     0.007 A 
ATOM     19  C   UNL d   1      25.264 -16.449  -1.073  0.00  0.00    -0.046 A 
ATOM     20  C   UNL d   1      24.630 -15.545  -2.081  0.00  0.00     0.049 C 
ENDBRANCH   1  14
TORSDOF 3
ENDMDL
MODEL 4
REMARK VINA RESULT:    -6.707      4.630      8.684
REMARK INTER + INTRA:          -8.488
REMARK INTER:                  -7.602
REMARK INTRA:                  -0.885
REMARK CONF_INDEPENDENT:        0.895
REMARK UNBOUND:                -0.885
REMARK  3 active torsions:
REMARK  status: ('A' for Active; 'I' for Inactive)
REMARK    1  A    between atoms: C_7  and  C_8 
REMARK       I    between atoms: C_8  and  N_10 
REMARK    2  A    between atoms: N_10  and  C_11 
REMARK    3  A    between atoms: C_17  and  O_18 
ROOT
ATOM      1  C   UNL d   1      25.979 -15.109  -3.351  0.00  0.00     0.256 C 
ATOM      2  O   UNL d   1      24.780 -14.827  -3.236  0.00  0.00    -0.267 OA
ATOM      3  N   UNL d   1      26.646 -15.951  -2.473  0.00  0.00    -0.320 N 
ATOM      4  H   UNL d   1      27.640 -15.950  -2.407  0.00  0.00     0.169 HD
ENDROOT
BRANCH   3   5
ATOM      5  C   UNL d   1      26.043 -16.696  -1.449  0.00  0.00     0.070 A 
ATOM      6  C   UNL d   1      24.648 -16.820  -1.459  0.00  0.00     0.056 A 
ATOM      7  C   UNL d   1      24.028 -17.593  -0.481  0.00  0.00     0.036 A 
ATOM      8 CL   UNL d   1      22.322 -17.824  -0.520  0.00  0.00    -0.084 Cl
ATOM      9  C   UNL d   1      24.785 -18.200   0.520  0.00  0.00     0.026 A 
ATOM     10  C   UNL d   1      26.170 -18.016   0.565  0.00  0.00     0.040 A 
ATOM     11  C   UNL d   1      26.789 -17.244  -0.408  0.00  0.00     0.092 A 
BRANCH  11  12
ATOM     12  O   UNL d   1      28.104 -16.898  -0.275  0.00  0.00    -0.358 OA
ATOM     13  H   UNL d   1      28.530 -17.480   0.370  0.00  0.00     0.217 HD
ENDBRANCH  11  12
ENDBRANCH   3   5
BRANCH   1  14
ATOM     14  C   UNL d   1      26.761 -14.409  -4.444  0.00  0.00     0.038 A 
ATOM     15  C   UNL d   1      27.725 -15.200  -5.114  0.00  0.00     0.017 A 
ATOM     16  C   UNL d   1      28.502 -14.690  -6.158  0.00  0.00     0.001 A 
ATOM     17  C   UNL d   1      28.344 -13.370  -6.553  0.00  0.00     0.001 A 
ATOM     18  C   UNL d   1      27.406 -12.569  -5.909  0.00  0.00     0.007 A 
ATOM     19  C   UNL d   1      26.608 -13.067  -4.858  0.00  0.00    -0.046 A 
ATOM     20  C   UNL d   1      25.625 -12.106  -4.267  0.00  0.00     0.049 C 
ENDBRANCH   1  14
TORSDOF 3
ENDMDL
MODEL 5
REMARK VINA RESULT:    -6.587     12.569     15.105
REMARK INTER + INTRA:          -8.415
REMARK INTER:                  -7.481
REMARK INTRA:                  -0.934
REMARK CONF_INDEPENDENT:        0.895
REMARK UNBOUND:                -0.934
REMARK  3 active torsions:
REMARK  status: ('A' for Active; 'I' for Inactive)
REMARK    1  A    between atoms: C_7  and  C_8 
REMARK       I    between atoms: C_8  and  N_10 
REMARK    2  A    between atoms: N_10  and  C_11 
REMARK    3  A    between atoms: C_17  and  O_18 
ROOT
ATOM      1  C   UNL d   1      34.559 -21.006   7.311  0.00  0.00     0.256 C 
ATOM      2  O   UNL d   1      35.067 -20.218   6.504  0.00  0.00    -0.267 OA
ATOM      3  N   UNL d   1      33.313 -21.585   7.122  0.00  0.00    -0.320 N 
ATOM      4  H   UNL d   1      32.804 -21.981   7.881  0.00  0.00     0.169 HD
ENDROOT
BRANCH   3   5
ATOM      5  C   UNL d   1      32.539 -21.479   5.957  0.00  0.00     0.070 A 
ATOM      6  C   UNL d   1      33.197 -21.201   4.752  0.00  0.00     0.056 A 
ATOM      7  C   UNL d   1      32.459 -21.137   3.574  0.00  0.00     0.036 A 
ATOM      8 CL   UNL d   1      33.257 -20.876   2.071  0.00  0.00    -0.084 Cl
ATOM      9  C   UNL d   1      31.075 -21.305   3.601  0.00  0.00     0.026 A 
ATOM     10  C   UNL d   1      30.415 -21.513   4.816  0.00  0.00     0.040 A 
ATOM     11  C   UNL d   1      31.149 -21.575   5.991  0.00  0.00     0.092 A 
BRANCH  11  12
ATOM     12  O   UNL d   1      30.511 -21.587   7.200  0.00  0.00    -0.358 OA
ATOM     13  H   UNL d   1      30.167 -22.473   7.377  0.00  0.00     0.217 HD
ENDBRANCH  11  12
ENDBRANCH   3   5
BRANCH   1  14
ATOM     14  C   UNL d   1      35.302 -21.254   8.609  0.00  0.00     0.038 A 
ATOM     15  C   UNL d   1      35.655 -20.099   9.346  0.00  0.00     0.017 A 
ATOM     16  C   UNL d   1      36.324 -20.181  10.571  0.00  0.00     0.001 A 
ATOM     17  C   UNL d   1      36.667 -21.422  11.087  0.00  0.00     0.001 A 
ATOM     18  C   UNL d   1      36.335 -22.574  10.380  0.00  0.00     0.007 A 
ATOM     19  C   UNL d   1      35.655 -22.512   9.146  0.00  0.00    -0.046 A 
ATOM     20  C   UNL d   1      35.341 -23.825   8.502  0.00  0.00     0.049 C 
ENDBRANCH   1  14
TORSDOF 3
ENDMDL
MODEL 6
REMARK VINA RESULT:    -6.300      4.868      6.888
REMARK INTER + INTRA:          -8.433
REMARK INTER:                  -7.195
REMARK INTRA:                  -1.238
REMARK CONF_INDEPENDENT:        0.895
REMARK UNBOUND:                -1.238
REMARK  3 active torsions:
REMARK  status: ('A' for Active; 'I' for Inactive)
REMARK    1  A    between atoms: C_7  and  C_8 
REMARK       I    between atoms: C_8  and  N_10 
REMARK    2  A    between atoms: N_10  and  C_11 
REMARK    3  A    between atoms: C_17  and  O_18 
ROOT
ATOM      1  C   UNL d   1      26.127 -15.683  -2.261  0.00  0.00     0.256 C 
ATOM      2  O   UNL d   1      27.363 -15.731  -2.267  0.00  0.00    -0.267 OA
ATOM      3  N   UNL d   1      25.402 -14.742  -2.977  0.00  0.00    -0.320 N 
ATOM      4  H   UNL d   1      24.453 -14.536  -2.753  0.00  0.00     0.169 HD
ENDROOT
BRANCH   3   5
ATOM      5  C   UNL d   1      25.943 -13.830  -3.896  0.00  0.00     0.070 A 
ATOM      6  C   UNL d   1      25.530 -12.494  -3.818  0.00  0.00     0.056 A 
ATOM      7  C   UNL d   1      26.087 -11.560  -4.687  0.00  0.00     0.036 A 
ATOM      8 CL   UNL d   1      25.654  -9.898  -4.558  0.00  0.00    -0.084 Cl
ATOM      9  C   UNL d   1      27.011 -11.960  -5.651  0.00  0.00     0.026 A 
ATOM     10  C   UNL d   1      27.367 -13.306  -5.770  0.00  0.00     0.040 A 
ATOM     11  C   UNL d   1      26.812 -14.239  -4.905  0.00  0.00     0.092 A 
BRANCH  11  12
ATOM     12  O   UNL d   1      26.998 -15.575  -5.125  0.00  0.00    -0.358 OA
ATOM     13  H   UNL d   1      27.516 -15.954  -4.401  0.00  0.00     0.217 HD
ENDBRANCH  11  12
ENDBRANCH   3   5
BRANCH   1  14
ATOM     14  C   UNL d   1      25.394 -16.639  -1.342  0.00  0.00     0.038 A 
ATOM     15  C   UNL d   1      24.030 -16.861  -1.645  0.00  0.00     0.017 A 
ATOM     16  C   UNL d   1      23.239 -17.735  -0.893  0.00  0.00     0.001 A 
ATOM     17  C   UNL d   1      23.790 -18.403   0.190  0.00  0.00     0.001 A 
ATOM     18  C   UNL d   1      25.127 -18.200   0.513  0.00  0.00     0.007 A 
ATOM     19  C   UNL d   1      25.943 -17.328  -0.237  0.00  0.00    -0.046 A 
ATOM     20  C   UNL d   1      27.368 -17.217   0.206  0.00  0.00     0.049 C 
ENDBRANCH   1  14
TORSDOF 3
ENDMDL
MODEL 7
REMARK VINA RESULT:    -6.023      4.790      7.063
REMARK INTER + INTRA:          -8.041
REMARK INTER:                  -6.918
REMARK INTRA:                  -1.124
REMARK CONF_INDEPENDENT:        0.895
REMARK UNBOUND:                -1.124
REMARK  3 active torsions:
REMARK  status: ('A' for Active; 'I' for Inactive)
REMARK    1  A    between atoms: C_7  and  C_8 
REMARK       I    between atoms: C_8  and  N_10 
REMARK    2  A    between atoms: N_10  and  C_11 
REMARK    3  A    between atoms: C_17  and  O_18 
ROOT
ATOM      1  C   UNL d   1      25.233 -15.208  -2.175  0.00  0.00     0.256 C 
ATOM      2  O   UNL d   1      24.149 -15.196  -2.771  0.00  0.00    -0.267 OA
ATOM      3  N   UNL d   1      26.242 -14.289  -2.421  0.00  0.00    -0.320 N 
ATOM      4  H   UNL d   1      27.184 -14.468  -2.152  0.00  0.00     0.169 HD
ENDROOT
BRANCH   3   5
ATOM      5  C   UNL d   1      26.128 -13.162  -3.248  0.00  0.00     0.070 A 
ATOM      6  C   UNL d   1      26.416 -11.907  -2.695  0.00  0.00     0.056 A 
ATOM      7  C   UNL d   1      26.357 -10.777  -3.506  0.00  0.00     0.036 A 
ATOM      8 CL   UNL d   1      26.784  -9.236  -2.868  0.00  0.00    -0.084 Cl
ATOM      9  C   UNL d   1      25.972 -10.890  -4.841  0.00  0.00     0.026 A 
ATOM     10  C   UNL d   1      25.617 -12.135  -5.369  0.00  0.00     0.040 A 
ATOM     11  C   UNL d   1      25.675 -13.262  -4.562  0.00  0.00     0.092 A 
BRANCH  11  12
ATOM     12  O   UNL d   1      25.155 -14.448  -5.000  0.00  0.00    -0.358 OA
ATOM     13  H   UNL d   1      24.198 -14.453  -4.863  0.00  0.00     0.217 HD
ENDBRANCH  11  12
ENDBRANCH   3   5
BRANCH   1  14
ATOM     14  C   UNL d   1      25.489 -16.350  -1.213  0.00  0.00     0.038 A 
ATOM     15  C   UNL d   1      26.849 -16.628  -0.936  0.00  0.00     0.017 A 
ATOM     16  C   UNL d   1      27.230 -17.640  -0.050  0.00  0.00     0.001 A 
ATOM     17  C   UNL d   1      26.261 -18.409   0.576  0.00  0.00     0.001 A 
ATOM     18  C   UNL d   1      24.916 -18.160   0.318  0.00  0.00     0.007 A 
ATOM     19  C   UNL d   1      24.511 -17.139  -0.567  0.00  0.00    -0.046 A 
ATOM     20  C   UNL d   1      23.036 -16.963  -0.737  0.00  0.00     0.049 C 
ENDBRANCH   1  14
TORSDOF 3
ENDMDL
MODEL 8
REMARK VINA RESULT:    -6.006      4.265      6.246
REMARK INTER + INTRA:          -8.244
REMARK INTER:                  -6.901
REMARK INTRA:                  -1.343
REMARK CONF_INDEPENDENT:        0.895
REMARK UNBOUND:                -1.343
REMARK  3 active torsions:
REMARK  status: ('A' for Active; 'I' for Inactive)
REMARK    1  A    between atoms: C_7  and  C_8 
REMARK       I    between atoms: C_8  and  N_10 
REMARK    2  A    between atoms: N_10  and  C_11 
REMARK    3  A    between atoms: C_17  and  O_18 
ROOT
ATOM      1  C   UNL d   1      25.460 -15.526  -1.979  0.00  0.00     0.256 C 
ATOM      2  O   UNL d   1      25.853 -14.532  -1.355  0.00  0.00    -0.267 OA
ATOM      3  N   UNL d   1      25.566 -15.646  -3.356  0.00  0.00    -0.320 N 
ATOM      4  H   UNL d   1      25.012 -16.300  -3.865  0.00  0.00     0.169 HD
ENDROOT
BRANCH   3   5
ATOM      5  C   UNL d   1      26.244 -14.752  -4.198  0.00  0.00     0.070 A 
ATOM      6  C   UNL d   1      27.411 -15.200  -4.832  0.00  0.00     0.056 A 
ATOM      7  C   UNL d   1      28.076 -14.348  -5.709  0.00  0.00     0.036 A 
ATOM      8 CL   UNL d   1      29.466 -14.904  -6.560  0.00  0.00    -0.084 Cl
ATOM      9  C   UNL d   1      27.611 -13.051  -5.919  0.00  0.00     0.026 A 
ATOM     10  C   UNL d   1      26.487 -12.586  -5.230  0.00  0.00     0.040 A 
ATOM     11  C   UNL d   1      25.823 -13.433  -4.354  0.00  0.00     0.092 A 
BRANCH  11  12
ATOM     12  O   UNL d   1      24.845 -12.944  -3.534  0.00  0.00    -0.358 OA
ATOM     13  H   UNL d   1      25.111 -13.052  -2.611  0.00  0.00     0.217 HD
ENDBRANCH  11  12
ENDBRANCH   3   5
BRANCH   1  14
ATOM     14  C   UNL d   1      24.739 -16.604  -1.195  0.00  0.00     0.038 A 
ATOM     15  C   UNL d   1      23.326 -16.568  -1.255  0.00  0.00     0.017 A 
ATOM     16  C   UNL d   1      22.534 -17.514  -0.598  0.00  0.00     0.001 A 
ATOM     17  C   UNL d   1      23.135 -18.516   0.148  0.00  0.00     0.001 A 
ATOM     18  C   UNL d   1      24.523 -18.573   0.229  0.00  0.00     0.007 A 
ATOM     19  C   UNL d   1      25.339 -17.632  -0.433  0.00  0.00    -0.046 A 
ATOM     20  C   UNL d   1      26.815 -17.820  -0.281  0.00  0.00     0.049 C 
ENDBRANCH   1  14
TORSDOF 3
ENDMDL
MODEL 9
REMARK VINA RESULT:    -5.914      5.436      9.817
REMARK INTER + INTRA:          -8.131
REMARK INTER:                  -6.809
REMARK INTRA:                  -1.322
REMARK CONF_INDEPENDENT:        0.895
REMARK UNBOUND:                -1.322
REMARK  3 active torsions:
REMARK  status: ('A' for Active; 'I' for Inactive)
REMARK    1  A    between atoms: C_7  and  C_8 
REMARK       I    between atoms: C_8  and  N_10 
REMARK    2  A    between atoms: N_10  and  C_11 
REMARK    3  A    between atoms: C_17  and  O_18 
ROOT
ATOM      1  C   UNL d   1      27.330 -15.199  -5.088  0.00  0.00     0.256 C 
ATOM      2  O   UNL d   1      26.303 -15.578  -5.664  0.00  0.00    -0.267 OA
ATOM      3  N   UNL d   1      27.437 -15.116  -3.708  0.00  0.00    -0.320 N 
ATOM      4  H   UNL d   1      28.142 -14.561  -3.274  0.00  0.00     0.169 HD
ENDROOT
BRANCH   3   5
ATOM      5  C   UNL d   1      26.478 -15.573  -2.792  0.00  0.00     0.070 A 
ATOM      6  C   UNL d   1      26.870 -16.539  -1.855  0.00  0.00     0.056 A 
ATOM      7  C   UNL d   1      25.952 -16.975  -0.905  0.00  0.00     0.036 A 
ATOM      8 CL   UNL d   1      26.433 -18.102   0.305  0.00  0.00    -0.084 Cl
ATOM      9  C   UNL d   1      24.645 -16.489  -0.914  0.00  0.00     0.026 A 
ATOM     10  C   UNL d   1      24.240 -15.578  -1.895  0.00  0.00     0.040 A 
ATOM     11  C   UNL d   1      25.154 -15.143  -2.843  0.00  0.00     0.092 A 
BRANCH  11  12
ATOM     12  O   UNL d   1      24.734 -14.406  -3.915  0.00  0.00    -0.358 OA
ATOM     13  H   UNL d   1      24.948 -14.873  -4.734  0.00  0.00     0.217 HD
ENDBRANCH  11  12
ENDBRANCH   3   5
BRANCH   1  14
ATOM     14  C   UNL d   1      28.476 -14.708  -5.950  0.00  0.00     0.038 A 
ATOM     15  C   UNL d   1      28.292 -13.443  -6.556  0.00  0.00     0.017 A 
ATOM     16  C   UNL d   1      29.276 -12.859  -7.360  0.00  0.00     0.001 A 
ATOM     17  C   UNL d   1      30.467 -13.531  -7.588  0.00  0.00     0.001 A 
ATOM     18  C   UNL d   1      30.672 -14.779  -7.008  0.00  0.00     0.007 A 
ATOM     19  C   UNL d   1      29.695 -15.382  -6.189  0.00  0.00    -0.046 A 
ATOM     20  C   UNL d   1      30.052 -16.715  -5.612  0.00  0.00     0.049 C 
ENDBRANCH   1  14
TORSDOF 3
ENDMDL
