MODEL 1
REMARK VINA RESULT:    -8.194      0.000      0.000
REMARK INTER + INTRA:         -13.441
REMARK INTER:                 -10.580
REMARK INTRA:                  -2.861
REMARK CONF_INDEPENDENT:        2.386
REMARK UNBOUND:                -2.861
REMARK  8 active torsions:
REMARK  status: ('A' for Active; 'I' for Inactive)
REMARK    1  A    between atoms: N_2  and  C_3 
REMARK    2  A    between atoms: C_6  and  C_5 
REMARK    3  A    between atoms: C_6  and  N_17 
REMARK    4  A    between atoms: C_6  and  C_7 
REMARK    5  A    between atoms: C_7  and  C_8 
REMARK       I    between atoms: N_17  and  C_18 
REMARK    6  A    between atoms: C_18  and  C_20 
REMARK    7  A    between atoms: C_25  and  O_26 
REMARK    8  A    between atoms: C_29  and  C_30 
ROOT
ATOM      1  C   UNL d   1      28.509 -15.966  -0.656  0.00  0.00     0.141 C 
ENDROOT
BRANCH   1   2
ATOM      2  N   UNL d   1      29.100 -15.899  -2.042  0.00  0.00    -0.346 N 
ATOM      3  C   UNL d   1      29.888 -16.873  -2.627  0.00  0.00     0.255 C 
ATOM      4  O   UNL d   1      30.277 -17.888  -2.010  0.00  0.00    -0.268 OA
ATOM      5  H   UNL d   1      28.481 -15.471  -2.723  0.00  0.00     0.163 HD
BRANCH   3   6
ATOM      6  C   UNL d   1      30.182 -16.758  -4.096  0.00  0.00     0.065 A 
ATOM      7  C   UNL d   1      31.452 -17.254  -4.531  0.00  0.00     0.020 A 
ATOM      8  C   UNL d   1      31.843 -17.250  -5.875  0.00  0.00     0.001 A 
ATOM      9  C   UNL d   1      30.997 -16.687  -6.813  0.00  0.00     0.003 A 
ATOM     10  C   UNL d   1      29.770 -16.157  -6.398  0.00  0.00     0.038 A 
ATOM     11  C   UNL d   1      29.327 -16.192  -5.058  0.00  0.00     0.084 A 
BRANCH  11  12
ATOM     12  O   UNL d   1      28.108 -15.571  -4.948  0.00  0.00    -0.355 OA
ATOM     13  C   UNL d   1      27.781 -14.456  -5.750  0.00  0.00     0.210 C 
ENDBRANCH  11  12
ENDBRANCH   3   6
ENDBRANCH   1   2
BRANCH   1  14
ATOM     14  C   UNL d   1      28.569 -14.516   0.071  0.00  0.00     0.072 C 
BRANCH  14  15
ATOM     15  C   UNL d   1      29.255 -14.433   1.439  0.00  0.00    -0.028 A 
ATOM     16  C   UNL d   1      30.599 -14.551   1.692  0.00  0.00     0.096 A 
ATOM     17  N   UNL d   1      30.890 -14.517   3.004  0.00  0.00    -0.365 N 
ATOM     18  C   UNL d   1      29.746 -14.321   3.690  0.00  0.00     0.042 A 
ATOM     19  H   UNL d   1      31.816 -14.629   3.390  0.00  0.00     0.165 HD
ATOM     20  C   UNL d   1      29.622 -14.210   5.066  0.00  0.00     0.030 A 
ATOM     21  C   UNL d   1      28.695 -14.262   2.762  0.00  0.00    -0.002 A 
ATOM     22  C   UNL d   1      28.339 -14.036   5.548  0.00  0.00     0.002 A 
ATOM     23  C   UNL d   1      27.249 -13.968   4.675  0.00  0.00     0.001 A 
ATOM     24  C   UNL d   1      27.405 -14.075   3.281  0.00  0.00     0.014 A 
ENDBRANCH  14  15
ENDBRANCH   1  14
BRANCH   1  25
ATOM     25  C   UNL d   1      27.088 -16.402  -0.974  0.00  0.00     0.062 C 
ATOM     26  C   UNL d   1      26.541 -15.555  -1.904  0.00  0.00     0.073 C 
ATOM     27  C   UNL d   1      25.443 -15.917  -2.574  0.00  0.00     0.106 C 
ATOM     28  N   UNL d   1      24.636 -16.812  -2.012  0.00  0.00    -0.221 NA
ATOM     29  C   UNL d   1      25.081 -17.450  -0.870  0.00  0.00     0.132 C 
ATOM     30  N   UNL d   1      26.375 -17.411  -0.441  0.00  0.00    -0.235 NA
BRANCH  27  31
ATOM     31  N   UNL d   1      25.249 -15.188  -3.780  0.00  0.00    -0.281 NA
ATOM     32  C   UNL d   1      24.876 -13.788  -3.518  0.00  0.00     0.114 C 
ATOM     33  H   UNL d   1      26.050 -15.279  -4.385  0.00  0.00     0.128 HD
ENDBRANCH  27  31
BRANCH  29  34
ATOM     34  C   UNL d   1      23.995 -18.107  -0.024  0.00  0.00     0.057 A 
ATOM     35  C   UNL d   1      22.521 -17.797  -0.144  0.00  0.00     0.013 A 
ATOM     36  C   UNL d   1      23.012 -19.163  -0.520  0.00  0.00     0.013 A 
ENDBRANCH  29  34
ENDBRANCH   1  25
TORSDOF 8
ENDMDL
MODEL 2
REMARK VINA RESULT:    -8.181      3.325      8.040
REMARK INTER + INTRA:         -13.667
REMARK INTER:                 -10.568
REMARK INTRA:                  -3.099
REMARK CONF_INDEPENDENT:        2.386
REMARK UNBOUND:                -3.099
REMARK  8 active torsions:
REMARK  status: ('A' for Active; 'I' for Inactive)
REMARK    1  A    between atoms: N_2  and  C_3 
REMARK    2  A    between atoms: C_6  and  C_5 
REMARK    3  A    between atoms: C_6  and  N_17 
REMARK    4  A    between atoms: C_6  and  C_7 
REMARK    5  A    between atoms: C_7  and  C_8 
REMARK       I    between atoms: N_17  and  C_18 
REMARK    6  A    between atoms: C_18  and  C_20 
REMARK    7  A    between atoms: C_25  and  O_26 
REMARK    8  A    between atoms: C_29  and  C_30 
ROOT
ATOM      1  C   UNL d   1      26.699 -13.550  -3.961  0.00  0.00     0.141 C 
ENDROOT
BRANCH   1   2
ATOM      2  N   UNL d   1      26.311 -14.542  -2.894  0.00  0.00    -0.346 N 
ATOM      3  C   UNL d   1      25.021 -14.951  -2.608  0.00  0.00     0.255 C 
ATOM      4  O   UNL d   1      24.017 -14.450  -3.158  0.00  0.00    -0.268 OA
ATOM      5  H   UNL d   1      26.968 -15.310  -2.800  0.00  0.00     0.163 HD
BRANCH   3   6
ATOM      6  C   UNL d   1      24.837 -16.125  -1.689  0.00  0.00     0.065 A 
ATOM      7  C   UNL d   1      23.499 -16.392  -1.259  0.00  0.00     0.020 A 
ATOM      8  C   UNL d   1      23.174 -17.477  -0.436  0.00  0.00     0.001 A 
ATOM      9  C   UNL d   1      24.193 -18.285   0.033  0.00  0.00     0.003 A 
ATOM     10  C   UNL d   1      25.513 -18.011  -0.341  0.00  0.00     0.038 A 
ATOM     11  C   UNL d   1      25.865 -16.955  -1.210  0.00  0.00     0.084 A 
BRANCH  11  12
ATOM     12  O   UNL d   1      27.229 -16.910  -1.369  0.00  0.00    -0.355 OA
ATOM     13  C   UNL d   1      28.098 -17.074  -0.268  0.00  0.00     0.210 C 
ENDBRANCH  11  12
ENDBRANCH   3   6
ENDBRANCH   1   2
BRANCH   1  14
ATOM     14  C   UNL d   1      27.274 -12.182  -3.301  0.00  0.00     0.072 C 
BRANCH  14  15
ATOM     15  C   UNL d   1      26.558 -10.871  -3.645  0.00  0.00    -0.028 A 
ATOM     16  C   UNL d   1      25.905 -10.039  -2.770  0.00  0.00     0.096 A 
ATOM     17  N   UNL d   1      25.303  -9.004  -3.382  0.00  0.00    -0.365 N 
ATOM     18  C   UNL d   1      25.573  -9.072  -4.701  0.00  0.00     0.042 A 
ATOM     19  H   UNL d   1      24.741  -8.309  -2.914  0.00  0.00     0.165 HD
ATOM     20  C   UNL d   1      25.149  -8.181  -5.673  0.00  0.00     0.030 A 
ATOM     21  C   UNL d   1      26.352 -10.219  -4.919  0.00  0.00    -0.002 A 
ATOM     22  C   UNL d   1      25.530  -8.470  -6.969  0.00  0.00     0.002 A 
ATOM     23  C   UNL d   1      26.308  -9.596  -7.254  0.00  0.00     0.001 A 
ATOM     24  C   UNL d   1      26.731 -10.480  -6.245  0.00  0.00     0.014 A 
ENDBRANCH  14  15
ENDBRANCH   1  14
BRANCH   1  25
ATOM     25  C   UNL d   1      27.769 -14.335  -4.702  0.00  0.00     0.062 C 
ATOM     26  C   UNL d   1      27.780 -13.971  -6.024  0.00  0.00     0.073 C 
ATOM     27  C   UNL d   1      28.830 -14.274  -6.794  0.00  0.00     0.106 C 
ATOM     28  N   UNL d   1      29.584 -15.311  -6.439  0.00  0.00    -0.221 NA
ATOM     29  C   UNL d   1      29.352 -15.880  -5.202  0.00  0.00     0.132 C 
ATOM     30  N   UNL d   1      28.589 -15.295  -4.235  0.00  0.00    -0.235 NA
BRANCH  27  31
ATOM     31  N   UNL d   1      28.920 -13.477  -7.969  0.00  0.00    -0.281 NA
ATOM     32  C   UNL d   1      30.113 -12.615  -7.954  0.00  0.00     0.114 C 
ATOM     33  H   UNL d   1      28.854 -14.051  -8.794  0.00  0.00     0.128 HD
ENDBRANCH  27  31
BRANCH  29  34
ATOM     34  C   UNL d   1      29.899 -17.293  -5.020  0.00  0.00     0.057 A 
ATOM     35  C   UNL d   1      30.696 -18.035  -6.067  0.00  0.00     0.013 A 
ATOM     36  C   UNL d   1      31.364 -17.644  -4.783  0.00  0.00     0.013 A 
ENDBRANCH  29  34
ENDBRANCH   1  25
TORSDOF 8
ENDMDL
MODEL 3
REMARK VINA RESULT:    -8.155      3.284      7.980
REMARK INTER + INTRA:         -13.349
REMARK INTER:                 -10.542
REMARK INTRA:                  -2.807
REMARK CONF_INDEPENDENT:        2.386
REMARK UNBOUND:                -2.807
REMARK  8 active torsions:
REMARK  status: ('A' for Active; 'I' for Inactive)
REMARK    1  A    between atoms: N_2  and  C_3 
REMARK    2  A    between atoms: C_6  and  C_5 
REMARK    3  A    between atoms: C_6  and  N_17 
REMARK    4  A    between atoms: C_6  and  C_7 
REMARK    5  A    between atoms: C_7  and  C_8 
REMARK       I    between atoms: N_17  and  C_18 
REMARK    6  A    between atoms: C_18  and  C_20 
REMARK    7  A    between atoms: C_25  and  O_26 
REMARK    8  A    between atoms: C_29  and  C_30 
ROOT
ATOM      1  C   UNL d   1      26.721 -14.105  -4.473  0.00  0.00     0.141 C 
ENDROOT
BRANCH   1   2
ATOM      2  N   UNL d   1      26.367 -14.956  -3.279  0.00  0.00    -0.346 N 
ATOM      3  C   UNL d   1      25.097 -15.114  -2.753  0.00  0.00     0.255 C 
ATOM      4  O   UNL d   1      24.109 -14.473  -3.170  0.00  0.00    -0.268 OA
ATOM      5  H   UNL d   1      26.893 -15.823  -3.233  0.00  0.00     0.163 HD
BRANCH   3   6
ATOM      6  C   UNL d   1      24.886 -16.188  -1.724  0.00  0.00     0.065 A 
ATOM      7  C   UNL d   1      23.552 -16.343  -1.232  0.00  0.00     0.020 A 
ATOM      8  C   UNL d   1      23.201 -17.329  -0.302  0.00  0.00     0.001 A 
ATOM      9  C   UNL d   1      24.193 -18.146   0.209  0.00  0.00     0.003 A 
ATOM     10  C   UNL d   1      25.511 -17.978  -0.229  0.00  0.00     0.038 A 
ATOM     11  C   UNL d   1      25.887 -17.026  -1.202  0.00  0.00     0.084 A 
BRANCH  11  12
ATOM     12  O   UNL d   1      27.244 -17.069  -1.404  0.00  0.00    -0.355 OA
ATOM     13  C   UNL d   1      28.143 -16.542  -0.451  0.00  0.00     0.210 C 
ENDBRANCH  11  12
ENDBRANCH   3   6
ENDBRANCH   1   2
BRANCH   1  14
ATOM     14  C   UNL d   1      27.057 -12.582  -4.020  0.00  0.00     0.072 C 
BRANCH  14  15
ATOM     15  C   UNL d   1      26.382 -11.444  -4.796  0.00  0.00    -0.028 A 
ATOM     16  C   UNL d   1      26.047 -11.444  -6.127  0.00  0.00     0.096 A 
ATOM     17  N   UNL d   1      25.542 -10.269  -6.539  0.00  0.00    -0.365 N 
ATOM     18  C   UNL d   1      25.469  -9.439  -5.478  0.00  0.00     0.042 A 
ATOM     19  H   UNL d   1      25.276 -10.060  -7.490  0.00  0.00     0.165 HD
ATOM     20  C   UNL d   1      24.987  -8.140  -5.483  0.00  0.00     0.030 A 
ATOM     21  C   UNL d   1      25.982 -10.123  -4.366  0.00  0.00    -0.002 A 
ATOM     22  C   UNL d   1      25.035  -7.471  -4.276  0.00  0.00     0.002 A 
ATOM     23  C   UNL d   1      25.532  -8.096  -3.129  0.00  0.00     0.001 A 
ATOM     24  C   UNL d   1      26.007  -9.420  -3.151  0.00  0.00     0.014 A 
ENDBRANCH  14  15
ENDBRANCH   1  14
BRANCH   1  25
ATOM     25  C   UNL d   1      27.943 -14.842  -4.994  0.00  0.00     0.062 C 
ATOM     26  C   UNL d   1      28.329 -14.306  -6.197  0.00  0.00     0.073 C 
ATOM     27  C   UNL d   1      29.549 -14.563  -6.682  0.00  0.00     0.106 C 
ATOM     28  N   UNL d   1      30.157 -15.676  -6.284  0.00  0.00    -0.221 NA
ATOM     29  C   UNL d   1      29.578 -16.391  -5.254  0.00  0.00     0.132 C 
ATOM     30  N   UNL d   1      28.584 -15.899  -4.461  0.00  0.00    -0.235 NA
BRANCH  27  31
ATOM     31  N   UNL d   1      29.977 -13.623  -7.660  0.00  0.00    -0.281 NA
ATOM     32  C   UNL d   1      31.433 -13.675  -7.868  0.00  0.00     0.114 C 
ATOM     33  H   UNL d   1      29.450 -13.730  -8.512  0.00  0.00     0.128 HD
ENDBRANCH  27  31
BRANCH  29  34
ATOM     34  C   UNL d   1      30.030 -17.844  -5.132  0.00  0.00     0.057 A 
ATOM     35  C   UNL d   1      30.758 -18.600  -6.219  0.00  0.00     0.013 A 
ATOM     36  C   UNL d   1      31.471 -18.302  -4.934  0.00  0.00     0.013 A 
ENDBRANCH  29  34
ENDBRANCH   1  25
TORSDOF 8
ENDMDL
MODEL 4
REMARK VINA RESULT:    -7.924      3.491      8.785
REMARK INTER + INTRA:         -13.282
REMARK INTER:                 -10.311
REMARK INTRA:                  -2.971
REMARK CONF_INDEPENDENT:        2.386
REMARK UNBOUND:                -2.971
REMARK  8 active torsions:
REMARK  status: ('A' for Active; 'I' for Inactive)
REMARK    1  A    between atoms: N_2  and  C_3 
REMARK    2  A    between atoms: C_6  and  C_5 
REMARK    3  A    between atoms: C_6  and  N_17 
REMARK    4  A    between atoms: C_6  and  C_7 
REMARK    5  A    between atoms: C_7  and  C_8 
REMARK       I    between atoms: N_17  and  C_18 
REMARK    6  A    between atoms: C_18  and  C_20 
REMARK    7  A    between atoms: C_25  and  O_26 
REMARK    8  A    between atoms: C_29  and  C_30 
ROOT
ATOM      1  C   UNL d   1      27.447 -14.575  -5.110  0.00  0.00     0.141 C 
ENDROOT
BRANCH   1   2
ATOM      2  N   UNL d   1      27.059 -15.199  -3.793  0.00  0.00    -0.346 N 
ATOM      3  C   UNL d   1      25.768 -15.320  -3.311  0.00  0.00     0.255 C 
ATOM      4  O   UNL d   1      24.780 -14.825  -3.894  0.00  0.00    -0.268 OA
ATOM      5  H   UNL d   1      27.618 -16.011  -3.552  0.00  0.00     0.163 HD
BRANCH   3   6
ATOM      6  C   UNL d   1      25.542 -16.186  -2.104  0.00  0.00     0.065 A 
ATOM      7  C   UNL d   1      24.192 -16.293  -1.643  0.00  0.00     0.020 A 
ATOM      8  C   UNL d   1      23.828 -17.097  -0.556  0.00  0.00     0.001 A 
ATOM      9  C   UNL d   1      24.819 -17.765   0.139  0.00  0.00     0.003 A 
ATOM     10  C   UNL d   1      26.150 -17.636  -0.272  0.00  0.00     0.038 A 
ATOM     11  C   UNL d   1      26.541 -16.873  -1.394  0.00  0.00     0.084 A 
BRANCH  11  12
ATOM     12  O   UNL d   1      27.907 -16.905  -1.532  0.00  0.00    -0.355 OA
ATOM     13  C   UNL d   1      28.731 -17.446  -0.522  0.00  0.00     0.210 C 
ENDBRANCH  11  12
ENDBRANCH   3   6
ENDBRANCH   1   2
BRANCH   1  14
ATOM     14  C   UNL d   1      27.778 -12.996  -4.930  0.00  0.00     0.072 C 
BRANCH  14  15
ATOM     15  C   UNL d   1      27.205 -12.025  -5.969  0.00  0.00    -0.028 A 
ATOM     16  C   UNL d   1      26.194 -11.118  -5.776  0.00  0.00     0.096 A 
ATOM     17  N   UNL d   1      25.856 -10.463  -6.900  0.00  0.00    -0.365 N 
ATOM     18  C   UNL d   1      26.670 -10.872  -7.894  0.00  0.00     0.042 A 
ATOM     19  H   UNL d   1      25.109  -9.788  -6.969  0.00  0.00     0.165 HD
ATOM     20  C   UNL d   1      26.655 -10.424  -9.205  0.00  0.00     0.030 A 
ATOM     21  C   UNL d   1      27.531 -11.847  -7.368  0.00  0.00    -0.002 A 
ATOM     22  C   UNL d   1      27.571 -11.009 -10.057  0.00  0.00     0.002 A 
ATOM     23  C   UNL d   1      28.458 -11.985  -9.594  0.00  0.00     0.001 A 
ATOM     24  C   UNL d   1      28.457 -12.416  -8.255  0.00  0.00     0.014 A 
ENDBRANCH  14  15
ENDBRANCH   1  14
BRANCH   1  25
ATOM     25  C   UNL d   1      28.679 -15.394  -5.460  0.00  0.00     0.062 C 
ATOM     26  C   UNL d   1      29.279 -14.873  -6.578  0.00  0.00     0.073 C 
ATOM     27  C   UNL d   1      30.537 -15.212  -6.880  0.00  0.00     0.106 C 
ATOM     28  N   UNL d   1      30.998 -16.372  -6.422  0.00  0.00    -0.221 NA
ATOM     29  C   UNL d   1      30.221 -17.055  -5.507  0.00  0.00     0.132 C 
ATOM     30  N   UNL d   1      29.155 -16.501  -4.861  0.00  0.00    -0.235 NA
BRANCH  27  31
ATOM     31  N   UNL d   1      31.173 -14.294  -7.762  0.00  0.00    -0.281 NA
ATOM     32  C   UNL d   1      32.591 -14.632  -7.972  0.00  0.00     0.114 C 
ATOM     33  H   UNL d   1      30.654 -14.206  -8.620  0.00  0.00     0.128 HD
ENDBRANCH  27  31
BRANCH  29  34
ATOM     34  C   UNL d   1      30.545 -18.538  -5.352  0.00  0.00     0.057 A 
ATOM     35  C   UNL d   1      30.405 -19.557  -6.458  0.00  0.00     0.013 A 
ATOM     36  C   UNL d   1      31.772 -19.235  -5.933  0.00  0.00     0.013 A 
ENDBRANCH  29  34
ENDBRANCH   1  25
TORSDOF 8
ENDMDL
MODEL 5
REMARK VINA RESULT:    -7.823      3.465      7.021
REMARK INTER + INTRA:         -13.416
REMARK INTER:                 -10.209
REMARK INTRA:                  -3.207
REMARK CONF_INDEPENDENT:        2.386
REMARK UNBOUND:                -3.207
REMARK  8 active torsions:
REMARK  status: ('A' for Active; 'I' for Inactive)
REMARK    1  A    between atoms: N_2  and  C_3 
REMARK    2  A    between atoms: C_6  and  C_5 
REMARK    3  A    between atoms: C_6  and  N_17 
REMARK    4  A    between atoms: C_6  and  C_7 
REMARK    5  A    between atoms: C_7  and  C_8 
REMARK       I    between atoms: N_17  and  C_18 
REMARK    6  A    between atoms: C_18  and  C_20 
REMARK    7  A    between atoms: C_25  and  O_26 
REMARK    8  A    between atoms: C_29  and  C_30 
ROOT
ATOM      1  C   UNL d   1      26.311 -14.031  -0.166  0.00  0.00     0.141 C 
ENDROOT
BRANCH   1   2
ATOM      2  N   UNL d   1      26.520 -13.109  -1.342  0.00  0.00    -0.346 N 
ATOM      3  C   UNL d   1      25.922 -13.240  -2.582  0.00  0.00     0.255 C 
ATOM      4  O   UNL d   1      25.204 -14.217  -2.885  0.00  0.00    -0.268 OA
ATOM      5  H   UNL d   1      26.606 -12.133  -1.077  0.00  0.00     0.163 HD
BRANCH   3   6
ATOM      6  C   UNL d   1      26.046 -12.100  -3.552  0.00  0.00     0.065 A 
ATOM      7  C   UNL d   1      25.860 -12.419  -4.934  0.00  0.00     0.020 A 
ATOM      8  C   UNL d   1      25.906 -11.450  -5.944  0.00  0.00     0.001 A 
ATOM      9  C   UNL d   1      26.206 -10.145  -5.601  0.00  0.00     0.003 A 
ATOM     10  C   UNL d   1      26.436  -9.824  -4.259  0.00  0.00     0.038 A 
ATOM     11  C   UNL d   1      26.347 -10.770  -3.214  0.00  0.00     0.084 A 
BRANCH  11  12
ATOM     12  O   UNL d   1      26.655 -10.176  -2.014  0.00  0.00    -0.355 OA
ATOM     13  C   UNL d   1      27.976 -10.179  -1.515  0.00  0.00     0.210 C 
ENDBRANCH  11  12
ENDBRANCH   3   6
ENDBRANCH   1   2
BRANCH   1  14
ATOM     14  C   UNL d   1      27.173 -15.396  -0.338  0.00  0.00     0.072 C 
BRANCH  14  15
ATOM     15  C   UNL d   1      26.429 -16.729  -0.204  0.00  0.00    -0.028 A 
ATOM     16  C   UNL d   1      26.978 -17.948   0.108  0.00  0.00     0.096 A 
ATOM     17  N   UNL d   1      26.083 -18.950   0.072  0.00  0.00    -0.365 N 
ATOM     18  C   UNL d   1      24.873 -18.431  -0.219  0.00  0.00     0.042 A 
ATOM     19  H   UNL d   1      26.303 -19.922   0.230  0.00  0.00     0.165 HD
ATOM     20  C   UNL d   1      23.684 -19.134  -0.332  0.00  0.00     0.030 A 
ATOM     21  C   UNL d   1      25.033 -17.049  -0.402  0.00  0.00    -0.002 A 
ATOM     22  C   UNL d   1      22.569 -18.390  -0.665  0.00  0.00     0.002 A 
ATOM     23  C   UNL d   1      22.660 -17.009  -0.858  0.00  0.00     0.001 A 
ATOM     24  C   UNL d   1      23.879 -16.319  -0.729  0.00  0.00     0.014 A 
ENDBRANCH  14  15
ENDBRANCH   1  14
BRANCH   1  25
ATOM     25  C   UNL d   1      26.819 -13.159   0.971  0.00  0.00     0.062 C 
ATOM     26  C   UNL d   1      27.212 -13.950   2.021  0.00  0.00     0.073 C 
ATOM     27  C   UNL d   1      27.986 -13.442   2.986  0.00  0.00     0.106 C 
ATOM     28  N   UNL d   1      27.949 -12.129   3.189  0.00  0.00    -0.221 NA
ATOM     29  C   UNL d   1      27.269 -11.355   2.269  0.00  0.00     0.132 C 
ATOM     30  N   UNL d   1      26.864 -11.816   1.051  0.00  0.00    -0.235 NA
BRANCH  27  31
ATOM     31  N   UNL d   1      28.673 -14.434   3.739  0.00  0.00    -0.281 NA
ATOM     32  C   UNL d   1      27.940 -14.797   4.963  0.00  0.00     0.114 C 
ATOM     33  H   UNL d   1      28.900 -15.228   3.161  0.00  0.00     0.128 HD
ENDBRANCH  27  31
BRANCH  29  34
ATOM     34  C   UNL d   1      26.871  -9.964   2.752  0.00  0.00     0.057 A 
ATOM     35  C   UNL d   1      26.782  -8.750   1.857  0.00  0.00     0.013 A 
ATOM     36  C   UNL d   1      25.530  -9.290   2.480  0.00  0.00     0.013 A 
ENDBRANCH  29  34
ENDBRANCH   1  25
TORSDOF 8
ENDMDL
MODEL 6
REMARK VINA RESULT:    -7.255      2.353      6.204
REMARK INTER + INTRA:         -13.415
REMARK INTER:                  -9.642
REMARK INTRA:                  -3.773
REMARK CONF_INDEPENDENT:        2.386
REMARK UNBOUND:                -3.773
REMARK  8 active torsions:
REMARK  status: ('A' for Active; 'I' for Inactive)
REMARK    1  A    between atoms: N_2  and  C_3 
REMARK    2  A    between atoms: C_6  and  C_5 
REMARK    3  A    between atoms: C_6  and  N_17 
REMARK    4  A    between atoms: C_6  and  C_7 
REMARK    5  A    between atoms: C_7  and  C_8 
REMARK       I    between atoms: N_17  and  C_18 
REMARK    6  A    between atoms: C_18  and  C_20 
REMARK    7  A    between atoms: C_25  and  O_26 
REMARK    8  A    between atoms: C_29  and  C_30 
ROOT
ATOM      1  C   UNL d   1      26.309 -14.002  -3.928  0.00  0.00     0.141 C 
ENDROOT
BRANCH   1   2
ATOM      2  N   UNL d   1      25.928 -14.969  -2.836  0.00  0.00    -0.346 N 
ATOM      3  C   UNL d   1      24.643 -15.199  -2.377  0.00  0.00     0.255 C 
ATOM      4  O   UNL d   1      23.658 -14.538  -2.770  0.00  0.00    -0.268 OA
ATOM      5  H   UNL d   1      26.471 -15.827  -2.850  0.00  0.00     0.163 HD
BRANCH   3   6
ATOM      6  C   UNL d   1      24.416 -16.370  -1.463  0.00  0.00     0.065 A 
ATOM      7  C   UNL d   1      23.084 -16.542  -0.972  0.00  0.00     0.020 A 
ATOM      8  C   UNL d   1      22.718 -17.612  -0.146  0.00  0.00     0.001 A 
ATOM      9  C   UNL d   1      23.694 -18.502   0.263  0.00  0.00     0.003 A 
ATOM     10  C   UNL d   1      25.012 -18.321  -0.172  0.00  0.00     0.038 A 
ATOM     11  C   UNL d   1      25.400 -17.281  -1.045  0.00  0.00     0.084 A 
BRANCH  11  12
ATOM     12  O   UNL d   1      26.754 -17.336  -1.270  0.00  0.00    -0.355 OA
ATOM     13  C   UNL d   1      27.674 -17.304  -0.199  0.00  0.00     0.210 C 
ENDBRANCH  11  12
ENDBRANCH   3   6
ENDBRANCH   1   2
BRANCH   1  14
ATOM     14  C   UNL d   1      26.664 -12.542  -3.314  0.00  0.00     0.072 C 
BRANCH  14  15
ATOM     15  C   UNL d   1      27.684 -12.480  -2.171  0.00  0.00    -0.028 A 
ATOM     16  C   UNL d   1      28.921 -11.886  -2.206  0.00  0.00     0.096 A 
ATOM     17  N   UNL d   1      29.622 -12.068  -1.074  0.00  0.00    -0.365 N 
ATOM     18  C   UNL d   1      28.856 -12.757  -0.203  0.00  0.00     0.042 A 
ATOM     19  H   UNL d   1      30.565 -11.743  -0.924  0.00  0.00     0.165 HD
ATOM     20  C   UNL d   1      29.208 -13.132   1.083  0.00  0.00     0.030 A 
ATOM     21  C   UNL d   1      27.637 -13.040  -0.838  0.00  0.00    -0.002 A 
ATOM     22  C   UNL d   1      28.265 -13.858   1.784  0.00  0.00     0.002 A 
ATOM     23  C   UNL d   1      27.030 -14.171   1.209  0.00  0.00     0.001 A 
ATOM     24  C   UNL d   1      26.695 -13.770  -0.097  0.00  0.00     0.014 A 
ENDBRANCH  14  15
ENDBRANCH   1  14
BRANCH   1  25
ATOM     25  C   UNL d   1      27.525 -14.701  -4.514  0.00  0.00     0.062 C 
ATOM     26  C   UNL d   1      27.662 -14.362  -5.836  0.00  0.00     0.073 C 
ATOM     27  C   UNL d   1      28.820 -14.583  -6.467  0.00  0.00     0.106 C 
ATOM     28  N   UNL d   1      29.614 -15.540  -5.995  0.00  0.00    -0.221 NA
ATOM     29  C   UNL d   1      29.285 -16.105  -4.778  0.00  0.00     0.132 C 
ATOM     30  N   UNL d   1      28.363 -15.574  -3.925  0.00  0.00    -0.235 NA
BRANCH  27  31
ATOM     31  N   UNL d   1      28.980 -13.803  -7.646  0.00  0.00    -0.281 NA
ATOM     32  C   UNL d   1      30.254 -13.065  -7.644  0.00  0.00     0.114 C 
ATOM     33  H   UNL d   1      28.851 -14.370  -8.468  0.00  0.00     0.128 HD
ENDBRANCH  27  31
BRANCH  29  34
ATOM     34  C   UNL d   1      29.928 -17.459  -4.491  0.00  0.00     0.057 A 
ATOM     35  C   UNL d   1      30.465 -18.385  -5.557  0.00  0.00     0.013 A 
ATOM     36  C   UNL d   1      31.420 -17.761  -4.585  0.00  0.00     0.013 A 
ENDBRANCH  29  34
ENDBRANCH   1  25
TORSDOF 8
ENDMDL
MODEL 7
REMARK VINA RESULT:    -7.109      3.175      6.897
REMARK INTER + INTRA:         -13.258
REMARK INTER:                  -9.495
REMARK INTRA:                  -3.763
REMARK CONF_INDEPENDENT:        2.386
REMARK UNBOUND:                -3.763
REMARK  8 active torsions:
REMARK  status: ('A' for Active; 'I' for Inactive)
REMARK    1  A    between atoms: N_2  and  C_3 
REMARK    2  A    between atoms: C_6  and  C_5 
REMARK    3  A    between atoms: C_6  and  N_17 
REMARK    4  A    between atoms: C_6  and  C_7 
REMARK    5  A    between atoms: C_7  and  C_8 
REMARK       I    between atoms: N_17  and  C_18 
REMARK    6  A    between atoms: C_18  and  C_20 
REMARK    7  A    between atoms: C_25  and  O_26 
REMARK    8  A    between atoms: C_29  and  C_30 
ROOT
ATOM      1  C   UNL d   1      27.311 -14.653  -5.580  0.00  0.00     0.141 C 
ENDROOT
BRANCH   1   2
ATOM      2  N   UNL d   1      27.060 -15.194  -4.195  0.00  0.00    -0.346 N 
ATOM      3  C   UNL d   1      25.824 -15.285  -3.580  0.00  0.00     0.255 C 
ATOM      4  O   UNL d   1      24.781 -14.825  -4.090  0.00  0.00    -0.268 OA
ATOM      5  H   UNL d   1      27.644 -15.990  -3.962  0.00  0.00     0.163 HD
BRANCH   3   6
ATOM      6  C   UNL d   1      25.724 -16.074  -2.305  0.00  0.00     0.065 A 
ATOM      7  C   UNL d   1      24.423 -16.170  -1.718  0.00  0.00     0.020 A 
ATOM      8  C   UNL d   1      24.173 -16.907  -0.554  0.00  0.00     0.001 A 
ATOM      9  C   UNL d   1      25.236 -17.516   0.088  0.00  0.00     0.003 A 
ATOM     10  C   UNL d   1      26.522 -17.395  -0.448  0.00  0.00     0.038 A 
ATOM     11  C   UNL d   1      26.796 -16.700  -1.647  0.00  0.00     0.084 A 
BRANCH  11  12
ATOM     12  O   UNL d   1      28.144 -16.722  -1.906  0.00  0.00    -0.355 OA
ATOM     13  C   UNL d   1      29.070 -17.150  -0.929  0.00  0.00     0.210 C 
ENDBRANCH  11  12
ENDBRANCH   3   6
ENDBRANCH   1   2
BRANCH   1  14
ATOM     14  C   UNL d   1      27.288 -13.029  -5.582  0.00  0.00     0.072 C 
BRANCH  14  15
ATOM     15  C   UNL d   1      27.031 -12.320  -4.247  0.00  0.00    -0.028 A 
ATOM     16  C   UNL d   1      26.182 -11.264  -4.030  0.00  0.00     0.096 A 
ATOM     17  N   UNL d   1      26.231 -10.804  -2.768  0.00  0.00    -0.365 N 
ATOM     18  C   UNL d   1      27.089 -11.573  -2.066  0.00  0.00     0.042 A 
ATOM     19  H   UNL d   1      25.713 -10.009  -2.426  0.00  0.00     0.165 HD
ATOM     20  C   UNL d   1      27.406 -11.435  -0.724  0.00  0.00     0.030 A 
ATOM     21  C   UNL d   1      27.616 -12.533  -2.942  0.00  0.00    -0.002 A 
ATOM     22  C   UNL d   1      28.335 -12.328  -0.225  0.00  0.00     0.002 A 
ATOM     23  C   UNL d   1      28.896 -13.310  -1.045  0.00  0.00     0.001 A 
ATOM     24  C   UNL d   1      28.550 -13.433  -2.403  0.00  0.00     0.014 A 
ENDBRANCH  14  15
ENDBRANCH   1  14
BRANCH   1  25
ATOM     25  C   UNL d   1      28.695 -15.218  -5.858  0.00  0.00     0.062 C 
ATOM     26  C   UNL d   1      29.235 -14.600  -6.957  0.00  0.00     0.073 C 
ATOM     27  C   UNL d   1      30.548 -14.689  -7.196  0.00  0.00     0.106 C 
ATOM     28  N   UNL d   1      31.203 -15.732  -6.696  0.00  0.00    -0.221 NA
ATOM     29  C   UNL d   1      30.531 -16.546  -5.806  0.00  0.00     0.132 C 
ATOM     30  N   UNL d   1      29.348 -16.206  -5.218  0.00  0.00    -0.235 NA
BRANCH  27  31
ATOM     31  N   UNL d   1      31.035 -13.672  -8.064  0.00  0.00    -0.281 NA
ATOM     32  C   UNL d   1      32.483 -13.800  -8.297  0.00  0.00     0.114 C 
ATOM     33  H   UNL d   1      30.496 -13.642  -8.915  0.00  0.00     0.128 HD
ENDBRANCH  27  31
BRANCH  29  34
ATOM     34  C   UNL d   1      31.131 -17.936  -5.609  0.00  0.00     0.057 A 
ATOM     35  C   UNL d   1      30.399 -19.092  -4.970  0.00  0.00     0.013 A 
ATOM     36  C   UNL d   1      30.765 -19.174  -6.421  0.00  0.00     0.013 A 
ENDBRANCH  29  34
ENDBRANCH   1  25
TORSDOF 8
ENDMDL
MODEL 8
REMARK VINA RESULT:    -6.925      2.362      6.583
REMARK INTER + INTRA:         -13.161
REMARK INTER:                  -9.311
REMARK INTRA:                  -3.850
REMARK CONF_INDEPENDENT:        2.386
REMARK UNBOUND:                -3.850
REMARK  8 active torsions:
REMARK  status: ('A' for Active; 'I' for Inactive)
REMARK    1  A    between atoms: N_2  and  C_3 
REMARK    2  A    between atoms: C_6  and  C_5 
REMARK    3  A    between atoms: C_6  and  N_17 
REMARK    4  A    between atoms: C_6  and  C_7 
REMARK    5  A    between atoms: C_7  and  C_8 
REMARK       I    between atoms: N_17  and  C_18 
REMARK    6  A    between atoms: C_18  and  C_20 
REMARK    7  A    between atoms: C_25  and  O_26 
REMARK    8  A    between atoms: C_29  and  C_30 
ROOT
ATOM      1  C   UNL d   1      26.292 -14.381  -4.174  0.00  0.00     0.141 C 
ENDROOT
BRANCH   1   2
ATOM      2  N   UNL d   1      25.881 -15.253  -3.014  0.00  0.00    -0.346 N 
ATOM      3  C   UNL d   1      24.624 -15.281  -2.437  0.00  0.00     0.255 C 
ATOM      4  O   UNL d   1      23.711 -14.495  -2.768  0.00  0.00    -0.268 OA
ATOM      5  H   UNL d   1      26.292 -16.180  -3.041  0.00  0.00     0.163 HD
BRANCH   3   6
ATOM      6  C   UNL d   1      24.318 -16.381  -1.460  0.00  0.00     0.065 A 
ATOM      7  C   UNL d   1      22.969 -16.457  -0.990  0.00  0.00     0.020 A 
ATOM      8  C   UNL d   1      22.531 -17.454  -0.111  0.00  0.00     0.001 A 
ATOM      9  C   UNL d   1      23.452 -18.365   0.373  0.00  0.00     0.003 A 
ATOM     10  C   UNL d   1      24.786 -18.278  -0.041  0.00  0.00     0.038 A 
ATOM     11  C   UNL d   1      25.245 -17.314  -0.965  0.00  0.00     0.084 A 
BRANCH  11  12
ATOM     12  O   UNL d   1      26.599 -17.451  -1.154  0.00  0.00    -0.355 OA
ATOM     13  C   UNL d   1      27.473 -17.648  -0.063  0.00  0.00     0.210 C 
ENDBRANCH  11  12
ENDBRANCH   3   6
ENDBRANCH   1   2
BRANCH   1  14
ATOM     14  C   UNL d   1      26.507 -12.844  -3.697  0.00  0.00     0.072 C 
BRANCH  14  15
ATOM     15  C   UNL d   1      27.485 -12.587  -2.544  0.00  0.00    -0.028 A 
ATOM     16  C   UNL d   1      28.621 -11.819  -2.588  0.00  0.00     0.096 A 
ATOM     17  N   UNL d   1      29.319 -11.850  -1.440  0.00  0.00    -0.365 N 
ATOM     18  C   UNL d   1      28.645 -12.609  -0.551  0.00  0.00     0.042 A 
ATOM     19  H   UNL d   1      30.202 -11.384  -1.291  0.00  0.00     0.165 HD
ATOM     20  C   UNL d   1      29.024 -12.875   0.755  0.00  0.00     0.030 A 
ATOM     21  C   UNL d   1      27.494 -13.093  -1.190  0.00  0.00    -0.002 A 
ATOM     22  C   UNL d   1      28.183 -13.704   1.473  0.00  0.00     0.002 A 
ATOM     23  C   UNL d   1      27.019 -14.218   0.896  0.00  0.00     0.001 A 
ATOM     24  C   UNL d   1      26.654 -13.924  -0.431  0.00  0.00     0.014 A 
ENDBRANCH  14  15
ENDBRANCH   1  14
BRANCH   1  25
ATOM     25  C   UNL d   1      27.592 -15.053  -4.585  0.00  0.00     0.062 C 
ATOM     26  C   UNL d   1      28.262 -15.488  -3.469  0.00  0.00     0.073 C 
ATOM     27  C   UNL d   1      29.249 -16.382  -3.588  0.00  0.00     0.106 C 
ATOM     28  N   UNL d   1      29.887 -16.456  -4.753  0.00  0.00    -0.221 NA
ATOM     29  C   UNL d   1      29.364 -15.747  -5.817  0.00  0.00     0.132 C 
ATOM     30  N   UNL d   1      28.116 -15.198  -5.816  0.00  0.00    -0.235 NA
BRANCH  27  31
ATOM     31  N   UNL d   1      29.539 -17.068  -2.376  0.00  0.00    -0.281 NA
ATOM     32  C   UNL d   1      30.399 -16.268  -1.489  0.00  0.00     0.114 C 
ATOM     33  H   UNL d   1      28.692 -17.382  -1.931  0.00  0.00     0.128 HD
ENDBRANCH  27  31
BRANCH  29  34
ATOM     34  C   UNL d   1      30.331 -15.494  -6.971  0.00  0.00     0.057 A 
ATOM     35  C   UNL d   1      31.688 -14.849  -6.814  0.00  0.00     0.013 A 
ATOM     36  C   UNL d   1      31.607 -16.284  -7.238  0.00  0.00     0.013 A 
ENDBRANCH  29  34
ENDBRANCH   1  25
TORSDOF 8
ENDMDL
MODEL 9
REMARK VINA RESULT:    -6.826      1.889      3.032
REMARK INTER + INTRA:         -13.057
REMARK INTER:                  -9.212
REMARK INTRA:                  -3.845
REMARK CONF_INDEPENDENT:        2.386
REMARK UNBOUND:                -3.845
REMARK  8 active torsions:
REMARK  status: ('A' for Active; 'I' for Inactive)
REMARK    1  A    between atoms: N_2  and  C_3 
REMARK    2  A    between atoms: C_6  and  C_5 
REMARK    3  A    between atoms: C_6  and  N_17 
REMARK    4  A    between atoms: C_6  and  C_7 
REMARK    5  A    between atoms: C_7  and  C_8 
REMARK       I    between atoms: N_17  and  C_18 
REMARK    6  A    between atoms: C_18  and  C_20 
REMARK    7  A    between atoms: C_25  and  O_26 
REMARK    8  A    between atoms: C_29  and  C_30 
ROOT
ATOM      1  C   UNL d   1      28.217 -17.072  -0.966  0.00  0.00     0.141 C 
ENDROOT
BRANCH   1   2
ATOM      2  N   UNL d   1      28.712 -16.629  -2.320  0.00  0.00    -0.346 N 
ATOM      3  C   UNL d   1      29.957 -16.912  -2.852  0.00  0.00     0.255 C 
ATOM      4  O   UNL d   1      30.851 -17.497  -2.204  0.00  0.00    -0.268 OA
ATOM      5  H   UNL d   1      27.994 -16.647  -3.037  0.00  0.00     0.163 HD
BRANCH   3   6
ATOM      6  C   UNL d   1      30.192 -16.608  -4.305  0.00  0.00     0.065 A 
ATOM      7  C   UNL d   1      31.495 -16.908  -4.814  0.00  0.00     0.020 A 
ATOM      8  C   UNL d   1      31.842 -16.716  -6.157  0.00  0.00     0.001 A 
ATOM      9  C   UNL d   1      30.912 -16.154  -7.011  0.00  0.00     0.003 A 
ATOM     10  C   UNL d   1      29.647 -15.812  -6.519  0.00  0.00     0.038 A 
ATOM     11  C   UNL d   1      29.252 -16.041  -5.182  0.00  0.00     0.084 A 
BRANCH  11  12
ATOM     12  O   UNL d   1      27.976 -15.575  -4.982  0.00  0.00    -0.355 OA
ATOM     13  C   UNL d   1      27.591 -14.288  -5.416  0.00  0.00     0.210 C 
ENDBRANCH  11  12
ENDBRANCH   3   6
ENDBRANCH   1   2
BRANCH   1  14
ATOM     14  C   UNL d   1      28.704 -16.047   0.194  0.00  0.00     0.072 C 
BRANCH  14  15
ATOM     15  C   UNL d   1      28.164 -14.613   0.149  0.00  0.00    -0.028 A 
ATOM     16  C   UNL d   1      27.387 -13.998   1.099  0.00  0.00     0.096 A 
ATOM     17  N   UNL d   1      27.000 -12.762   0.739  0.00  0.00    -0.365 N 
ATOM     18  C   UNL d   1      27.550 -12.474  -0.458  0.00  0.00     0.042 A 
ATOM     19  H   UNL d   1      26.392 -12.169   1.285  0.00  0.00     0.165 HD
ATOM     20  C   UNL d   1      27.408 -11.290  -1.163  0.00  0.00     0.030 A 
ATOM     21  C   UNL d   1      28.285 -13.595  -0.871  0.00  0.00    -0.002 A 
ATOM     22  C   UNL d   1      28.047 -11.232  -2.387  0.00  0.00     0.002 A 
ATOM     23  C   UNL d   1      28.797 -12.314  -2.855  0.00  0.00     0.001 A 
ATOM     24  C   UNL d   1      28.932 -13.502  -2.114  0.00  0.00     0.014 A 
ENDBRANCH  14  15
ENDBRANCH   1  14
BRANCH   1  25
ATOM     25  C   UNL d   1      26.713 -17.032  -1.188  0.00  0.00     0.062 C 
ATOM     26  C   UNL d   1      26.389 -15.952  -1.970  0.00  0.00     0.073 C 
ATOM     27  C   UNL d   1      25.193 -15.892  -2.564  0.00  0.00     0.106 C 
ATOM     28  N   UNL d   1      24.191 -16.577  -2.020  0.00  0.00    -0.221 NA
ATOM     29  C   UNL d   1      24.494 -17.454  -0.998  0.00  0.00     0.132 C 
ATOM     30  N   UNL d   1      25.764 -17.848  -0.694  0.00  0.00    -0.235 NA
BRANCH  27  31
ATOM     31  N   UNL d   1      25.153 -14.993  -3.666  0.00  0.00    -0.281 NA
ATOM     32  C   UNL d   1      25.153 -13.588  -3.224  0.00  0.00     0.114 C 
ATOM     33  H   UNL d   1      25.886 -15.202  -4.324  0.00  0.00     0.128 HD
ENDBRANCH  27  31
BRANCH  29  34
ATOM     34  C   UNL d   1      23.316 -17.868  -0.121  0.00  0.00     0.057 A 
ATOM     35  C   UNL d   1      21.872 -17.823  -0.563  0.00  0.00     0.013 A 
ATOM     36  C   UNL d   1      22.508 -19.151  -0.283  0.00  0.00     0.013 A 
ENDBRANCH  29  34
ENDBRANCH   1  25
TORSDOF 8
ENDMDL
