MODEL 1
REMARK VINA RESULT:    -8.976      0.000      0.000
REMARK INTER + INTRA:         -12.343
REMARK INTER:                 -11.065
REMARK INTRA:                  -1.279
REMARK CONF_INDEPENDENT:        2.088
REMARK UNBOUND:                -1.279
REMARK  7 active torsions:
REMARK  status: ('A' for Active; 'I' for Inactive)
REMARK    1  A    between atoms: C_2  and  N_3 
REMARK       I    between atoms: N_3  and  C_4 
REMARK    2  A    between atoms: C_4  and  C_6 
REMARK    3  A    between atoms: C_10  and  N_11 
REMARK       I    between atoms: N_11  and  C_12 
REMARK    4  A    between atoms: C_12  and  C_14 
REMARK    5  A    between atoms: C_14  and  N_15 
REMARK    6  A    between atoms: N_15  and  C_16 
REMARK    7  A    between atoms: C_22  and  S_23 
ROOT
ATOM      1  N   UNL d   1      25.359 -14.984  -1.554  0.00  0.00    -0.326 N 
ATOM      2  C   UNL d   1      25.277 -14.536  -2.875  0.00  0.00     0.239 C 
ATOM      3  O   UNL d   1      25.156 -15.279  -3.856  0.00  0.00    -0.271 OA
ATOM      4  H   UNL d   1      25.650 -14.343  -0.823  0.00  0.00     0.169 HD
ENDROOT
BRANCH   1   5
ATOM      5  C   UNL d   1      25.004 -16.312  -1.151  0.00  0.00     0.035 A 
ATOM      6  C   UNL d   1      25.945 -17.184  -0.583  0.00  0.00     0.029 A 
ATOM      7  C   UNL d   1      25.528 -18.426  -0.054  0.00  0.00     0.003 A 
ATOM      8  C   UNL d   1      24.193 -18.837  -0.147  0.00  0.00     0.017 A 
ATOM      9  C   UNL d   1      23.261 -17.991  -0.734  0.00  0.00     0.034 A 
ATOM     10  C   UNL d   1      23.676 -16.755  -1.218  0.00  0.00     0.046 A 
BRANCH   9  11
ATOM     11  C   UNL d   1      21.802 -18.303  -0.709  0.00  0.00     0.251 C 
ATOM     12  N   UNL d   1      21.443 -19.525  -0.149  0.00  0.00    -0.357 N 
ATOM     13  H   UNL d   1      22.147 -20.139   0.237  0.00  0.00     0.162 HD
ATOM     14  O   UNL d   1      21.012 -17.514  -1.180  0.00  0.00    -0.268 OA
BRANCH  12  15
ATOM     15  C   UNL d   1      20.048 -19.921  -0.081  0.00  0.00     0.118 C 
ATOM     16  C   UNL d   1      19.510 -19.921   1.340  0.00  0.00     0.026 C 
ENDBRANCH  12  15
ENDBRANCH   9  11
ENDBRANCH   1   5
BRANCH   2  17
ATOM     17  C   UNL d   1      25.360 -13.026  -3.157  0.00  0.00     0.223 C 
BRANCH  17  18
ATOM     18  N   UNL d   1      25.189 -12.825  -4.583  0.00  0.00    -0.380 N 
ATOM     19  H   UNL d   1      24.371 -13.266  -5.017  0.00  0.00     0.160 HD
BRANCH  18  20
ATOM     20  C   UNL d   1      26.282 -12.572  -5.392  0.00  0.00     0.046 A 
ATOM     21  C   UNL d   1      27.162 -13.680  -5.447  0.00  0.00     0.054 A 
ATOM     22  C   UNL d   1      28.298 -13.683  -6.237  0.00  0.00     0.036 A 
ATOM     23 CL   UNL d   1      29.370 -15.025  -6.182  0.00  0.00    -0.084 Cl
ATOM     24  C   UNL d   1      28.560 -12.593  -7.043  0.00  0.00     0.025 A 
ATOM     25  C   UNL d   1      27.727 -11.460  -6.972  0.00  0.00     0.022 A 
ATOM     26  C   UNL d   1      26.583 -11.395  -6.124  0.00  0.00     0.026 A 
BRANCH  26  27
ATOM     27  S   UNL d   1      25.762  -9.750  -6.219  0.00  0.00    -0.132 SA
ATOM     28  C   UNL d   1      25.161  -9.166  -4.578  0.00  0.00     0.095 C 
ENDBRANCH  26  27
ENDBRANCH  18  20
ENDBRANCH  17  18
ENDBRANCH   2  17
TORSDOF 7
ENDMDL
MODEL 2
REMARK VINA RESULT:    -8.572      1.941      2.564
REMARK INTER + INTRA:         -12.345
REMARK INTER:                 -10.660
REMARK INTRA:                  -1.684
REMARK CONF_INDEPENDENT:        2.088
REMARK UNBOUND:                -1.684
REMARK  7 active torsions:
REMARK  status: ('A' for Active; 'I' for Inactive)
REMARK    1  A    between atoms: C_2  and  N_3 
REMARK       I    between atoms: N_3  and  C_4 
REMARK    2  A    between atoms: C_4  and  C_6 
REMARK    3  A    between atoms: C_10  and  N_11 
REMARK       I    between atoms: N_11  and  C_12 
REMARK    4  A    between atoms: C_12  and  C_14 
REMARK    5  A    between atoms: C_14  and  N_15 
REMARK    6  A    between atoms: N_15  and  C_16 
REMARK    7  A    between atoms: C_22  and  S_23 
ROOT
ATOM      1  N   UNL d   1      25.283 -14.872  -1.718  0.00  0.00    -0.326 N 
ATOM      2  C   UNL d   1      25.221 -14.506  -3.065  0.00  0.00     0.239 C 
ATOM      3  O   UNL d   1      25.155 -15.309  -4.004  0.00  0.00    -0.271 OA
ATOM      4  H   UNL d   1      25.529 -14.178  -1.019  0.00  0.00     0.169 HD
ENDROOT
BRANCH   1   5
ATOM      5  C   UNL d   1      24.968 -16.188  -1.247  0.00  0.00     0.035 A 
ATOM      6  C   UNL d   1      25.939 -17.007  -0.650  0.00  0.00     0.029 A 
ATOM      7  C   UNL d   1      25.562 -18.232  -0.057  0.00  0.00     0.003 A 
ATOM      8  C   UNL d   1      24.237 -18.680  -0.110  0.00  0.00     0.017 A 
ATOM      9  C   UNL d   1      23.275 -17.887  -0.724  0.00  0.00     0.034 A 
ATOM     10  C   UNL d   1      23.652 -16.667  -1.273  0.00  0.00     0.046 A 
BRANCH   9  11
ATOM     11  C   UNL d   1      21.826 -18.235  -0.663  0.00  0.00     0.251 C 
ATOM     12  N   UNL d   1      21.512 -19.476  -0.119  0.00  0.00    -0.357 N 
ATOM     13  H   UNL d   1      22.242 -20.081   0.233  0.00  0.00     0.162 HD
ATOM     14  O   UNL d   1      21.003 -17.456  -1.094  0.00  0.00    -0.268 OA
BRANCH  12  15
ATOM     15  C   UNL d   1      20.129 -19.908  -0.018  0.00  0.00     0.118 C 
ATOM     16  C   UNL d   1      19.673 -20.073   1.422  0.00  0.00     0.026 C 
ENDBRANCH  12  15
ENDBRANCH   9  11
ENDBRANCH   1   5
BRANCH   2  17
ATOM     17  C   UNL d   1      25.253 -13.012  -3.435  0.00  0.00     0.223 C 
BRANCH  17  18
ATOM     18  N   UNL d   1      25.242 -12.906  -4.881  0.00  0.00    -0.380 N 
ATOM     19  H   UNL d   1      24.774 -13.661  -5.395  0.00  0.00     0.160 HD
BRANCH  18  20
ATOM     20  C   UNL d   1      26.231 -12.201  -5.541  0.00  0.00     0.046 A 
ATOM     21  C   UNL d   1      25.905 -10.828  -5.661  0.00  0.00     0.054 A 
ATOM     22  C   UNL d   1      26.768  -9.912  -6.237  0.00  0.00     0.036 A 
ATOM     23 CL   UNL d   1      26.268  -8.279  -6.434  0.00  0.00    -0.084 Cl
ATOM     24  C   UNL d   1      28.013 -10.333  -6.661  0.00  0.00     0.025 A 
ATOM     25  C   UNL d   1      28.342 -11.700  -6.597  0.00  0.00     0.022 A 
ATOM     26  C   UNL d   1      27.456 -12.684  -6.068  0.00  0.00     0.026 A 
BRANCH  26  27
ATOM     27  S   UNL d   1      28.167 -14.377  -6.199  0.00  0.00    -0.132 SA
ATOM     28  C   UNL d   1      28.233 -15.242  -4.573  0.00  0.00     0.095 C 
ENDBRANCH  26  27
ENDBRANCH  18  20
ENDBRANCH  17  18
ENDBRANCH   2  17
TORSDOF 7
ENDMDL
MODEL 3
REMARK VINA RESULT:    -8.373      1.968      2.558
REMARK INTER + INTRA:         -11.763
REMARK INTER:                 -10.461
REMARK INTRA:                  -1.301
REMARK CONF_INDEPENDENT:        2.088
REMARK UNBOUND:                -1.301
REMARK  7 active torsions:
REMARK  status: ('A' for Active; 'I' for Inactive)
REMARK    1  A    between atoms: C_2  and  N_3 
REMARK       I    between atoms: N_3  and  C_4 
REMARK    2  A    between atoms: C_4  and  C_6 
REMARK    3  A    between atoms: C_10  and  N_11 
REMARK       I    between atoms: N_11  and  C_12 
REMARK    4  A    between atoms: C_12  and  C_14 
REMARK    5  A    between atoms: C_14  and  N_15 
REMARK    6  A    between atoms: N_15  and  C_16 
REMARK    7  A    between atoms: C_22  and  S_23 
ROOT
ATOM      1  N   UNL d   1      25.268 -14.929  -1.995  0.00  0.00    -0.326 N 
ATOM      2  C   UNL d   1      25.211 -14.693  -3.371  0.00  0.00     0.239 C 
ATOM      3  O   UNL d   1      25.167 -15.583  -4.229  0.00  0.00    -0.271 OA
ATOM      4  H   UNL d   1      25.495 -14.167  -1.363  0.00  0.00     0.169 HD
ENDROOT
BRANCH   1   5
ATOM      5  C   UNL d   1      24.970 -16.199  -1.402  0.00  0.00     0.035 A 
ATOM      6  C   UNL d   1      25.960 -16.960  -0.761  0.00  0.00     0.029 A 
ATOM      7  C   UNL d   1      25.604 -18.129  -0.054  0.00  0.00     0.003 A 
ATOM      8  C   UNL d   1      24.280 -18.585  -0.034  0.00  0.00     0.017 A 
ATOM      9  C   UNL d   1      23.300 -17.851  -0.691  0.00  0.00     0.034 A 
ATOM     10  C   UNL d   1      23.656 -16.682  -1.354  0.00  0.00     0.046 A 
BRANCH   9  11
ATOM     11  C   UNL d   1      21.854 -18.196  -0.564  0.00  0.00     0.251 C 
ATOM     12  N   UNL d   1      21.564 -19.457  -0.053  0.00  0.00    -0.357 N 
ATOM     13  H   UNL d   1      22.308 -20.078   0.233  0.00  0.00     0.162 HD
ATOM     14  O   UNL d   1      21.013 -17.397  -0.916  0.00  0.00    -0.268 OA
BRANCH  12  15
ATOM     15  C   UNL d   1      20.187 -19.888   0.107  0.00  0.00     0.118 C 
ATOM     16  C   UNL d   1      19.737 -19.878   1.558  0.00  0.00     0.026 C 
ENDBRANCH  12  15
ENDBRANCH   9  11
ENDBRANCH   1   5
BRANCH   2  17
ATOM     17  C   UNL d   1      25.221 -13.241  -3.881  0.00  0.00     0.223 C 
BRANCH  17  18
ATOM     18  N   UNL d   1      26.603 -12.814  -3.994  0.00  0.00    -0.380 N 
ATOM     19  H   UNL d   1      26.799 -11.827  -3.798  0.00  0.00     0.160 HD
BRANCH  18  20
ATOM     20  C   UNL d   1      27.478 -13.486  -4.827  0.00  0.00     0.046 A 
ATOM     21  C   UNL d   1      27.587 -12.857  -6.091  0.00  0.00     0.054 A 
ATOM     22  C   UNL d   1      28.447 -13.317  -7.072  0.00  0.00     0.036 A 
ATOM     23 CL   UNL d   1      28.459 -12.561  -8.617  0.00  0.00    -0.084 Cl
ATOM     24  C   UNL d   1      29.269 -14.392  -6.799  0.00  0.00     0.025 A 
ATOM     25  C   UNL d   1      29.146 -15.064  -5.568  0.00  0.00     0.022 A 
ATOM     26  C   UNL d   1      28.228 -14.659  -4.555  0.00  0.00     0.026 A 
BRANCH  26  27
ATOM     27  S   UNL d   1      28.273 -15.795  -3.107  0.00  0.00    -0.132 SA
ATOM     28  C   UNL d   1      28.372 -14.890  -1.504  0.00  0.00     0.095 C 
ENDBRANCH  26  27
ENDBRANCH  18  20
ENDBRANCH  17  18
ENDBRANCH   2  17
TORSDOF 7
ENDMDL
MODEL 4
REMARK VINA RESULT:    -8.277      1.372      1.639
REMARK INTER + INTRA:         -11.412
REMARK INTER:                 -10.365
REMARK INTRA:                  -1.046
REMARK CONF_INDEPENDENT:        2.088
REMARK UNBOUND:                -1.046
REMARK  7 active torsions:
REMARK  status: ('A' for Active; 'I' for Inactive)
REMARK    1  A    between atoms: C_2  and  N_3 
REMARK       I    between atoms: N_3  and  C_4 
REMARK    2  A    between atoms: C_4  and  C_6 
REMARK    3  A    between atoms: C_10  and  N_11 
REMARK       I    between atoms: N_11  and  C_12 
REMARK    4  A    between atoms: C_12  and  C_14 
REMARK    5  A    between atoms: C_14  and  N_15 
REMARK    6  A    between atoms: N_15  and  C_16 
REMARK    7  A    between atoms: C_22  and  S_23 
ROOT
ATOM      1  N   UNL d   1      25.949 -15.565  -2.451  0.00  0.00    -0.326 N 
ATOM      2  C   UNL d   1      25.156 -14.487  -2.853  0.00  0.00     0.239 C 
ATOM      3  O   UNL d   1      23.924 -14.449  -2.747  0.00  0.00    -0.271 OA
ATOM      4  H   UNL d   1      26.920 -15.611  -2.742  0.00  0.00     0.169 HD
ENDROOT
BRANCH   1   5
ATOM      5  C   UNL d   1      25.476 -16.611  -1.594  0.00  0.00     0.035 A 
ATOM      6  C   UNL d   1      26.336 -17.282  -0.711  0.00  0.00     0.029 A 
ATOM      7  C   UNL d   1      25.811 -18.197   0.228  0.00  0.00     0.003 A 
ATOM      8  C   UNL d   1      24.444 -18.499   0.253  0.00  0.00     0.017 A 
ATOM      9  C   UNL d   1      23.590 -17.859  -0.637  0.00  0.00     0.034 A 
ATOM     10  C   UNL d   1      24.114 -16.934  -1.533  0.00  0.00     0.046 A 
BRANCH   9  11
ATOM     11  C   UNL d   1      22.110 -18.016  -0.545  0.00  0.00     0.251 C 
ATOM     12  N   UNL d   1      21.648 -19.236  -0.062  0.00  0.00    -0.357 N 
ATOM     13  H   UNL d   1      22.300 -19.953   0.229  0.00  0.00     0.162 HD
ATOM     14  O   UNL d   1      21.387 -17.110  -0.900  0.00  0.00    -0.268 OA
BRANCH  12  15
ATOM     15  C   UNL d   1      20.224 -19.487   0.064  0.00  0.00     0.118 C 
ATOM     16  C   UNL d   1      19.896 -20.440   1.201  0.00  0.00     0.026 C 
ENDBRANCH  12  15
ENDBRANCH   9  11
ENDBRANCH   1   5
BRANCH   2  17
ATOM     17  C   UNL d   1      25.833 -13.260  -3.491  0.00  0.00     0.223 C 
BRANCH  17  18
ATOM     18  N   UNL d   1      25.893 -13.475  -4.924  0.00  0.00    -0.380 N 
ATOM     19  H   UNL d   1      25.062 -13.883  -5.365  0.00  0.00     0.160 HD
BRANCH  18  20
ATOM     20  C   UNL d   1      27.109 -13.665  -5.554  0.00  0.00     0.046 A 
ATOM     21  C   UNL d   1      27.743 -14.856  -5.123  0.00  0.00     0.054 A 
ATOM     22  C   UNL d   1      28.947 -15.285  -5.654  0.00  0.00     0.036 A 
ATOM     23 CL   UNL d   1      29.705 -16.691  -5.017  0.00  0.00    -0.084 Cl
ATOM     24  C   UNL d   1      29.528 -14.563  -6.677  0.00  0.00     0.025 A 
ATOM     25  C   UNL d   1      28.943 -13.351  -7.091  0.00  0.00     0.022 A 
ATOM     26  C   UNL d   1      27.737 -12.843  -6.525  0.00  0.00     0.026 A 
BRANCH  26  27
ATOM     27  S   UNL d   1      27.289 -11.207  -7.241  0.00  0.00    -0.132 SA
ATOM     28  C   UNL d   1      26.857 -11.314  -9.029  0.00  0.00     0.095 C 
ENDBRANCH  26  27
ENDBRANCH  18  20
ENDBRANCH  17  18
ENDBRANCH   2  17
TORSDOF 7
ENDMDL
MODEL 5
REMARK VINA RESULT:    -8.202      2.715      3.528
REMARK INTER + INTRA:         -11.563
REMARK INTER:                 -10.291
REMARK INTRA:                  -1.272
REMARK CONF_INDEPENDENT:        2.088
REMARK UNBOUND:                -1.272
REMARK  7 active torsions:
REMARK  status: ('A' for Active; 'I' for Inactive)
REMARK    1  A    between atoms: C_2  and  N_3 
REMARK       I    between atoms: N_3  and  C_4 
REMARK    2  A    between atoms: C_4  and  C_6 
REMARK    3  A    between atoms: C_10  and  N_11 
REMARK       I    between atoms: N_11  and  C_12 
REMARK    4  A    between atoms: C_12  and  C_14 
REMARK    5  A    between atoms: C_14  and  N_15 
REMARK    6  A    between atoms: N_15  and  C_16 
REMARK    7  A    between atoms: C_22  and  S_23 
ROOT
ATOM      1  N   UNL d   1      25.826 -15.977  -2.791  0.00  0.00    -0.326 N 
ATOM      2  C   UNL d   1      25.172 -14.818  -3.218  0.00  0.00     0.239 C 
ATOM      3  O   UNL d   1      24.010 -14.522  -2.916  0.00  0.00    -0.271 OA
ATOM      4  H   UNL d   1      26.700 -16.251  -3.228  0.00  0.00     0.169 HD
ENDROOT
BRANCH   1   5
ATOM      5  C   UNL d   1      25.350 -16.796  -1.715  0.00  0.00     0.035 A 
ATOM      6  C   UNL d   1      26.178 -17.145  -0.637  0.00  0.00     0.029 A 
ATOM      7  C   UNL d   1      25.637 -17.820   0.479  0.00  0.00     0.003 A 
ATOM      8  C   UNL d   1      24.292 -18.209   0.504  0.00  0.00     0.017 A 
ATOM      9  C   UNL d   1      23.474 -17.891  -0.573  0.00  0.00     0.034 A 
ATOM     10  C   UNL d   1      24.009 -17.195  -1.651  0.00  0.00     0.046 A 
BRANCH   9  11
ATOM     11  C   UNL d   1      22.002 -18.132  -0.529  0.00  0.00     0.251 C 
ATOM     12  N   UNL d   1      21.595 -19.383  -0.076  0.00  0.00    -0.357 N 
ATOM     13  H   UNL d   1      22.277 -20.065   0.226  0.00  0.00     0.162 HD
ATOM     14  O   UNL d   1      21.241 -17.263  -0.896  0.00  0.00    -0.268 OA
BRANCH  12  15
ATOM     15  C   UNL d   1      20.184 -19.714   0.002  0.00  0.00     0.118 C 
ATOM     16  C   UNL d   1      19.810 -20.371   1.319  0.00  0.00     0.026 C 
ENDBRANCH  12  15
ENDBRANCH   9  11
ENDBRANCH   1   5
BRANCH   2  17
ATOM     17  C   UNL d   1      25.918 -13.838  -4.141  0.00  0.00     0.223 C 
BRANCH  17  18
ATOM     18  N   UNL d   1      25.293 -12.536  -4.012  0.00  0.00    -0.380 N 
ATOM     19  H   UNL d   1      24.628 -12.268  -4.746  0.00  0.00     0.160 HD
BRANCH  18  20
ATOM     20  C   UNL d   1      25.927 -11.518  -3.322  0.00  0.00     0.046 A 
ATOM     21  C   UNL d   1      25.532 -10.242  -3.790  0.00  0.00     0.054 A 
ATOM     22  C   UNL d   1      25.991  -9.070  -3.215  0.00  0.00     0.036 A 
ATOM     23 CL   UNL d   1      25.544  -7.555  -3.895  0.00  0.00    -0.084 Cl
ATOM     24  C   UNL d   1      26.821  -9.140  -2.113  0.00  0.00     0.025 A 
ATOM     25  C   UNL d   1      27.266 -10.396  -1.658  0.00  0.00     0.022 A 
ATOM     26  C   UNL d   1      26.864 -11.623  -2.263  0.00  0.00     0.026 A 
BRANCH  26  27
ATOM     27  S   UNL d   1      27.684 -13.069  -1.471  0.00  0.00    -0.132 SA
ATOM     28  C   UNL d   1      26.889 -13.545   0.122  0.00  0.00     0.095 C 
ENDBRANCH  26  27
ENDBRANCH  18  20
ENDBRANCH  17  18
ENDBRANCH   2  17
TORSDOF 7
ENDMDL
MODEL 6
REMARK VINA RESULT:    -8.109      1.602      1.939
REMARK INTER + INTRA:         -11.658
REMARK INTER:                 -10.197
REMARK INTRA:                  -1.461
REMARK CONF_INDEPENDENT:        2.088
REMARK UNBOUND:                -1.461
REMARK  7 active torsions:
REMARK  status: ('A' for Active; 'I' for Inactive)
REMARK    1  A    between atoms: C_2  and  N_3 
REMARK       I    between atoms: N_3  and  C_4 
REMARK    2  A    between atoms: C_4  and  C_6 
REMARK    3  A    between atoms: C_10  and  N_11 
REMARK       I    between atoms: N_11  and  C_12 
REMARK    4  A    between atoms: C_12  and  C_14 
REMARK    5  A    between atoms: C_14  and  N_15 
REMARK    6  A    between atoms: N_15  and  C_16 
REMARK    7  A    between atoms: C_22  and  S_23 
ROOT
ATOM      1  N   UNL d   1      25.871 -15.976  -2.868  0.00  0.00    -0.326 N 
ATOM      2  C   UNL d   1      25.271 -14.766  -3.227  0.00  0.00     0.239 C 
ATOM      3  O   UNL d   1      24.151 -14.404  -2.846  0.00  0.00    -0.271 OA
ATOM      4  H   UNL d   1      26.697 -16.293  -3.366  0.00  0.00     0.169 HD
ENDROOT
BRANCH   1   5
ATOM      5  C   UNL d   1      25.410 -16.791  -1.784  0.00  0.00     0.035 A 
ATOM      6  C   UNL d   1      26.251 -17.138  -0.716  0.00  0.00     0.029 A 
ATOM      7  C   UNL d   1      25.724 -17.809   0.409  0.00  0.00     0.003 A 
ATOM      8  C   UNL d   1      24.380 -18.198   0.452  0.00  0.00     0.017 A 
ATOM      9  C   UNL d   1      23.548 -17.883  -0.615  0.00  0.00     0.034 A 
ATOM     10  C   UNL d   1      24.069 -17.190  -1.702  0.00  0.00     0.046 A 
BRANCH   9  11
ATOM     11  C   UNL d   1      22.076 -18.123  -0.552  0.00  0.00     0.251 C 
ATOM     12  N   UNL d   1      21.674 -19.356  -0.049  0.00  0.00    -0.357 N 
ATOM     13  H   UNL d   1      22.359 -20.027   0.273  0.00  0.00     0.162 HD
ATOM     14  O   UNL d   1      21.312 -17.268  -0.944  0.00  0.00    -0.268 OA
BRANCH  12  15
ATOM     15  C   UNL d   1      20.264 -19.686   0.051  0.00  0.00     0.118 C 
ATOM     16  C   UNL d   1      19.847 -20.043   1.468  0.00  0.00     0.026 C 
ENDBRANCH  12  15
ENDBRANCH   9  11
ENDBRANCH   1   5
BRANCH   2  17
ATOM     17  C   UNL d   1      26.021 -13.811  -4.172  0.00  0.00     0.223 C 
BRANCH  17  18
ATOM     18  N   UNL d   1      25.386 -12.509  -4.093  0.00  0.00    -0.380 N 
ATOM     19  H   UNL d   1      24.383 -12.497  -3.882  0.00  0.00     0.160 HD
BRANCH  18  20
ATOM     20  C   UNL d   1      25.906 -11.432  -4.787  0.00  0.00     0.046 A 
ATOM     21  C   UNL d   1      26.412 -11.818  -6.052  0.00  0.00     0.054 A 
ATOM     22  C   UNL d   1      26.933 -10.902  -6.949  0.00  0.00     0.036 A 
ATOM     23 CL   UNL d   1      27.617 -11.452  -8.427  0.00  0.00    -0.084 Cl
ATOM     24  C   UNL d   1      26.911  -9.558  -6.630  0.00  0.00     0.025 A 
ATOM     25  C   UNL d   1      26.457  -9.154  -5.360  0.00  0.00     0.022 A 
ATOM     26  C   UNL d   1      25.972 -10.073  -4.385  0.00  0.00     0.026 A 
BRANCH  26  27
ATOM     27  S   UNL d   1      25.527  -9.223  -2.813  0.00  0.00    -0.132 SA
ATOM     28  C   UNL d   1      25.599  -7.388  -2.960  0.00  0.00     0.095 C 
ENDBRANCH  26  27
ENDBRANCH  18  20
ENDBRANCH  17  18
ENDBRANCH   2  17
TORSDOF 7
ENDMDL
MODEL 7
REMARK VINA RESULT:    -8.020      2.266      2.981
REMARK INTER + INTRA:         -11.524
REMARK INTER:                 -10.108
REMARK INTRA:                  -1.416
REMARK CONF_INDEPENDENT:        2.088
REMARK UNBOUND:                -1.416
REMARK  7 active torsions:
REMARK  status: ('A' for Active; 'I' for Inactive)
REMARK    1  A    between atoms: C_2  and  N_3 
REMARK       I    between atoms: N_3  and  C_4 
REMARK    2  A    between atoms: C_4  and  C_6 
REMARK    3  A    between atoms: C_10  and  N_11 
REMARK       I    between atoms: N_11  and  C_12 
REMARK    4  A    between atoms: C_12  and  C_14 
REMARK    5  A    between atoms: C_14  and  N_15 
REMARK    6  A    between atoms: N_15  and  C_16 
REMARK    7  A    between atoms: C_22  and  S_23 
ROOT
ATOM      1  N   UNL d   1      25.262 -15.012  -1.759  0.00  0.00    -0.326 N 
ATOM      2  C   UNL d   1      25.228 -14.744  -3.130  0.00  0.00     0.239 C 
ATOM      3  O   UNL d   1      25.156 -15.612  -4.008  0.00  0.00    -0.271 OA
ATOM      4  H   UNL d   1      25.516 -14.274  -1.109  0.00  0.00     0.169 HD
ENDROOT
BRANCH   1   5
ATOM      5  C   UNL d   1      24.907 -16.281  -1.197  0.00  0.00     0.035 A 
ATOM      6  C   UNL d   1      25.831 -17.046  -0.468  0.00  0.00     0.029 A 
ATOM      7  C   UNL d   1      25.407 -18.214   0.203  0.00  0.00     0.003 A 
ATOM      8  C   UNL d   1      24.086 -18.665   0.100  0.00  0.00     0.017 A 
ATOM      9  C   UNL d   1      23.173 -17.928  -0.644  0.00  0.00     0.034 A 
ATOM     10  C   UNL d   1      23.593 -16.760  -1.270  0.00  0.00     0.046 A 
BRANCH   9  11
ATOM     11  C   UNL d   1      21.720 -18.268  -0.651  0.00  0.00     0.251 C 
ATOM     12  N   UNL d   1      21.361 -19.449  -0.010  0.00  0.00    -0.357 N 
ATOM     13  H   UNL d   1      22.060 -20.016   0.450  0.00  0.00     0.162 HD
ATOM     14  O   UNL d   1      20.935 -17.535  -1.212  0.00  0.00    -0.268 OA
BRANCH  12  15
ATOM     15  C   UNL d   1      19.972 -19.869   0.036  0.00  0.00     0.118 C 
ATOM     16  C   UNL d   1      19.562 -20.385   1.405  0.00  0.00     0.026 C 
ENDBRANCH  12  15
ENDBRANCH   9  11
ENDBRANCH   1   5
BRANCH   2  17
ATOM     17  C   UNL d   1      25.303 -13.283  -3.607  0.00  0.00     0.223 C 
BRANCH  17  18
ATOM     18  N   UNL d   1      26.693 -12.968  -3.875  0.00  0.00    -0.380 N 
ATOM     19  H   UNL d   1      26.876 -12.233  -4.566  0.00  0.00     0.160 HD
BRANCH  18  20
ATOM     20  C   UNL d   1      27.678 -13.919  -3.678  0.00  0.00     0.046 A 
ATOM     21  C   UNL d   1      28.041 -14.025  -2.314  0.00  0.00     0.054 A 
ATOM     22  C   UNL d   1      28.967 -14.950  -1.866  0.00  0.00     0.036 A 
ATOM     23 CL   UNL d   1      29.430 -14.959  -0.210  0.00  0.00    -0.084 Cl
ATOM     24  C   UNL d   1      29.522 -15.839  -2.766  0.00  0.00     0.025 A 
ATOM     25  C   UNL d   1      29.214 -15.723  -4.135  0.00  0.00     0.022 A 
ATOM     26  C   UNL d   1      28.312 -14.744  -4.643  0.00  0.00     0.026 A 
BRANCH  26  27
ATOM     27  S   UNL d   1      28.191 -14.822  -6.479  0.00  0.00    -0.132 SA
ATOM     28  C   UNL d   1      28.810 -13.289  -7.292  0.00  0.00     0.095 C 
ENDBRANCH  26  27
ENDBRANCH  18  20
ENDBRANCH  17  18
ENDBRANCH   2  17
TORSDOF 7
ENDMDL
MODEL 8
REMARK VINA RESULT:    -7.977      2.192      3.039
REMARK INTER + INTRA:         -11.680
REMARK INTER:                 -10.066
REMARK INTRA:                  -1.614
REMARK CONF_INDEPENDENT:        2.088
REMARK UNBOUND:                -1.614
REMARK  7 active torsions:
REMARK  status: ('A' for Active; 'I' for Inactive)
REMARK    1  A    between atoms: C_2  and  N_3 
REMARK       I    between atoms: N_3  and  C_4 
REMARK    2  A    between atoms: C_4  and  C_6 
REMARK    3  A    between atoms: C_10  and  N_11 
REMARK       I    between atoms: N_11  and  C_12 
REMARK    4  A    between atoms: C_12  and  C_14 
REMARK    5  A    between atoms: C_14  and  N_15 
REMARK    6  A    between atoms: N_15  and  C_16 
REMARK    7  A    between atoms: C_22  and  S_23 
ROOT
ATOM      1  N   UNL d   1      25.285 -14.956  -1.815  0.00  0.00    -0.326 N 
ATOM      2  C   UNL d   1      25.235 -14.694  -3.187  0.00  0.00     0.239 C 
ATOM      3  O   UNL d   1      25.159 -15.567  -4.061  0.00  0.00    -0.271 OA
ATOM      4  H   UNL d   1      25.540 -14.214  -1.171  0.00  0.00     0.169 HD
ENDROOT
BRANCH   1   5
ATOM      5  C   UNL d   1      24.942 -16.225  -1.245  0.00  0.00     0.035 A 
ATOM      6  C   UNL d   1      25.877 -16.982  -0.522  0.00  0.00     0.029 A 
ATOM      7  C   UNL d   1      25.467 -18.150   0.158  0.00  0.00     0.003 A 
ATOM      8  C   UNL d   1      24.146 -18.608   0.070  0.00  0.00     0.017 A 
ATOM      9  C   UNL d   1      23.222 -17.879  -0.668  0.00  0.00     0.034 A 
ATOM     10  C   UNL d   1      23.630 -16.711  -1.303  0.00  0.00     0.046 A 
BRANCH   9  11
ATOM     11  C   UNL d   1      21.771 -18.226  -0.658  0.00  0.00     0.251 C 
ATOM     12  N   UNL d   1      21.439 -19.471  -0.132  0.00  0.00    -0.357 N 
ATOM     13  H   UNL d   1      22.156 -20.078   0.242  0.00  0.00     0.162 HD
ATOM     14  O   UNL d   1      20.964 -17.444  -1.112  0.00  0.00    -0.268 OA
BRANCH  12  15
ATOM     15  C   UNL d   1      20.054 -19.902  -0.080  0.00  0.00     0.118 C 
ATOM     16  C   UNL d   1      19.617 -20.299   1.320  0.00  0.00     0.026 C 
ENDBRANCH  12  15
ENDBRANCH   9  11
ENDBRANCH   1   5
BRANCH   2  17
ATOM     17  C   UNL d   1      25.298 -13.234  -3.671  0.00  0.00     0.223 C 
BRANCH  17  18
ATOM     18  N   UNL d   1      26.688 -12.820  -3.670  0.00  0.00    -0.380 N 
ATOM     19  H   UNL d   1      26.912 -11.957  -4.176  0.00  0.00     0.160 HD
BRANCH  18  20
ATOM     20  C   UNL d   1      27.697 -13.752  -3.517  0.00  0.00     0.046 A 
ATOM     21  C   UNL d   1      28.165 -14.229  -4.765  0.00  0.00     0.054 A 
ATOM     22  C   UNL d   1      29.212 -15.128  -4.866  0.00  0.00     0.036 A 
ATOM     23 CL   UNL d   1      29.665 -15.736  -6.410  0.00  0.00    -0.084 Cl
ATOM     24  C   UNL d   1      29.863 -15.538  -3.719  0.00  0.00     0.025 A 
ATOM     25  C   UNL d   1      29.387 -15.116  -2.464  0.00  0.00     0.022 A 
ATOM     26  C   UNL d   1      28.272 -14.239  -2.315  0.00  0.00     0.026 A 
BRANCH  26  27
ATOM     27  S   UNL d   1      27.871 -13.948  -0.542  0.00  0.00    -0.132 SA
ATOM     28  C   UNL d   1      28.679 -15.171   0.575  0.00  0.00     0.095 C 
ENDBRANCH  26  27
ENDBRANCH  18  20
ENDBRANCH  17  18
ENDBRANCH   2  17
TORSDOF 7
ENDMDL
MODEL 9
REMARK VINA RESULT:    -7.705      3.010      4.143
REMARK INTER + INTRA:         -11.630
REMARK INTER:                  -9.793
REMARK INTRA:                  -1.837
REMARK CONF_INDEPENDENT:        2.088
REMARK UNBOUND:                -1.837
REMARK  7 active torsions:
REMARK  status: ('A' for Active; 'I' for Inactive)
REMARK    1  A    between atoms: C_2  and  N_3 
REMARK       I    between atoms: N_3  and  C_4 
REMARK    2  A    between atoms: C_4  and  C_6 
REMARK    3  A    between atoms: C_10  and  N_11 
REMARK       I    between atoms: N_11  and  C_12 
REMARK    4  A    between atoms: C_12  and  C_14 
REMARK    5  A    between atoms: C_14  and  N_15 
REMARK    6  A    between atoms: N_15  and  C_16 
REMARK    7  A    between atoms: C_22  and  S_23 
ROOT
ATOM      1  N   UNL d   1      25.684 -16.143  -2.735  0.00  0.00    -0.326 N 
ATOM      2  C   UNL d   1      25.120 -14.923  -3.120  0.00  0.00     0.239 C 
ATOM      3  O   UNL d   1      23.999 -14.533  -2.771  0.00  0.00    -0.271 OA
ATOM      4  H   UNL d   1      26.515 -16.484  -3.208  0.00  0.00     0.169 HD
ENDROOT
BRANCH   1   5
ATOM      5  C   UNL d   1      25.176 -16.938  -1.657  0.00  0.00     0.035 A 
ATOM      6  C   UNL d   1      25.958 -17.231  -0.529  0.00  0.00     0.029 A 
ATOM      7  C   UNL d   1      25.378 -17.883   0.582  0.00  0.00     0.003 A 
ATOM      8  C   UNL d   1      24.044 -18.306   0.554  0.00  0.00     0.017 A 
ATOM      9  C   UNL d   1      23.272 -18.045  -0.572  0.00  0.00     0.034 A 
ATOM     10  C   UNL d   1      23.844 -17.370  -1.645  0.00  0.00     0.046 A 
BRANCH   9  11
ATOM     11  C   UNL d   1      21.806 -18.321  -0.592  0.00  0.00     0.251 C 
ATOM     12  N   UNL d   1      21.408 -19.568  -0.118  0.00  0.00    -0.357 N 
ATOM     13  H   UNL d   1      22.091 -20.223   0.238  0.00  0.00     0.162 HD
ATOM     14  O   UNL d   1      21.043 -17.484  -1.022  0.00  0.00    -0.268 OA
BRANCH  12  15
ATOM     15  C   UNL d   1      20.003 -19.933  -0.099  0.00  0.00     0.118 C 
ATOM     16  C   UNL d   1      19.425 -19.953   1.306  0.00  0.00     0.026 C 
ENDBRANCH  12  15
ENDBRANCH   9  11
ENDBRANCH   1   5
BRANCH   2  17
ATOM     17  C   UNL d   1      25.917 -13.994  -4.052  0.00  0.00     0.223 C 
BRANCH  17  18
ATOM     18  N   UNL d   1      26.878 -13.265  -3.247  0.00  0.00    -0.380 N 
ATOM     19  H   UNL d   1      27.444 -12.559  -3.729  0.00  0.00     0.160 HD
BRANCH  18  20
ATOM     20  C   UNL d   1      27.405 -13.831  -2.100  0.00  0.00     0.046 A 
ATOM     21  C   UNL d   1      26.897 -13.215  -0.931  0.00  0.00     0.054 A 
ATOM     22  C   UNL d   1      27.237 -13.649   0.339  0.00  0.00     0.036 A 
ATOM     23 CL   UNL d   1      26.657 -12.794   1.714  0.00  0.00    -0.084 Cl
ATOM     24  C   UNL d   1      28.056 -14.752   0.478  0.00  0.00     0.025 A 
ATOM     25  C   UNL d   1      28.611 -15.352  -0.668  0.00  0.00     0.022 A 
ATOM     26  C   UNL d   1      28.335 -14.896  -1.990  0.00  0.00     0.026 A 
BRANCH  26  27
ATOM     27  S   UNL d   1      29.277 -15.855  -3.248  0.00  0.00    -0.132 SA
ATOM     28  C   UNL d   1      28.977 -15.253  -4.964  0.00  0.00     0.095 C 
ENDBRANCH  26  27
ENDBRANCH  18  20
ENDBRANCH  17  18
ENDBRANCH   2  17
TORSDOF 7
ENDMDL
