MODEL 1
REMARK VINA RESULT:    -9.656      0.000      0.000
REMARK INTER + INTRA:         -13.573
REMARK INTER:                 -12.639
REMARK INTRA:                  -0.934
REMARK CONF_INDEPENDENT:        2.983
REMARK UNBOUND:                -0.934
REMARK  10 active torsions:
REMARK  status: ('A' for Active; 'I' for Inactive)
REMARK    1  A    between atoms: C_2  and  C_3 
REMARK    2  A    between atoms: C_3  and  C_4 
REMARK    3  A    between atoms: C_4  and  S_5 
REMARK    4  A    between atoms: S_5  and  C_6 
REMARK    5  A    between atoms: C_9  and  C_10 
REMARK       I    between atoms: C_10  and  N_12 
REMARK    6  A    between atoms: N_12  and  C_13 
REMARK    7  A    between atoms: C_14  and  C_13 
REMARK    8  A    between atoms: C_14  and  N_23 
REMARK    9  A    between atoms: C_14  and  C_15 
REMARK   10  A    between atoms: C_18  and  O_19 
ROOT
ATOM      1  C   UNL d   1      27.076 -16.276   0.341  0.00  0.00     0.256 C 
ATOM      2  O   UNL d   1      28.158 -16.854   0.251  0.00  0.00    -0.268 OA
ATOM      3  N   UNL d   1      26.970 -15.027   0.925  0.00  0.00    -0.354 N 
ATOM      4  H   UNL d   1      26.081 -14.558   0.858  0.00  0.00     0.162 HD
ENDROOT
BRANCH   3   5
ATOM      5  C   UNL d   1      28.118 -14.294   1.440  0.00  0.00     0.161 C 
BRANCH   5   6
ATOM      6  C   UNL d   1      28.019 -13.896   2.952  0.00  0.00     0.238 C 
BRANCH   6   7
ATOM      7  N   UNL d   1      29.138 -14.555   3.833  0.00  0.00    -0.061 N 
ATOM      8  C   UNL d   1      28.644 -15.201   5.119  0.00  0.00     0.236 C 
ATOM      9  C   UNL d   1      28.757 -14.118   6.160  0.00  0.00     0.029 C 
ATOM     10  C   UNL d   1      30.042 -13.411   5.814  0.00  0.00     0.029 C 
ATOM     11  C   UNL d   1      30.269 -13.634   4.330  0.00  0.00     0.236 C 
ATOM     12  H   UNL d   1      29.569 -15.269   3.228  0.00  0.00     0.280 HD
ENDBRANCH   6   7
BRANCH   6  13
ATOM     13  C   UNL d   1      28.010 -12.391   3.091  0.00  0.00    -0.026 A 
ATOM     14  C   UNL d   1      27.779 -11.778   4.339  0.00  0.00     0.012 A 
ATOM     15  C   UNL d   1      27.398 -10.437   4.392  0.00  0.00     0.037 A 
ATOM     16  C   UNL d   1      27.378  -9.667   3.229  0.00  0.00     0.068 A 
ATOM     17  C   UNL d   1      27.669 -10.262   2.001  0.00  0.00     0.037 A 
ATOM     18  C   UNL d   1      27.983 -11.615   1.928  0.00  0.00     0.012 A 
BRANCH  16  19
ATOM     19  O   UNL d   1      27.061  -8.349   3.405  0.00  0.00    -0.356 OA
ATOM     20  C   UNL d   1      27.914  -7.414   2.750  0.00  0.00     0.210 C 
ENDBRANCH  16  19
ENDBRANCH   6  13
ENDBRANCH   5   6
ENDBRANCH   3   5
BRANCH   1  21
ATOM     21  C   UNL d   1      25.836 -16.912  -0.187  0.00  0.00     0.090 A 
ATOM     22  C   UNL d   1      25.318 -18.039   0.415  0.00  0.00     0.139 A 
ATOM     23  N   UNL d   1      24.203 -18.689  -0.018  0.00  0.00    -0.234 NA
ATOM     24  C   UNL d   1      23.578 -18.199  -1.100  0.00  0.00     0.189 A 
ATOM     25  N   UNL d   1      23.979 -17.107  -1.745  0.00  0.00    -0.210 NA
ATOM     26  C   UNL d   1      25.081 -16.503  -1.266  0.00  0.00     0.146 A 
ATOM     27 CL   UNL d   1      25.383 -15.106  -2.212  0.00  0.00    -0.061 Cl
BRANCH  24  28
ATOM     28  S   UNL d   1      22.031 -18.886  -1.605  0.00  0.00    -0.090 SA
BRANCH  28  29
ATOM     29  C   UNL d   1      21.311 -19.367   0.004  0.00  0.00     0.082 C 
BRANCH  29  30
ATOM     30  C   UNL d   1      19.787 -19.224  -0.082  0.00  0.00     0.010 C 
BRANCH  30  31
ATOM     31  C   UNL d   1      19.077 -19.898   1.094  0.00  0.00    -0.004 C 
ATOM     32  C   UNL d   1      18.559 -21.276   0.704  0.00  0.00     0.005 C 
ENDBRANCH  30  31
ENDBRANCH  29  30
ENDBRANCH  28  29
ENDBRANCH  24  28
ENDBRANCH   1  21
TORSDOF 10
ENDMDL
MODEL 2
REMARK VINA RESULT:    -9.646      1.203      1.447
REMARK INTER + INTRA:         -13.493
REMARK INTER:                 -12.629
REMARK INTRA:                  -0.864
REMARK CONF_INDEPENDENT:        2.983
REMARK UNBOUND:                -0.864
REMARK  10 active torsions:
REMARK  status: ('A' for Active; 'I' for Inactive)
REMARK    1  A    between atoms: C_2  and  C_3 
REMARK    2  A    between atoms: C_3  and  C_4 
REMARK    3  A    between atoms: C_4  and  S_5 
REMARK    4  A    between atoms: S_5  and  C_6 
REMARK    5  A    between atoms: C_9  and  C_10 
REMARK       I    between atoms: C_10  and  N_12 
REMARK    6  A    between atoms: N_12  and  C_13 
REMARK    7  A    between atoms: C_14  and  C_13 
REMARK    8  A    between atoms: C_14  and  N_23 
REMARK    9  A    between atoms: C_14  and  C_15 
REMARK   10  A    between atoms: C_18  and  O_19 
ROOT
ATOM      1  C   UNL d   1      26.685 -15.309   0.091  0.00  0.00     0.256 C 
ATOM      2  O   UNL d   1      26.853 -14.327  -0.629  0.00  0.00    -0.268 OA
ATOM      3  N   UNL d   1      27.435 -15.504   1.236  0.00  0.00    -0.354 N 
ATOM      4  H   UNL d   1      27.166 -16.261   1.844  0.00  0.00     0.162 HD
ENDROOT
BRANCH   3   5
ATOM      5  C   UNL d   1      28.446 -14.559   1.690  0.00  0.00     0.161 C 
BRANCH   5   6
ATOM      6  C   UNL d   1      28.267 -14.063   3.165  0.00  0.00     0.238 C 
BRANCH   6   7
ATOM      7  N   UNL d   1      29.428 -14.528   4.112  0.00  0.00    -0.061 N 
ATOM      8  C   UNL d   1      28.974 -15.181   5.410  0.00  0.00     0.236 C 
ATOM      9  C   UNL d   1      28.900 -14.052   6.403  0.00  0.00     0.029 C 
ATOM     10  C   UNL d   1      30.091 -13.192   6.068  0.00  0.00     0.029 C 
ATOM     11  C   UNL d   1      30.405 -13.442   4.605  0.00  0.00     0.236 C 
ATOM     12  H   UNL d   1      29.975 -15.200   3.556  0.00  0.00     0.280 HD
ENDBRANCH   6   7
BRANCH   6  13
ATOM     13  C   UNL d   1      28.091 -12.562   3.188  0.00  0.00    -0.026 A 
ATOM     14  C   UNL d   1      27.829 -11.879   4.393  0.00  0.00     0.012 A 
ATOM     15  C   UNL d   1      27.300 -10.590   4.357  0.00  0.00     0.037 A 
ATOM     16  C   UNL d   1      27.158  -9.922   3.140  0.00  0.00     0.068 A 
ATOM     17  C   UNL d   1      27.479 -10.579   1.952  0.00  0.00     0.037 A 
ATOM     18  C   UNL d   1      27.942 -11.890   1.971  0.00  0.00     0.012 A 
BRANCH  16  19
ATOM     19  O   UNL d   1      26.700  -8.638   3.226  0.00  0.00    -0.356 OA
ATOM     20  C   UNL d   1      26.527  -7.957   1.986  0.00  0.00     0.210 C 
ENDBRANCH  16  19
ENDBRANCH   6  13
ENDBRANCH   5   6
ENDBRANCH   3   5
BRANCH   1  21
ATOM     21  C   UNL d   1      25.650 -16.326  -0.251  0.00  0.00     0.090 A 
ATOM     22  C   UNL d   1      24.479 -15.949  -0.874  0.00  0.00     0.139 A 
ATOM     23  N   UNL d   1      23.479 -16.812  -1.202  0.00  0.00    -0.234 NA
ATOM     24  C   UNL d   1      23.649 -18.107  -0.892  0.00  0.00     0.189 A 
ATOM     25  N   UNL d   1      24.746 -18.583  -0.310  0.00  0.00    -0.210 NA
ATOM     26  C   UNL d   1      25.703 -17.684  -0.019  0.00  0.00     0.146 A 
ATOM     27 CL   UNL d   1      27.030 -18.518   0.675  0.00  0.00    -0.061 Cl
BRANCH  24  28
ATOM     28  S   UNL d   1      22.473 -19.303  -1.448  0.00  0.00    -0.090 SA
BRANCH  28  29
ATOM     29  C   UNL d   1      21.250 -19.260  -0.090  0.00  0.00     0.082 C 
BRANCH  29  30
ATOM     30  C   UNL d   1      19.848 -19.167  -0.702  0.00  0.00     0.010 C 
BRANCH  30  31
ATOM     31  C   UNL d   1      18.889 -20.200  -0.106  0.00  0.00    -0.004 C 
ATOM     32  C   UNL d   1      18.948 -20.187   1.416  0.00  0.00     0.005 C 
ENDBRANCH  30  31
ENDBRANCH  29  30
ENDBRANCH  28  29
ENDBRANCH  24  28
ENDBRANCH   1  21
TORSDOF 10
ENDMDL
MODEL 3
REMARK VINA RESULT:    -9.386      1.742      2.878
REMARK INTER + INTRA:         -13.661
REMARK INTER:                 -12.369
REMARK INTRA:                  -1.292
REMARK CONF_INDEPENDENT:        2.983
REMARK UNBOUND:                -1.292
REMARK  10 active torsions:
REMARK  status: ('A' for Active; 'I' for Inactive)
REMARK    1  A    between atoms: C_2  and  C_3 
REMARK    2  A    between atoms: C_3  and  C_4 
REMARK    3  A    between atoms: C_4  and  S_5 
REMARK    4  A    between atoms: S_5  and  C_6 
REMARK    5  A    between atoms: C_9  and  C_10 
REMARK       I    between atoms: C_10  and  N_12 
REMARK    6  A    between atoms: N_12  and  C_13 
REMARK    7  A    between atoms: C_14  and  C_13 
REMARK    8  A    between atoms: C_14  and  N_23 
REMARK    9  A    between atoms: C_14  and  C_15 
REMARK   10  A    between atoms: C_18  and  O_19 
ROOT
ATOM      1  C   UNL d   1      26.759 -16.272   0.234  0.00  0.00     0.256 C 
ATOM      2  O   UNL d   1      27.831 -16.868   0.148  0.00  0.00    -0.268 OA
ATOM      3  N   UNL d   1      26.689 -14.977   0.715  0.00  0.00    -0.354 N 
ATOM      4  H   UNL d   1      25.801 -14.504   0.646  0.00  0.00     0.162 HD
ENDROOT
BRANCH   3   5
ATOM      5  C   UNL d   1      27.864 -14.217   1.118  0.00  0.00     0.161 C 
BRANCH   5   6
ATOM      6  C   UNL d   1      28.657 -14.824   2.324  0.00  0.00     0.238 C 
BRANCH   6   7
ATOM      7  N   UNL d   1      30.210 -14.824   2.097  0.00  0.00    -0.061 N 
ATOM      8  C   UNL d   1      30.974 -13.777   2.895  0.00  0.00     0.236 C 
ATOM      9  C   UNL d   1      31.054 -12.581   1.983  0.00  0.00     0.029 C 
ATOM     10  C   UNL d   1      31.283 -13.178   0.618  0.00  0.00     0.029 C 
ATOM     11  C   UNL d   1      30.706 -14.580   0.658  0.00  0.00     0.236 C 
ATOM     12  H   UNL d   1      30.520 -15.767   2.371  0.00  0.00     0.280 HD
ENDBRANCH   6   7
BRANCH   6  13
ATOM     13  C   UNL d   1      28.277 -14.114   3.603  0.00  0.00    -0.026 A 
ATOM     14  C   UNL d   1      27.858 -12.769   3.591  0.00  0.00     0.012 A 
ATOM     15  C   UNL d   1      27.880 -12.026   4.771  0.00  0.00     0.037 A 
ATOM     16  C   UNL d   1      28.182 -12.645   5.985  0.00  0.00     0.068 A 
ATOM     17  C   UNL d   1      28.534 -13.994   6.002  0.00  0.00     0.037 A 
ATOM     18  C   UNL d   1      28.583 -14.728   4.822  0.00  0.00     0.012 A 
BRANCH  16  19
ATOM     19  O   UNL d   1      28.102 -11.842   7.087  0.00  0.00    -0.356 OA
ATOM     20  C   UNL d   1      28.170 -12.507   8.346  0.00  0.00     0.210 C 
ENDBRANCH  16  19
ENDBRANCH   6  13
ENDBRANCH   5   6
ENDBRANCH   3   5
BRANCH   1  21
ATOM     21  C   UNL d   1      25.492 -16.934  -0.186  0.00  0.00     0.090 A 
ATOM     22  C   UNL d   1      24.911 -17.899   0.609  0.00  0.00     0.139 A 
ATOM     23  N   UNL d   1      23.767 -18.564   0.288  0.00  0.00    -0.234 NA
ATOM     24  C   UNL d   1      23.178 -18.259  -0.879  0.00  0.00     0.189 A 
ATOM     25  N   UNL d   1      23.640 -17.331  -1.711  0.00  0.00    -0.210 NA
ATOM     26  C   UNL d   1      24.768 -16.702  -1.336  0.00  0.00     0.146 A 
ATOM     27 CL   UNL d   1      25.150 -15.528  -2.525  0.00  0.00    -0.061 Cl
BRANCH  24  28
ATOM     28  S   UNL d   1      21.601 -18.953  -1.272  0.00  0.00    -0.090 SA
BRANCH  28  29
ATOM     29  C   UNL d   1      20.949 -19.326   0.394  0.00  0.00     0.082 C 
BRANCH  29  30
ATOM     30  C   UNL d   1      19.438 -19.560   0.284  0.00  0.00     0.010 C 
BRANCH  30  31
ATOM     31  C   UNL d   1      18.896 -20.387   1.452  0.00  0.00    -0.004 C 
ATOM     32  C   UNL d   1      18.088 -21.577   0.952  0.00  0.00     0.005 C 
ENDBRANCH  30  31
ENDBRANCH  29  30
ENDBRANCH  28  29
ENDBRANCH  24  28
ENDBRANCH   1  21
TORSDOF 10
ENDMDL
MODEL 4
REMARK VINA RESULT:    -9.168      2.183      3.221
REMARK INTER + INTRA:         -13.353
REMARK INTER:                 -12.151
REMARK INTRA:                  -1.202
REMARK CONF_INDEPENDENT:        2.983
REMARK UNBOUND:                -1.202
REMARK  10 active torsions:
REMARK  status: ('A' for Active; 'I' for Inactive)
REMARK    1  A    between atoms: C_2  and  C_3 
REMARK    2  A    between atoms: C_3  and  C_4 
REMARK    3  A    between atoms: C_4  and  S_5 
REMARK    4  A    between atoms: S_5  and  C_6 
REMARK    5  A    between atoms: C_9  and  C_10 
REMARK       I    between atoms: C_10  and  N_12 
REMARK    6  A    between atoms: N_12  and  C_13 
REMARK    7  A    between atoms: C_14  and  C_13 
REMARK    8  A    between atoms: C_14  and  N_23 
REMARK    9  A    between atoms: C_14  and  C_15 
REMARK   10  A    between atoms: C_18  and  O_19 
ROOT
ATOM      1  C   UNL d   1      27.994 -15.506   0.628  0.00  0.00     0.256 C 
ATOM      2  O   UNL d   1      29.106 -15.592   0.111  0.00  0.00    -0.268 OA
ATOM      3  N   UNL d   1      27.764 -14.680   1.713  0.00  0.00    -0.354 N 
ATOM      4  H   UNL d   1      26.809 -14.562   2.012  0.00  0.00     0.162 HD
ENDROOT
BRANCH   3   5
ATOM      5  C   UNL d   1      28.796 -13.835   2.298  0.00  0.00     0.161 C 
BRANCH   5   6
ATOM      6  C   UNL d   1      29.523 -14.450   3.541  0.00  0.00     0.238 C 
BRANCH   6   7
ATOM      7  N   UNL d   1      31.082 -14.284   3.483  0.00  0.00    -0.061 N 
ATOM      8  C   UNL d   1      31.565 -12.920   3.011  0.00  0.00     0.236 C 
ATOM      9  C   UNL d   1      31.736 -13.067   1.522  0.00  0.00     0.029 C 
ATOM     10  C   UNL d   1      32.304 -14.452   1.355  0.00  0.00     0.029 C 
ATOM     11  C   UNL d   1      31.853 -15.251   2.563  0.00  0.00     0.236 C 
ATOM     12  H   UNL d   1      31.405 -14.455   4.445  0.00  0.00     0.280 HD
ENDBRANCH   6   7
BRANCH   6  13
ATOM     13  C   UNL d   1      28.945 -13.876   4.815  0.00  0.00    -0.026 A 
ATOM     14  C   UNL d   1      28.291 -12.628   4.819  0.00  0.00     0.012 A 
ATOM     15  C   UNL d   1      28.108 -11.945   6.021  0.00  0.00     0.037 A 
ATOM     16  C   UNL d   1      28.444 -12.554   7.231  0.00  0.00     0.068 A 
ATOM     17  C   UNL d   1      29.032 -13.818   7.228  0.00  0.00     0.037 A 
ATOM     18  C   UNL d   1      29.284 -14.479   6.031  0.00  0.00     0.012 A 
BRANCH  16  19
ATOM     19  O   UNL d   1      28.155 -11.827   8.352  0.00  0.00    -0.356 OA
ATOM     20  C   UNL d   1      29.017 -10.722   8.614  0.00  0.00     0.210 C 
ENDBRANCH  16  19
ENDBRANCH   6  13
ENDBRANCH   5   6
ENDBRANCH   3   5
BRANCH   1  21
ATOM     21  C   UNL d   1      26.850 -16.294   0.091  0.00  0.00     0.090 A 
ATOM     22  C   UNL d   1      26.555 -17.539   0.606  0.00  0.00     0.139 A 
ATOM     23  N   UNL d   1      25.541 -18.329   0.157  0.00  0.00    -0.234 NA
ATOM     24  C   UNL d   1      24.790 -17.861  -0.852  0.00  0.00     0.189 A 
ATOM     25  N   UNL d   1      24.972 -16.668  -1.408  0.00  0.00    -0.210 NA
ATOM     26  C   UNL d   1      25.983 -15.929  -0.918  0.00  0.00     0.146 A 
ATOM     27 CL   UNL d   1      26.002 -14.427  -1.743  0.00  0.00    -0.061 Cl
BRANCH  24  28
ATOM     28  S   UNL d   1      23.352 -18.754  -1.360  0.00  0.00    -0.090 SA
BRANCH  28  29
ATOM     29  C   UNL d   1      22.120 -18.170  -0.143  0.00  0.00     0.082 C 
BRANCH  29  30
ATOM     30  C   UNL d   1      21.162 -19.324   0.172  0.00  0.00     0.010 C 
BRANCH  30  31
ATOM     31  C   UNL d   1      19.883 -19.259  -0.665  0.00  0.00    -0.004 C 
ATOM     32  C   UNL d   1      18.813 -20.187  -0.105  0.00  0.00     0.005 C 
ENDBRANCH  30  31
ENDBRANCH  29  30
ENDBRANCH  28  29
ENDBRANCH  24  28
ENDBRANCH   1  21
TORSDOF 10
ENDMDL
MODEL 5
REMARK VINA RESULT:    -8.900      4.165      9.028
REMARK INTER + INTRA:         -13.071
REMARK INTER:                 -11.883
REMARK INTRA:                  -1.188
REMARK CONF_INDEPENDENT:        2.983
REMARK UNBOUND:                -1.188
REMARK  10 active torsions:
REMARK  status: ('A' for Active; 'I' for Inactive)
REMARK    1  A    between atoms: C_2  and  C_3 
REMARK    2  A    between atoms: C_3  and  C_4 
REMARK    3  A    between atoms: C_4  and  S_5 
REMARK    4  A    between atoms: S_5  and  C_6 
REMARK    5  A    between atoms: C_9  and  C_10 
REMARK       I    between atoms: C_10  and  N_12 
REMARK    6  A    between atoms: N_12  and  C_13 
REMARK    7  A    between atoms: C_14  and  C_13 
REMARK    8  A    between atoms: C_14  and  N_23 
REMARK    9  A    between atoms: C_14  and  C_15 
REMARK   10  A    between atoms: C_18  and  O_19 
ROOT
ATOM      1  C   UNL d   1      27.680 -13.752   2.597  0.00  0.00     0.256 C 
ATOM      2  O   UNL d   1      26.779 -13.016   2.199  0.00  0.00    -0.268 OA
ATOM      3  N   UNL d   1      28.395 -14.553   1.726  0.00  0.00    -0.354 N 
ATOM      4  H   UNL d   1      29.197 -15.039   2.095  0.00  0.00     0.162 HD
ENDROOT
BRANCH   3   5
ATOM      5  C   UNL d   1      28.164 -14.564   0.288  0.00  0.00     0.161 C 
BRANCH   5   6
ATOM      6  C   UNL d   1      28.517 -15.913  -0.425  0.00  0.00     0.238 C 
BRANCH   6   7
ATOM      7  N   UNL d   1      29.737 -16.650   0.229  0.00  0.00    -0.061 N 
ATOM      8  C   UNL d   1      30.963 -15.778   0.462  0.00  0.00     0.236 C 
ATOM      9  C   UNL d   1      31.797 -15.946  -0.780  0.00  0.00     0.029 C 
ATOM     10  C   UNL d   1      31.646 -17.405  -1.126  0.00  0.00     0.029 C 
ATOM     11  C   UNL d   1      30.321 -17.852  -0.540  0.00  0.00     0.236 C 
ATOM     12  H   UNL d   1      29.386 -17.005   1.129  0.00  0.00     0.280 HD
ENDBRANCH   6   7
BRANCH   6  13
ATOM     13  C   UNL d   1      27.294 -16.799  -0.487  0.00  0.00    -0.026 A 
ATOM     14  C   UNL d   1      26.331 -16.640  -1.504  0.00  0.00     0.012 A 
ATOM     15  C   UNL d   1      25.056 -17.181  -1.341  0.00  0.00     0.037 A 
ATOM     16  C   UNL d   1      24.773 -17.994  -0.243  0.00  0.00     0.068 A 
ATOM     17  C   UNL d   1      25.749 -18.202   0.731  0.00  0.00     0.037 A 
ATOM     18  C   UNL d   1      27.002 -17.611   0.614  0.00  0.00     0.012 A 
BRANCH  16  19
ATOM     19  O   UNL d   1      23.517 -18.531  -0.220  0.00  0.00    -0.356 OA
ATOM     20  C   UNL d   1      22.511 -17.784  -0.900  0.00  0.00     0.210 C 
ENDBRANCH  16  19
ENDBRANCH   6  13
ENDBRANCH   5   6
ENDBRANCH   3   5
BRANCH   1  21
ATOM     21  C   UNL d   1      28.033 -13.797   4.044  0.00  0.00     0.090 A 
ATOM     22  C   UNL d   1      28.293 -15.001   4.663  0.00  0.00     0.139 A 
ATOM     23  N   UNL d   1      28.603 -15.128   5.982  0.00  0.00    -0.234 NA
ATOM     24  C   UNL d   1      28.652 -14.008   6.719  0.00  0.00     0.189 A 
ATOM     25  N   UNL d   1      28.440 -12.794   6.221  0.00  0.00    -0.210 NA
ATOM     26  C   UNL d   1      28.147 -12.730   4.910  0.00  0.00     0.146 A 
ATOM     27 CL   UNL d   1      27.961 -11.081   4.480  0.00  0.00    -0.061 Cl
BRANCH  24  28
ATOM     28  S   UNL d   1      29.221 -14.083   8.391  0.00  0.00    -0.090 SA
BRANCH  28  29
ATOM     29  C   UNL d   1      28.766 -12.421   8.999  0.00  0.00     0.082 C 
BRANCH  29  30
ATOM     30  C   UNL d   1      28.163 -12.565  10.401  0.00  0.00     0.010 C 
BRANCH  30  31
ATOM     31  C   UNL d   1      27.746 -14.005  10.705  0.00  0.00    -0.004 C 
ATOM     32  C   UNL d   1      28.538 -14.569  11.876  0.00  0.00     0.005 C 
ENDBRANCH  30  31
ENDBRANCH  29  30
ENDBRANCH  28  29
ENDBRANCH  24  28
ENDBRANCH   1  21
TORSDOF 10
ENDMDL
MODEL 6
REMARK VINA RESULT:    -8.800      2.145      2.758
REMARK INTER + INTRA:         -12.979
REMARK INTER:                 -11.783
REMARK INTRA:                  -1.196
REMARK CONF_INDEPENDENT:        2.983
REMARK UNBOUND:                -1.196
REMARK  10 active torsions:
REMARK  status: ('A' for Active; 'I' for Inactive)
REMARK    1  A    between atoms: C_2  and  C_3 
REMARK    2  A    between atoms: C_3  and  C_4 
REMARK    3  A    between atoms: C_4  and  S_5 
REMARK    4  A    between atoms: S_5  and  C_6 
REMARK    5  A    between atoms: C_9  and  C_10 
REMARK       I    between atoms: C_10  and  N_12 
REMARK    6  A    between atoms: N_12  and  C_13 
REMARK    7  A    between atoms: C_14  and  C_13 
REMARK    8  A    between atoms: C_14  and  N_23 
REMARK    9  A    between atoms: C_14  and  C_15 
REMARK   10  A    between atoms: C_18  and  O_19 
ROOT
ATOM      1  C   UNL d   1      27.217 -15.295   0.104  0.00  0.00     0.256 C 
ATOM      2  O   UNL d   1      27.171 -14.146  -0.333  0.00  0.00    -0.268 OA
ATOM      3  N   UNL d   1      28.238 -15.709   0.940  0.00  0.00    -0.354 N 
ATOM      4  H   UNL d   1      28.152 -16.622   1.359  0.00  0.00     0.162 HD
ENDROOT
BRANCH   3   5
ATOM      5  C   UNL d   1      29.302 -14.823   1.389  0.00  0.00     0.161 C 
BRANCH   5   6
ATOM      6  C   UNL d   1      28.954 -13.964   2.651  0.00  0.00     0.238 C 
BRANCH   6   7
ATOM      7  N   UNL d   1      28.646 -14.834   3.919  0.00  0.00    -0.061 N 
ATOM      8  C   UNL d   1      27.406 -14.419   4.698  0.00  0.00     0.236 C 
ATOM      9  C   UNL d   1      27.911 -13.457   5.741  0.00  0.00     0.029 C 
ATOM     10  C   UNL d   1      29.226 -14.049   6.177  0.00  0.00     0.029 C 
ATOM     11  C   UNL d   1      29.731 -14.882   5.014  0.00  0.00     0.236 C 
ATOM     12  H   UNL d   1      28.530 -15.794   3.564  0.00  0.00     0.280 HD
ENDBRANCH   6   7
BRANCH   6  13
ATOM     13  C   UNL d   1      30.053 -12.960   2.913  0.00  0.00    -0.026 A 
ATOM     14  C   UNL d   1      31.408 -13.299   2.724  0.00  0.00     0.012 A 
ATOM     15  C   UNL d   1      32.405 -12.525   3.316  0.00  0.00     0.037 A 
ATOM     16  C   UNL d   1      32.074 -11.341   3.978  0.00  0.00     0.068 A 
ATOM     17  C   UNL d   1      30.735 -10.974   4.108  0.00  0.00     0.037 A 
ATOM     18  C   UNL d   1      29.728 -11.775   3.581  0.00  0.00     0.012 A 
BRANCH  16  19
ATOM     19  O   UNL d   1      33.134 -10.623   4.457  0.00  0.00    -0.356 OA
ATOM     20  C   UNL d   1      33.368 -10.724   5.859  0.00  0.00     0.210 C 
ENDBRANCH  16  19
ENDBRANCH   6  13
ENDBRANCH   5   6
ENDBRANCH   3   5
BRANCH   1  21
ATOM     21  C   UNL d   1      26.160 -16.281  -0.256  0.00  0.00     0.090 A 
ATOM     22  C   UNL d   1      25.975 -17.416   0.504  0.00  0.00     0.139 A 
ATOM     23  N   UNL d   1      25.046 -18.373   0.231  0.00  0.00    -0.234 NA
ATOM     24  C   UNL d   1      24.270 -18.195  -0.849  0.00  0.00     0.189 A 
ATOM     25  N   UNL d   1      24.348 -17.129  -1.639  0.00  0.00    -0.210 NA
ATOM     26  C   UNL d   1      25.278 -16.213  -1.314  0.00  0.00     0.146 A 
ATOM     27 CL   UNL d   1      25.170 -14.917  -2.430  0.00  0.00    -0.061 Cl
BRANCH  24  28
ATOM     28  S   UNL d   1      22.930 -19.305  -1.157  0.00  0.00    -0.090 SA
BRANCH  28  29
ATOM     29  C   UNL d   1      21.491 -18.215  -0.874  0.00  0.00     0.082 C 
BRANCH  29  30
ATOM     30  C   UNL d   1      20.220 -19.072  -0.895  0.00  0.00     0.010 C 
BRANCH  30  31
ATOM     31  C   UNL d   1      20.255 -20.183   0.156  0.00  0.00    -0.004 C 
ATOM     32  C   UNL d   1      19.682 -19.701   1.482  0.00  0.00     0.005 C 
ENDBRANCH  30  31
ENDBRANCH  29  30
ENDBRANCH  28  29
ENDBRANCH  24  28
ENDBRANCH   1  21
TORSDOF 10
ENDMDL
MODEL 7
REMARK VINA RESULT:    -8.582      3.704      5.502
REMARK INTER + INTRA:         -13.426
REMARK INTER:                 -11.565
REMARK INTRA:                  -1.860
REMARK CONF_INDEPENDENT:        2.983
REMARK UNBOUND:                -1.860
REMARK  10 active torsions:
REMARK  status: ('A' for Active; 'I' for Inactive)
REMARK    1  A    between atoms: C_2  and  C_3 
REMARK    2  A    between atoms: C_3  and  C_4 
REMARK    3  A    between atoms: C_4  and  S_5 
REMARK    4  A    between atoms: S_5  and  C_6 
REMARK    5  A    between atoms: C_9  and  C_10 
REMARK       I    between atoms: C_10  and  N_12 
REMARK    6  A    between atoms: N_12  and  C_13 
REMARK    7  A    between atoms: C_14  and  C_13 
REMARK    8  A    between atoms: C_14  and  N_23 
REMARK    9  A    between atoms: C_14  and  C_15 
REMARK   10  A    between atoms: C_18  and  O_19 
ROOT
ATOM      1  C   UNL d   1      26.549 -16.604   0.416  0.00  0.00     0.256 C 
ATOM      2  O   UNL d   1      27.388 -17.324   0.955  0.00  0.00    -0.268 OA
ATOM      3  N   UNL d   1      26.776 -15.254   0.218  0.00  0.00    -0.354 N 
ATOM      4  H   UNL d   1      26.104 -14.747  -0.336  0.00  0.00     0.162 HD
ENDROOT
BRANCH   3   5
ATOM      5  C   UNL d   1      28.020 -14.596   0.594  0.00  0.00     0.161 C 
BRANCH   5   6
ATOM      6  C   UNL d   1      29.272 -15.030  -0.240  0.00  0.00     0.238 C 
BRANCH   6   7
ATOM      7  N   UNL d   1      29.767 -16.478   0.107  0.00  0.00    -0.061 N 
ATOM      8  C   UNL d   1      31.270 -16.610   0.312  0.00  0.00     0.236 C 
ATOM      9  C   UNL d   1      31.812 -16.977  -1.044  0.00  0.00     0.029 C 
ATOM     10  C   UNL d   1      30.782 -17.924  -1.604  0.00  0.00     0.029 C 
ATOM     11  C   UNL d   1      29.470 -17.584  -0.924  0.00  0.00     0.236 C 
ATOM     12  H   UNL d   1      29.274 -16.729   0.975  0.00  0.00     0.280 HD
ENDBRANCH   6   7
BRANCH   6  13
ATOM     13  C   UNL d   1      28.990 -14.873  -1.716  0.00  0.00    -0.026 A 
ATOM     14  C   UNL d   1      27.809 -15.385  -2.289  0.00  0.00     0.012 A 
ATOM     15  C   UNL d   1      27.734 -15.575  -3.669  0.00  0.00     0.037 A 
ATOM     16  C   UNL d   1      28.767 -15.132  -4.496  0.00  0.00     0.068 A 
ATOM     17  C   UNL d   1      29.909 -14.566  -3.929  0.00  0.00     0.037 A 
ATOM     18  C   UNL d   1      30.024 -14.436  -2.550  0.00  0.00     0.012 A 
BRANCH  16  19
ATOM     19  O   UNL d   1      28.559 -15.301  -5.835  0.00  0.00    -0.356 OA
ATOM     20  C   UNL d   1      29.627 -14.892  -6.686  0.00  0.00     0.210 C 
ENDBRANCH  16  19
ENDBRANCH   6  13
ENDBRANCH   5   6
ENDBRANCH   3   5
BRANCH   1  21
ATOM     21  C   UNL d   1      25.253 -17.173  -0.048  0.00  0.00     0.090 A 
ATOM     22  C   UNL d   1      24.703 -18.267   0.587  0.00  0.00     0.139 A 
ATOM     23  N   UNL d   1      23.535 -18.857   0.212  0.00  0.00    -0.234 NA
ATOM     24  C   UNL d   1      22.888 -18.340  -0.843  0.00  0.00     0.189 A 
ATOM     25  N   UNL d   1      23.316 -17.276  -1.515  0.00  0.00    -0.210 NA
ATOM     26  C   UNL d   1      24.471 -16.730  -1.094  0.00  0.00     0.146 A 
ATOM     27 CL   UNL d   1      24.803 -15.357  -2.065  0.00  0.00    -0.061 Cl
BRANCH  24  28
ATOM     28  S   UNL d   1      21.283 -18.944  -1.269  0.00  0.00    -0.090 SA
BRANCH  28  29
ATOM     29  C   UNL d   1      20.596 -19.328   0.380  0.00  0.00     0.082 C 
BRANCH  29  30
ATOM     30  C   UNL d   1      19.285 -20.100   0.193  0.00  0.00     0.010 C 
BRANCH  30  31
ATOM     31  C   UNL d   1      18.716 -20.601   1.523  0.00  0.00    -0.004 C 
ATOM     32  C   UNL d   1      17.655 -21.670   1.296  0.00  0.00     0.005 C 
ENDBRANCH  30  31
ENDBRANCH  29  30
ENDBRANCH  28  29
ENDBRANCH  24  28
ENDBRANCH   1  21
TORSDOF 10
ENDMDL
MODEL 8
REMARK VINA RESULT:    -8.527      2.760      5.128
REMARK INTER + INTRA:         -13.206
REMARK INTER:                 -11.510
REMARK INTRA:                  -1.696
REMARK CONF_INDEPENDENT:        2.983
REMARK UNBOUND:                -1.696
REMARK  10 active torsions:
REMARK  status: ('A' for Active; 'I' for Inactive)
REMARK    1  A    between atoms: C_2  and  C_3 
REMARK    2  A    between atoms: C_3  and  C_4 
REMARK    3  A    between atoms: C_4  and  S_5 
REMARK    4  A    between atoms: S_5  and  C_6 
REMARK    5  A    between atoms: C_9  and  C_10 
REMARK       I    between atoms: C_10  and  N_12 
REMARK    6  A    between atoms: N_12  and  C_13 
REMARK    7  A    between atoms: C_14  and  C_13 
REMARK    8  A    between atoms: C_14  and  N_23 
REMARK    9  A    between atoms: C_14  and  C_15 
REMARK   10  A    between atoms: C_18  and  O_19 
ROOT
ATOM      1  C   UNL d   1      26.014 -15.275  -0.808  0.00  0.00     0.256 C 
ATOM      2  O   UNL d   1      26.188 -14.784  -1.922  0.00  0.00    -0.268 OA
ATOM      3  N   UNL d   1      26.735 -14.848   0.292  0.00  0.00    -0.354 N 
ATOM      4  H   UNL d   1      26.459 -15.203   1.194  0.00  0.00     0.162 HD
ENDROOT
BRANCH   3   5
ATOM      5  C   UNL d   1      27.718 -13.776   0.226  0.00  0.00     0.161 C 
BRANCH   5   6
ATOM      6  C   UNL d   1      29.199 -14.227   0.457  0.00  0.00     0.238 C 
BRANCH   6   7
ATOM      7  N   UNL d   1      29.441 -14.822   1.888  0.00  0.00    -0.061 N 
ATOM      8  C   UNL d   1      28.383 -14.461   2.921  0.00  0.00     0.236 C 
ATOM      9  C   UNL d   1      28.903 -13.213   3.583  0.00  0.00     0.029 C 
ATOM     10  C   UNL d   1      30.386 -13.450   3.698  0.00  0.00     0.029 C 
ATOM     11  C   UNL d   1      30.752 -14.427   2.597  0.00  0.00     0.236 C 
ATOM     12  H   UNL d   1      29.463 -15.843   1.754  0.00  0.00     0.280 HD
ENDBRANCH   6   7
BRANCH   6  13
ATOM     13  C   UNL d   1      29.623 -15.188  -0.629  0.00  0.00    -0.026 A 
ATOM     14  C   UNL d   1      29.961 -14.726  -1.917  0.00  0.00     0.012 A 
ATOM     15  C   UNL d   1      29.975 -15.617  -2.991  0.00  0.00     0.037 A 
ATOM     16  C   UNL d   1      29.792 -16.983  -2.772  0.00  0.00     0.068 A 
ATOM     17  C   UNL d   1      29.522 -17.446  -1.484  0.00  0.00     0.037 A 
ATOM     18  C   UNL d   1      29.436 -16.558  -0.417  0.00  0.00     0.012 A 
BRANCH  16  19
ATOM     19  O   UNL d   1      29.899 -17.773  -3.882  0.00  0.00    -0.356 OA
ATOM     20  C   UNL d   1      31.211 -18.234  -4.192  0.00  0.00     0.210 C 
ENDBRANCH  16  19
ENDBRANCH   6  13
ENDBRANCH   5   6
ENDBRANCH   3   5
BRANCH   1  21
ATOM     21  C   UNL d   1      25.005 -16.354  -0.610  0.00  0.00     0.090 A 
ATOM     22  C   UNL d   1      23.709 -16.189  -1.053  0.00  0.00     0.139 A 
ATOM     23  N   UNL d   1      22.726 -17.117  -0.893  0.00  0.00    -0.234 NA
ATOM     24  C   UNL d   1      23.044 -18.257  -0.261  0.00  0.00     0.189 A 
ATOM     25  N   UNL d   1      24.265 -18.528   0.189  0.00  0.00    -0.210 NA
ATOM     26  C   UNL d   1      25.197 -17.579  -0.006  0.00  0.00     0.146 A 
ATOM     27 CL   UNL d   1      26.691 -18.157   0.605  0.00  0.00    -0.061 Cl
BRANCH  24  28
ATOM     28  S   UNL d   1      21.866 -19.571  -0.179  0.00  0.00    -0.090 SA
BRANCH  28  29
ATOM     29  C   UNL d   1      20.387 -18.771  -0.894  0.00  0.00     0.082 C 
BRANCH  29  30
ATOM     30  C   UNL d   1      19.156 -19.609  -0.531  0.00  0.00     0.010 C 
BRANCH  30  31
ATOM     31  C   UNL d   1      19.483 -20.702   0.489  0.00  0.00    -0.004 C 
ATOM     32  C   UNL d   1      18.749 -20.465   1.802  0.00  0.00     0.005 C 
ENDBRANCH  30  31
ENDBRANCH  29  30
ENDBRANCH  28  29
ENDBRANCH  24  28
ENDBRANCH   1  21
TORSDOF 10
ENDMDL
MODEL 9
REMARK VINA RESULT:    -8.120      1.932      3.405
REMARK INTER + INTRA:         -13.286
REMARK INTER:                 -11.103
REMARK INTRA:                  -2.183
REMARK CONF_INDEPENDENT:        2.983
REMARK UNBOUND:                -2.183
REMARK  10 active torsions:
REMARK  status: ('A' for Active; 'I' for Inactive)
REMARK    1  A    between atoms: C_2  and  C_3 
REMARK    2  A    between atoms: C_3  and  C_4 
REMARK    3  A    between atoms: C_4  and  S_5 
REMARK    4  A    between atoms: S_5  and  C_6 
REMARK    5  A    between atoms: C_9  and  C_10 
REMARK       I    between atoms: C_10  and  N_12 
REMARK    6  A    between atoms: N_12  and  C_13 
REMARK    7  A    between atoms: C_14  and  C_13 
REMARK    8  A    between atoms: C_14  and  N_23 
REMARK    9  A    between atoms: C_14  and  C_15 
REMARK   10  A    between atoms: C_18  and  O_19 
ROOT
ATOM      1  C   UNL d   1      27.698 -15.502  -0.312  0.00  0.00     0.256 C 
ATOM      2  O   UNL d   1      27.811 -14.592  -1.131  0.00  0.00    -0.268 OA
ATOM      3  N   UNL d   1      28.614 -15.674   0.709  0.00  0.00    -0.354 N 
ATOM      4  H   UNL d   1      28.399 -16.361   1.415  0.00  0.00     0.162 HD
ENDROOT
BRANCH   3   5
ATOM      5  C   UNL d   1      29.749 -14.784   0.913  0.00  0.00     0.161 C 
BRANCH   5   6
ATOM      6  C   UNL d   1      29.391 -13.396   1.542  0.00  0.00     0.238 C 
BRANCH   6   7
ATOM      7  N   UNL d   1      28.113 -12.746   0.905  0.00  0.00    -0.061 N 
ATOM      8  C   UNL d   1      28.257 -11.277   0.535  0.00  0.00     0.236 C 
ATOM      9  C   UNL d   1      27.775 -10.526   1.748  0.00  0.00     0.029 C 
ATOM     10  C   UNL d   1      26.601 -11.334   2.235  0.00  0.00     0.029 C 
ATOM     11  C   UNL d   1      26.827 -12.755   1.754  0.00  0.00     0.236 C 
ATOM     12  H   UNL d   1      27.923 -13.302   0.059  0.00  0.00     0.280 HD
ENDBRANCH   6   7
BRANCH   6  13
ATOM     13  C   UNL d   1      29.265 -13.525   3.043  0.00  0.00    -0.026 A 
ATOM     14  C   UNL d   1      28.431 -14.503   3.621  0.00  0.00     0.012 A 
ATOM     15  C   UNL d   1      28.030 -14.373   4.951  0.00  0.00     0.037 A 
ATOM     16  C   UNL d   1      28.560 -13.357   5.747  0.00  0.00     0.068 A 
ATOM     17  C   UNL d   1      29.436 -12.427   5.188  0.00  0.00     0.037 A 
ATOM     18  C   UNL d   1      29.789 -12.506   3.846  0.00  0.00     0.012 A 
BRANCH  16  19
ATOM     19  O   UNL d   1      28.156 -13.366   7.053  0.00  0.00    -0.356 OA
ATOM     20  C   UNL d   1      29.167 -13.657   8.014  0.00  0.00     0.210 C 
ENDBRANCH  16  19
ENDBRANCH   6  13
ENDBRANCH   5   6
ENDBRANCH   3   5
BRANCH   1  21
ATOM     21  C   UNL d   1      26.554 -16.454  -0.396  0.00  0.00     0.090 A 
ATOM     22  C   UNL d   1      26.442 -17.493   0.503  0.00  0.00     0.139 A 
ATOM     23  N   UNL d   1      25.440 -18.414   0.481  0.00  0.00    -0.234 NA
ATOM     24  C   UNL d   1      24.511 -18.299  -0.481  0.00  0.00     0.189 A 
ATOM     25  N   UNL d   1      24.510 -17.325  -1.385  0.00  0.00    -0.210 NA
ATOM     26  C   UNL d   1      25.520 -16.439  -1.308  0.00  0.00     0.146 A 
ATOM     27 CL   UNL d   1      25.293 -15.258  -2.529  0.00  0.00    -0.061 Cl
BRANCH  24  28
ATOM     28  S   UNL d   1      23.091 -19.350  -0.457  0.00  0.00    -0.090 SA
BRANCH  28  29
ATOM     29  C   UNL d   1      21.757 -18.157  -0.827  0.00  0.00     0.082 C 
BRANCH  29  30
ATOM     30  C   UNL d   1      20.430 -18.921  -0.911  0.00  0.00     0.010 C 
BRANCH  30  31
ATOM     31  C   UNL d   1      20.206 -19.824   0.304  0.00  0.00    -0.004 C 
ATOM     32  C   UNL d   1      18.822 -20.459   0.267  0.00  0.00     0.005 C 
ENDBRANCH  30  31
ENDBRANCH  29  30
ENDBRANCH  28  29
ENDBRANCH  24  28
ENDBRANCH   1  21
TORSDOF 10
ENDMDL
