MODEL 1
REMARK VINA RESULT:   -32.087      0.000      0.000
REMARK INTER + INTRA:         -33.818
REMARK INTER:                 -32.982
REMARK INTRA:                  -0.836
REMARK CONF_INDEPENDENT:        0.895
REMARK UNBOUND:                -0.836
REMARK  3 active torsions:
REMARK  status: ('A' for Active; 'I' for Inactive)
REMARK    1  A    between atoms: C_5  and  C_6 
REMARK       I    between atoms: C_6  and  N_7 
REMARK    2  A    between atoms: C_10  and  N_11 
REMARK       I    between atoms: N_11  and  C_12 
REMARK    3  A    between atoms: C_12  and  C_14 
ROOT
ATOM      1  C   UNL d   1      24.848 -17.819  -0.292  0.00  0.00     0.032 C 
ATOM      2  C   UNL d   1      24.357 -19.145  -0.305  0.00  0.00     0.018 C 
ATOM      3  C   UNL d   1      22.977 -19.395  -0.453  0.00  0.00     0.024 C 
ATOM      4  C   UNL d   1      22.066 -18.334  -0.535  0.00  0.00     0.044 C 
ATOM      5  C   UNL d   1      20.655 -18.575  -0.705  0.00  0.00     0.099 C 
ATOM      6  N   UNL d   1      19.530 -18.743  -0.897  0.00  0.00    -0.191 NA
ATOM      7  C   UNL d   1      22.536 -17.022  -0.471  0.00  0.00     0.024 C 
ATOM      8  C   UNL d   1      23.917 -16.765  -0.441  0.00  0.00     0.018 C 
ENDROOT
BRANCH   1   9
ATOM      9  C   UNL d   1      26.250 -17.559   0.239  0.00  0.00     0.256 C 
ATOM     10  N   UNL d   1      27.176 -16.876  -0.547  0.00  0.00    -0.322 N 
ATOM     11  H   UNL d   1      28.123 -17.239  -0.470  0.00  0.00     0.169 HD
ATOM     12  O   UNL d   1      26.565 -17.966   1.357  0.00  0.00    -0.267 OA
BRANCH  10  13
ATOM     13  C   UNL d   1      27.032 -15.591  -1.158  0.00  0.00     0.042 C 
ATOM     14  C   UNL d   1      26.343 -15.506  -2.395  0.00  0.00     0.047 C 
ATOM     15  C   UNL d   1      26.054 -14.250  -2.984  0.00  0.00     0.034 C 
ATOM     16  C   UNL d   1      26.441 -13.089  -2.317  0.00  0.00     0.017 C 
ATOM     17  C   UNL d   1      27.149 -13.168  -1.131  0.00  0.00     0.010 C 
ATOM     18  C   UNL d   1      27.525 -14.396  -0.584  0.00  0.00    -0.035 C 
ATOM     19  C   UNL d   1      28.444 -14.286   0.595  0.00  0.00     0.050 C 
BRANCH  15  20
ATOM     20  C   UNL d   1      25.328 -14.157  -4.291  0.00  0.00     0.249 C 
ATOM     21  N   UNL d   1      24.780 -12.949  -4.651  0.00  0.00    -0.366 N 
ATOM     22  H   UNL d   1      24.821 -12.097  -4.114  0.00  0.00     0.159 HD
ATOM     23  H   UNL d   1      24.297 -12.893  -5.538  0.00  0.00     0.159 HD
ATOM     24  O   UNL d   1      25.219 -15.126  -5.032  0.00  0.00    -0.268 OA
ENDBRANCH  15  20
ENDBRANCH  10  13
ENDBRANCH   1   9
TORSDOF 3
ENDMDL
MODEL 2
REMARK VINA RESULT:   -32.074      1.542      1.907
REMARK INTER + INTRA:         -33.717
REMARK INTER:                 -32.969
REMARK INTRA:                  -0.748
REMARK CONF_INDEPENDENT:        0.895
REMARK UNBOUND:                -0.748
REMARK  3 active torsions:
REMARK  status: ('A' for Active; 'I' for Inactive)
REMARK    1  A    between atoms: C_5  and  C_6 
REMARK       I    between atoms: C_6  and  N_7 
REMARK    2  A    between atoms: C_10  and  N_11 
REMARK       I    between atoms: N_11  and  C_12 
REMARK    3  A    between atoms: C_12  and  C_14 
ROOT
ATOM      1  C   UNL d   1      25.135 -17.257  -0.631  0.00  0.00     0.032 C 
ATOM      2  C   UNL d   1      24.760 -18.604  -0.419  0.00  0.00     0.018 C 
ATOM      3  C   UNL d   1      23.404 -18.986  -0.478  0.00  0.00     0.024 C 
ATOM      4  C   UNL d   1      22.403 -18.030  -0.692  0.00  0.00     0.044 C 
ATOM      5  C   UNL d   1      21.015 -18.409  -0.772  0.00  0.00     0.099 C 
ATOM      6  N   UNL d   1      19.905 -18.697  -0.895  0.00  0.00    -0.191 NA
ATOM      7  C   UNL d   1      22.759 -16.690  -0.850  0.00  0.00     0.024 C 
ATOM      8  C   UNL d   1      24.113 -16.320  -0.909  0.00  0.00     0.018 C 
ENDROOT
BRANCH   1   9
ATOM      9  C   UNL d   1      26.521 -16.803  -0.197  0.00  0.00     0.256 C 
ATOM     10  N   UNL d   1      27.562 -16.767  -1.122  0.00  0.00    -0.322 N 
ATOM     11  H   UNL d   1      28.458 -17.059  -0.740  0.00  0.00     0.169 HD
ATOM     12  O   UNL d   1      26.720 -16.482   0.974  0.00  0.00    -0.267 OA
BRANCH  10  13
ATOM     13  C   UNL d   1      27.596 -16.090  -2.382  0.00  0.00     0.042 C 
ATOM     14  C   UNL d   1      26.485 -15.285  -2.745  0.00  0.00     0.047 C 
ATOM     15  C   UNL d   1      26.515 -14.488  -3.916  0.00  0.00     0.034 C 
ATOM     16  C   UNL d   1      27.665 -14.489  -4.702  0.00  0.00     0.017 C 
ATOM     17  C   UNL d   1      28.735 -15.303  -4.374  0.00  0.00     0.010 C 
ATOM     18  C   UNL d   1      28.688 -16.165  -3.277  0.00  0.00    -0.035 C 
ATOM     19  C   UNL d   1      29.854 -17.103  -3.185  0.00  0.00     0.050 C 
BRANCH  15  20
ATOM     20  C   UNL d   1      25.342 -13.639  -4.303  0.00  0.00     0.249 C 
ATOM     21  N   UNL d   1      25.576 -12.345  -4.703  0.00  0.00    -0.366 N 
ATOM     22  H   UNL d   1      26.478 -11.899  -4.768  0.00  0.00     0.159 HD
ATOM     23  H   UNL d   1      24.780 -11.780  -4.969  0.00  0.00     0.159 HD
ATOM     24  O   UNL d   1      24.198 -14.075  -4.269  0.00  0.00    -0.268 OA
ENDBRANCH  15  20
ENDBRANCH  10  13
ENDBRANCH   1   9
TORSDOF 3
ENDMDL
MODEL 3
REMARK VINA RESULT:   -31.353      1.019      1.040
REMARK INTER + INTRA:         -33.084
REMARK INTER:                 -32.248
REMARK INTRA:                  -0.836
REMARK CONF_INDEPENDENT:        0.895
REMARK UNBOUND:                -0.836
REMARK  3 active torsions:
REMARK  status: ('A' for Active; 'I' for Inactive)
REMARK    1  A    between atoms: C_5  and  C_6 
REMARK       I    between atoms: C_6  and  N_7 
REMARK    2  A    between atoms: C_10  and  N_11 
REMARK       I    between atoms: N_11  and  C_12 
REMARK    3  A    between atoms: C_12  and  C_14 
ROOT
ATOM      1  C   UNL d   1      24.899 -17.634  -0.413  0.00  0.00     0.032 C 
ATOM      2  C   UNL d   1      24.466 -18.980  -0.411  0.00  0.00     0.018 C 
ATOM      3  C   UNL d   1      23.095 -19.290  -0.527  0.00  0.00     0.024 C 
ATOM      4  C   UNL d   1      22.137 -18.270  -0.593  0.00  0.00     0.044 C 
ATOM      5  C   UNL d   1      20.735 -18.573  -0.730  0.00  0.00     0.099 C 
ATOM      6  N   UNL d   1      19.615 -18.790  -0.895  0.00  0.00    -0.191 NA
ATOM      7  C   UNL d   1      22.551 -16.939  -0.543  0.00  0.00     0.024 C 
ATOM      8  C   UNL d   1      23.920 -16.622  -0.545  0.00  0.00     0.018 C 
ENDROOT
BRANCH   1   9
ATOM      9  C   UNL d   1      26.300 -17.312   0.085  0.00  0.00     0.256 C 
ATOM     10  N   UNL d   1      27.213 -16.686  -0.761  0.00  0.00    -0.322 N 
ATOM     11  H   UNL d   1      28.165 -17.028  -0.659  0.00  0.00     0.169 HD
ATOM     12  O   UNL d   1      26.626 -17.617   1.232  0.00  0.00    -0.267 OA
BRANCH  10  13
ATOM     13  C   UNL d   1      27.049 -15.460  -1.479  0.00  0.00     0.042 C 
ATOM     14  C   UNL d   1      27.180 -15.483  -2.892  0.00  0.00     0.047 C 
ATOM     15  C   UNL d   1      26.900 -14.331  -3.668  0.00  0.00     0.034 C 
ATOM     16  C   UNL d   1      26.471 -13.172  -3.024  0.00  0.00     0.017 C 
ATOM     17  C   UNL d   1      26.381 -13.133  -1.644  0.00  0.00     0.010 C 
ATOM     18  C   UNL d   1      26.743 -14.228  -0.857  0.00  0.00    -0.035 C 
ATOM     19  C   UNL d   1      26.761 -13.943   0.616  0.00  0.00     0.050 C 
BRANCH  15  20
ATOM     20  C   UNL d   1      27.040 -14.351  -5.160  0.00  0.00     0.249 C 
ATOM     21  N   UNL d   1      27.228 -13.158  -5.816  0.00  0.00    -0.366 N 
ATOM     22  H   UNL d   1      27.287 -12.248  -5.385  0.00  0.00     0.159 HD
ATOM     23  H   UNL d   1      27.328 -13.181  -6.822  0.00  0.00     0.159 HD
ATOM     24  O   UNL d   1      26.990 -15.399  -5.792  0.00  0.00    -0.268 OA
ENDBRANCH  15  20
ENDBRANCH  10  13
ENDBRANCH   1   9
TORSDOF 3
ENDMDL
MODEL 4
REMARK VINA RESULT:   -30.936      2.207      4.282
REMARK INTER + INTRA:         -32.606
REMARK INTER:                 -31.831
REMARK INTRA:                  -0.775
REMARK CONF_INDEPENDENT:        0.895
REMARK UNBOUND:                -0.775
REMARK  3 active torsions:
REMARK  status: ('A' for Active; 'I' for Inactive)
REMARK    1  A    between atoms: C_5  and  C_6 
REMARK       I    between atoms: C_6  and  N_7 
REMARK    2  A    between atoms: C_10  and  N_11 
REMARK       I    between atoms: N_11  and  C_12 
REMARK    3  A    between atoms: C_12  and  C_14 
ROOT
ATOM      1  C   UNL d   1      25.180 -17.465  -0.309  0.00  0.00     0.032 C 
ATOM      2  C   UNL d   1      24.367 -16.605  -1.083  0.00  0.00     0.018 C 
ATOM      3  C   UNL d   1      22.998 -16.890  -1.266  0.00  0.00     0.024 C 
ATOM      4  C   UNL d   1      22.434 -18.055  -0.731  0.00  0.00     0.044 C 
ATOM      5  C   UNL d   1      21.033 -18.349  -0.895  0.00  0.00     0.099 C 
ATOM      6  N   UNL d   1      19.905 -18.576  -0.967  0.00  0.00    -0.191 NA
ATOM      7  C   UNL d   1      23.241 -18.936  -0.009  0.00  0.00     0.024 C 
ATOM      8  C   UNL d   1      24.575 -18.602   0.276  0.00  0.00     0.018 C 
ENDROOT
BRANCH   1   9
ATOM      9  C   UNL d   1      26.692 -17.356  -0.434  0.00  0.00     0.256 C 
ATOM     10  N   UNL d   1      27.287 -16.110  -0.620  0.00  0.00    -0.322 N 
ATOM     11  H   UNL d   1      28.078 -16.126  -1.259  0.00  0.00     0.169 HD
ATOM     12  O   UNL d   1      27.384 -18.372  -0.384  0.00  0.00    -0.267 OA
BRANCH  10  13
ATOM     13  C   UNL d   1      27.142 -14.937   0.187  0.00  0.00     0.042 C 
ATOM     14  C   UNL d   1      27.414 -15.037   1.576  0.00  0.00     0.047 C 
ATOM     15  C   UNL d   1      27.415 -13.885   2.402  0.00  0.00     0.034 C 
ATOM     16  C   UNL d   1      27.166 -12.642   1.825  0.00  0.00     0.017 C 
ATOM     17  C   UNL d   1      26.861 -12.545   0.478  0.00  0.00     0.010 C 
ATOM     18  C   UNL d   1      26.761 -13.678  -0.331  0.00  0.00    -0.035 C 
ATOM     19  C   UNL d   1      26.240 -13.401  -1.710  0.00  0.00     0.050 C 
BRANCH  15  20
ATOM     20  C   UNL d   1      27.699 -13.988   3.870  0.00  0.00     0.249 C 
ATOM     21  N   UNL d   1      28.274 -15.143   4.345  0.00  0.00    -0.366 N 
ATOM     22  H   UNL d   1      28.533 -15.946   3.794  0.00  0.00     0.159 HD
ATOM     23  H   UNL d   1      28.469 -15.201   5.336  0.00  0.00     0.159 HD
ATOM     24  O   UNL d   1      27.433 -13.073   4.638  0.00  0.00    -0.268 OA
ENDBRANCH  15  20
ENDBRANCH  10  13
ENDBRANCH   1   9
TORSDOF 3
ENDMDL
MODEL 5
REMARK VINA RESULT:   -30.804      2.395      2.966
REMARK INTER + INTRA:         -31.651
REMARK INTER:                 -31.699
REMARK INTRA:                   0.048
REMARK CONF_INDEPENDENT:        0.895
REMARK UNBOUND:                 0.048
REMARK  3 active torsions:
REMARK  status: ('A' for Active; 'I' for Inactive)
REMARK    1  A    between atoms: C_5  and  C_6 
REMARK       I    between atoms: C_6  and  N_7 
REMARK    2  A    between atoms: C_10  and  N_11 
REMARK       I    between atoms: N_11  and  C_12 
REMARK    3  A    between atoms: C_12  and  C_14 
ROOT
ATOM      1  C   UNL d   1      24.740 -16.664  -0.979  0.00  0.00     0.032 C 
ATOM      2  C   UNL d   1      24.662 -18.068  -1.122  0.00  0.00     0.018 C 
ATOM      3  C   UNL d   1      23.412 -18.721  -1.098  0.00  0.00     0.024 C 
ATOM      4  C   UNL d   1      22.233 -17.996  -0.879  0.00  0.00     0.044 C 
ATOM      5  C   UNL d   1      20.948 -18.647  -0.871  0.00  0.00     0.099 C 
ATOM      6  N   UNL d   1      19.906 -19.138  -0.915  0.00  0.00    -0.191 NA
ATOM      7  C   UNL d   1      22.305 -16.616  -0.686  0.00  0.00     0.024 C 
ATOM      8  C   UNL d   1      23.532 -15.945  -0.824  0.00  0.00     0.018 C 
ENDROOT
BRANCH   1   9
ATOM      9  C   UNL d   1      26.080 -16.034  -0.631  0.00  0.00     0.256 C 
ATOM     10  N   UNL d   1      27.108 -16.022  -1.571  0.00  0.00    -0.322 N 
ATOM     11  H   UNL d   1      28.029 -16.180  -1.171  0.00  0.00     0.169 HD
ATOM     12  O   UNL d   1      26.255 -15.549   0.486  0.00  0.00    -0.267 OA
BRANCH  10  13
ATOM     13  C   UNL d   1      27.072 -15.511  -2.907  0.00  0.00     0.042 C 
ATOM     14  C   UNL d   1      28.197 -15.729  -3.743  0.00  0.00     0.047 C 
ATOM     15  C   UNL d   1      28.169 -15.364  -5.113  0.00  0.00     0.034 C 
ATOM     16  C   UNL d   1      27.006 -14.804  -5.636  0.00  0.00     0.017 C 
ATOM     17  C   UNL d   1      25.921 -14.552  -4.816  0.00  0.00     0.010 C 
ATOM     18  C   UNL d   1      25.963 -14.817  -3.446  0.00  0.00    -0.035 C 
ATOM     19  C   UNL d   1      24.774 -14.309  -2.687  0.00  0.00     0.050 C 
BRANCH  15  20
ATOM     20  C   UNL d   1      29.357 -15.591  -5.997  0.00  0.00     0.249 C 
ATOM     21  N   UNL d   1      29.274 -15.205  -7.315  0.00  0.00    -0.366 N 
ATOM     22  H   UNL d   1      28.479 -14.771  -7.755  0.00  0.00     0.159 HD
ATOM     23  H   UNL d   1      30.083 -15.356  -7.903  0.00  0.00     0.159 HD
ATOM     24  O   UNL d   1      30.383 -16.106  -5.571  0.00  0.00    -0.268 OA
ENDBRANCH  15  20
ENDBRANCH  10  13
ENDBRANCH   1   9
TORSDOF 3
ENDMDL
MODEL 6
REMARK VINA RESULT:   -30.386      2.113      2.954
REMARK INTER + INTRA:         -32.105
REMARK INTER:                 -31.281
REMARK INTRA:                  -0.824
REMARK CONF_INDEPENDENT:        0.895
REMARK UNBOUND:                -0.824
REMARK  3 active torsions:
REMARK  status: ('A' for Active; 'I' for Inactive)
REMARK    1  A    between atoms: C_5  and  C_6 
REMARK       I    between atoms: C_6  and  N_7 
REMARK    2  A    between atoms: C_10  and  N_11 
REMARK       I    between atoms: N_11  and  C_12 
REMARK    3  A    between atoms: C_12  and  C_14 
ROOT
ATOM      1  C   UNL d   1      24.856 -17.725  -0.345  0.00  0.00     0.032 C 
ATOM      2  C   UNL d   1      24.398 -19.062  -0.385  0.00  0.00     0.018 C 
ATOM      3  C   UNL d   1      23.023 -19.342  -0.520  0.00  0.00     0.024 C 
ATOM      4  C   UNL d   1      22.084 -18.303  -0.561  0.00  0.00     0.044 C 
ATOM      5  C   UNL d   1      20.677 -18.575  -0.716  0.00  0.00     0.099 C 
ATOM      6  N   UNL d   1      19.554 -18.766  -0.895  0.00  0.00    -0.191 NA
ATOM      7  C   UNL d   1      22.522 -16.982  -0.470  0.00  0.00     0.024 C 
ATOM      8  C   UNL d   1      23.897 -16.691  -0.453  0.00  0.00     0.018 C 
ENDROOT
BRANCH   1   9
ATOM      9  C   UNL d   1      26.259 -17.444   0.172  0.00  0.00     0.256 C 
ATOM     10  N   UNL d   1      27.102 -16.587  -0.534  0.00  0.00    -0.322 N 
ATOM     11  H   UNL d   1      28.074 -16.887  -0.543  0.00  0.00     0.169 HD
ATOM     12  O   UNL d   1      26.649 -17.986   1.205  0.00  0.00    -0.267 OA
BRANCH  10  13
ATOM     13  C   UNL d   1      26.845 -15.240  -0.941  0.00  0.00     0.042 C 
ATOM     14  C   UNL d   1      27.167 -14.191  -0.042  0.00  0.00     0.047 C 
ATOM     15  C   UNL d   1      27.058 -12.834  -0.438  0.00  0.00     0.034 C 
ATOM     16  C   UNL d   1      26.649 -12.542  -1.737  0.00  0.00     0.017 C 
ATOM     17  C   UNL d   1      26.296 -13.561  -2.604  0.00  0.00     0.010 C 
ATOM     18  C   UNL d   1      26.305 -14.898  -2.203  0.00  0.00    -0.035 C 
ATOM     19  C   UNL d   1      25.715 -15.842  -3.207  0.00  0.00     0.050 C 
BRANCH  15  20
ATOM     20  C   UNL d   1      27.395 -11.724   0.511  0.00  0.00     0.249 C 
ATOM     21  N   UNL d   1      28.476 -10.924   0.224  0.00  0.00    -0.366 N 
ATOM     22  H   UNL d   1      29.078 -11.008  -0.581  0.00  0.00     0.159 HD
ATOM     23  H   UNL d   1      28.693 -10.172   0.865  0.00  0.00     0.159 HD
ATOM     24  O   UNL d   1      26.732 -11.521   1.520  0.00  0.00    -0.268 OA
ENDBRANCH  15  20
ENDBRANCH  10  13
ENDBRANCH   1   9
TORSDOF 3
ENDMDL
