MODEL 1
REMARK VINA RESULT:    -7.299      0.000      0.000
REMARK INTER + INTRA:          -9.106
REMARK INTER:                  -8.492
REMARK INTRA:                  -0.613
REMARK CONF_INDEPENDENT:        1.193
REMARK UNBOUND:                -0.613
REMARK  4 active torsions:
REMARK  status: ('A' for Active; 'I' for Inactive)
REMARK       I    between atoms: C_2  and  N_3 
REMARK    1  A    between atoms: C_2  and  C_14 
REMARK    2  A    between atoms: N_3  and  C_4 
REMARK    3  A    between atoms: C_4  and  N_6 
REMARK    4  A    between atoms: N_6  and  C_7 
ROOT
ATOM      1  O   UNL d   1      26.166 -18.226   0.946  0.00  0.00    -0.267 OA
ATOM      2  C   UNL d   1      25.895 -17.626  -0.100  0.00  0.00     0.257 C 
ATOM      3  N   UNL d   1      26.814 -16.925  -0.912  0.00  0.00    -0.299 N 
ATOM      4  H   UNL d   1      26.440 -16.473  -1.736  0.00  0.00     0.171 HD
ENDROOT
BRANCH   3   5
ATOM      5  C   UNL d   1      28.177 -16.703  -0.584  0.00  0.00     0.179 C 
ATOM      6  S   UNL d   1      29.437 -17.081  -1.653  0.00  0.00    -0.040 SA
BRANCH   5   7
ATOM      7  N   UNL d   1      28.403 -16.172   0.718  0.00  0.00    -0.333 N 
ATOM      8  H   UNL d   1      29.160 -16.549   1.276  0.00  0.00     0.168 HD
BRANCH   7   9
ATOM      9  C   UNL d   1      27.945 -14.857   1.114  0.00  0.00     0.034 A 
ATOM     10  C   UNL d   1      28.052 -14.450   2.455  0.00  0.00     0.032 A 
ATOM     11  C   UNL d   1      27.472 -13.267   2.918  0.00  0.00     0.044 A 
ATOM     12  C   UNL d   1      26.836 -12.430   2.021  0.00  0.00     0.116 A 
ATOM     13  F   UNL d   1      26.283 -11.292   2.460  0.00  0.00    -0.206 F 
ATOM     14  C   UNL d   1      26.779 -12.762   0.669  0.00  0.00     0.044 A 
ATOM     15  C   UNL d   1      27.343 -13.972   0.207  0.00  0.00     0.032 A 
ENDBRANCH   7   9
ENDBRANCH   5   7
ENDBRANCH   3   5
BRANCH   2  16
ATOM     16  C   UNL d   1      24.459 -17.714  -0.448  0.00  0.00     0.035 A 
ATOM     17  C   UNL d   1      23.770 -16.488  -0.675  0.00  0.00     0.020 A 
ATOM     18  C   UNL d   1      22.389 -16.454  -0.895  0.00  0.00     0.041 A 
ATOM     19  C   UNL d   1      21.721 -17.654  -0.847  0.00  0.00     0.105 A 
ATOM     20  C   UNL d   1      22.375 -18.839  -0.576  0.00  0.00     0.106 A 
ATOM     21  O   UNL d   1      20.386 -17.825  -1.035  0.00  0.00    -0.323 OA
ATOM     22  C   UNL d   1      23.743 -18.908  -0.366  0.00  0.00     0.056 A 
ATOM     23  O   UNL d   1      21.515 -19.894  -0.530  0.00  0.00    -0.323 OA
ATOM     24  C   UNL d   1      20.250 -19.233  -0.763  0.00  0.00     0.352 A 
ENDBRANCH   2  16
TORSDOF 4
ENDMDL
MODEL 2
REMARK VINA RESULT:    -7.291      3.184      4.342
REMARK INTER + INTRA:          -9.357
REMARK INTER:                  -8.484
REMARK INTRA:                  -0.873
REMARK CONF_INDEPENDENT:        1.193
REMARK UNBOUND:                -0.873
REMARK  4 active torsions:
REMARK  status: ('A' for Active; 'I' for Inactive)
REMARK       I    between atoms: C_2  and  N_3 
REMARK    1  A    between atoms: C_2  and  C_14 
REMARK    2  A    between atoms: N_3  and  C_4 
REMARK    3  A    between atoms: C_4  and  N_6 
REMARK    4  A    between atoms: N_6  and  C_7 
ROOT
ATOM      1  O   UNL d   1      22.173 -16.943  -0.546  0.00  0.00    -0.267 OA
ATOM      2  C   UNL d   1      22.437 -18.108  -0.231  0.00  0.00     0.257 C 
ATOM      3  N   UNL d   1      23.728 -18.623   0.019  0.00  0.00    -0.299 N 
ATOM      4  H   UNL d   1      23.788 -19.605   0.257  0.00  0.00     0.171 HD
ENDROOT
BRANCH   3   5
ATOM      5  C   UNL d   1      24.937 -17.904  -0.172  0.00  0.00     0.179 C 
ATOM      6  S   UNL d   1      26.435 -18.497   0.355  0.00  0.00    -0.040 SA
BRANCH   5   7
ATOM      7  N   UNL d   1      24.788 -16.638  -0.807  0.00  0.00    -0.333 N 
ATOM      8  H   UNL d   1      24.143 -15.964  -0.411  0.00  0.00     0.168 HD
BRANCH   7   9
ATOM      9  C   UNL d   1      25.801 -16.078  -1.677  0.00  0.00     0.034 A 
ATOM     10  C   UNL d   1      27.082 -15.795  -1.173  0.00  0.00     0.032 A 
ATOM     11  C   UNL d   1      28.035 -15.099  -1.920  0.00  0.00     0.044 A 
ATOM     12  C   UNL d   1      27.742 -14.741  -3.223  0.00  0.00     0.116 A 
ATOM     13  F   UNL d   1      28.655 -14.079  -3.945  0.00  0.00    -0.206 F 
ATOM     14  C   UNL d   1      26.511 -15.075  -3.783  0.00  0.00     0.044 A 
ATOM     15  C   UNL d   1      25.538 -15.754  -3.017  0.00  0.00     0.032 A 
ENDBRANCH   7   9
ENDBRANCH   5   7
ENDBRANCH   3   5
BRANCH   2  16
ATOM     16  C   UNL d   1      21.228 -18.955  -0.126  0.00  0.00     0.035 A 
ATOM     17  C   UNL d   1      20.383 -19.023  -1.272  0.00  0.00     0.020 A 
ATOM     18  C   UNL d   1      19.160 -19.700  -1.239  0.00  0.00     0.041 A 
ATOM     19  C   UNL d   1      18.792 -20.267  -0.042  0.00  0.00     0.105 A 
ATOM     20  C   UNL d   1      19.582 -20.159   1.085  0.00  0.00     0.106 A 
ATOM     21  O   UNL d   1      17.647 -20.963   0.186  0.00  0.00    -0.323 OA
ATOM     22  C   UNL d   1      20.806 -19.507   1.083  0.00  0.00     0.056 A 
ATOM     23  O   UNL d   1      19.005 -20.752   2.167  0.00  0.00    -0.323 OA
ATOM     24  C   UNL d   1      17.754 -21.206   1.602  0.00  0.00     0.352 A 
ENDBRANCH   2  16
TORSDOF 4
ENDMDL
MODEL 3
REMARK VINA RESULT:    -6.972      1.722      2.549
REMARK INTER + INTRA:          -8.507
REMARK INTER:                  -8.165
REMARK INTRA:                  -0.342
REMARK CONF_INDEPENDENT:        1.193
REMARK UNBOUND:                -0.342
REMARK  4 active torsions:
REMARK  status: ('A' for Active; 'I' for Inactive)
REMARK       I    between atoms: C_2  and  N_3 
REMARK    1  A    between atoms: C_2  and  C_14 
REMARK    2  A    between atoms: N_3  and  C_4 
REMARK    3  A    between atoms: C_4  and  N_6 
REMARK    4  A    between atoms: N_6  and  C_7 
ROOT
ATOM      1  O   UNL d   1      25.322 -15.277  -1.513  0.00  0.00    -0.267 OA
ATOM      2  C   UNL d   1      25.379 -16.039  -0.541  0.00  0.00     0.257 C 
ATOM      3  N   UNL d   1      26.375 -16.027   0.459  0.00  0.00    -0.299 N 
ATOM      4  H   UNL d   1      26.295 -16.722   1.190  0.00  0.00     0.171 HD
ENDROOT
BRANCH   3   5
ATOM      5  C   UNL d   1      27.536 -15.210   0.436  0.00  0.00     0.179 C 
ATOM      6  S   UNL d   1      27.975 -14.302  -0.927  0.00  0.00    -0.040 SA
BRANCH   5   7
ATOM      7  N   UNL d   1      28.315 -15.238   1.628  0.00  0.00    -0.333 N 
ATOM      8  H   UNL d   1      29.252 -15.622   1.591  0.00  0.00     0.168 HD
BRANCH   7   9
ATOM      9  C   UNL d   1      28.054 -14.363   2.751  0.00  0.00     0.034 A 
ATOM     10  C   UNL d   1      27.692 -13.023   2.528  0.00  0.00     0.032 A 
ATOM     11  C   UNL d   1      27.599 -12.098   3.570  0.00  0.00     0.044 A 
ATOM     12  C   UNL d   1      27.794 -12.524   4.871  0.00  0.00     0.116 A 
ATOM     13  F   UNL d   1      27.700 -11.642   5.875  0.00  0.00    -0.206 F 
ATOM     14  C   UNL d   1      28.075 -13.862   5.137  0.00  0.00     0.044 A 
ATOM     15  C   UNL d   1      28.196 -14.791   4.080  0.00  0.00     0.032 A 
ENDBRANCH   7   9
ENDBRANCH   5   7
ENDBRANCH   3   5
BRANCH   2  16
ATOM     16  C   UNL d   1      24.258 -17.005  -0.512  0.00  0.00     0.035 A 
ATOM     17  C   UNL d   1      24.594 -18.386  -0.415  0.00  0.00     0.020 A 
ATOM     18  C   UNL d   1      23.618 -19.384  -0.496  0.00  0.00     0.041 A 
ATOM     19  C   UNL d   1      22.324 -18.975  -0.709  0.00  0.00     0.105 A 
ATOM     20  C   UNL d   1      21.999 -17.641  -0.855  0.00  0.00     0.106 A 
ATOM     21  O   UNL d   1      21.242 -19.791  -0.815  0.00  0.00    -0.323 OA
ATOM     22  C   UNL d   1      22.940 -16.627  -0.767  0.00  0.00     0.056 A 
ATOM     23  O   UNL d   1      20.671 -17.466  -1.104  0.00  0.00    -0.323 OA
ATOM     24  C   UNL d   1      20.211 -18.837  -1.135  0.00  0.00     0.352 A 
ENDBRANCH   2  16
TORSDOF 4
ENDMDL
MODEL 4
REMARK VINA RESULT:    -6.813      3.118      4.423
REMARK INTER + INTRA:          -8.664
REMARK INTER:                  -8.006
REMARK INTRA:                  -0.658
REMARK CONF_INDEPENDENT:        1.193
REMARK UNBOUND:                -0.658
REMARK  4 active torsions:
REMARK  status: ('A' for Active; 'I' for Inactive)
REMARK       I    between atoms: C_2  and  N_3 
REMARK    1  A    between atoms: C_2  and  C_14 
REMARK    2  A    between atoms: N_3  and  C_4 
REMARK    3  A    between atoms: C_4  and  N_6 
REMARK    4  A    between atoms: N_6  and  C_7 
ROOT
ATOM      1  O   UNL d   1      26.551 -18.493   0.549  0.00  0.00    -0.267 OA
ATOM      2  C   UNL d   1      26.138 -17.462   0.008  0.00  0.00     0.257 C 
ATOM      3  N   UNL d   1      26.899 -16.299  -0.243  0.00  0.00    -0.299 N 
ATOM      4  H   UNL d   1      26.418 -15.527  -0.686  0.00  0.00     0.171 HD
ENDROOT
BRANCH   3   5
ATOM      5  C   UNL d   1      28.232 -16.094   0.198  0.00  0.00     0.179 C 
ATOM      6  S   UNL d   1      28.704 -14.696   1.033  0.00  0.00    -0.040 SA
BRANCH   5   7
ATOM      7  N   UNL d   1      29.144 -17.134  -0.144  0.00  0.00    -0.333 N 
ATOM      8  H   UNL d   1      29.149 -17.982   0.410  0.00  0.00     0.168 HD
BRANCH   7   9
ATOM      9  C   UNL d   1      29.722 -17.261  -1.464  0.00  0.00     0.034 A 
ATOM     10  C   UNL d   1      29.221 -16.490  -2.528  0.00  0.00     0.032 A 
ATOM     11  C   UNL d   1      29.625 -16.699  -3.849  0.00  0.00     0.044 A 
ATOM     12  C   UNL d   1      30.602 -17.640  -4.115  0.00  0.00     0.116 A 
ATOM     13  F   UNL d   1      30.997 -17.840  -5.380  0.00  0.00    -0.206 F 
ATOM     14  C   UNL d   1      31.179 -18.367  -3.077  0.00  0.00     0.044 A 
ATOM     15  C   UNL d   1      30.750 -18.174  -1.745  0.00  0.00     0.032 A 
ENDBRANCH   7   9
ENDBRANCH   5   7
ENDBRANCH   3   5
BRANCH   2  16
ATOM     16  C   UNL d   1      24.712 -17.557  -0.377  0.00  0.00     0.035 A 
ATOM     17  C   UNL d   1      24.027 -16.334  -0.637  0.00  0.00     0.020 A 
ATOM     18  C   UNL d   1      22.653 -16.306  -0.894  0.00  0.00     0.041 A 
ATOM     19  C   UNL d   1      21.985 -17.507  -0.851  0.00  0.00     0.105 A 
ATOM     20  C   UNL d   1      22.634 -18.687  -0.550  0.00  0.00     0.106 A 
ATOM     21  O   UNL d   1      20.656 -17.683  -1.074  0.00  0.00    -0.323 OA
ATOM     22  C   UNL d   1      23.997 -18.752  -0.303  0.00  0.00     0.056 A 
ATOM     23  O   UNL d   1      21.775 -19.744  -0.517  0.00  0.00    -0.323 OA
ATOM     24  C   UNL d   1      20.516 -19.089  -0.791  0.00  0.00     0.352 A 
ENDBRANCH   2  16
TORSDOF 4
ENDMDL
MODEL 5
REMARK VINA RESULT:    -6.740      4.975      7.745
REMARK INTER + INTRA:          -8.802
REMARK INTER:                  -7.934
REMARK INTRA:                  -0.868
REMARK CONF_INDEPENDENT:        1.193
REMARK UNBOUND:                -0.868
REMARK  4 active torsions:
REMARK  status: ('A' for Active; 'I' for Inactive)
REMARK       I    between atoms: C_2  and  N_3 
REMARK    1  A    between atoms: C_2  and  C_14 
REMARK    2  A    between atoms: N_3  and  C_4 
REMARK    3  A    between atoms: C_4  and  N_6 
REMARK    4  A    between atoms: N_6  and  C_7 
ROOT
ATOM      1  O   UNL d   1      23.530 -14.860  -2.282  0.00  0.00    -0.267 OA
ATOM      2  C   UNL d   1      24.578 -15.499  -2.422  0.00  0.00     0.257 C 
ATOM      3  N   UNL d   1      24.902 -16.708  -1.768  0.00  0.00    -0.299 N 
ATOM      4  H   UNL d   1      25.806 -17.111  -1.977  0.00  0.00     0.171 HD
ENDROOT
BRANCH   3   5
ATOM      5  C   UNL d   1      24.116 -17.315  -0.754  0.00  0.00     0.179 C 
ATOM      6  S   UNL d   1      24.804 -18.208   0.512  0.00  0.00    -0.040 SA
BRANCH   5   7
ATOM      7  N   UNL d   1      22.709 -17.143  -0.902  0.00  0.00    -0.333 N 
ATOM      8  H   UNL d   1      22.365 -16.523  -1.625  0.00  0.00     0.168 HD
BRANCH   7   9
ATOM      9  C   UNL d   1      21.751 -18.115  -0.420  0.00  0.00     0.034 A 
ATOM     10  C   UNL d   1      20.737 -18.584  -1.272  0.00  0.00     0.032 A 
ATOM     11  C   UNL d   1      19.690 -19.385  -0.809  0.00  0.00     0.044 A 
ATOM     12  C   UNL d   1      19.688 -19.795   0.511  0.00  0.00     0.116 A 
ATOM     13  F   UNL d   1      18.690 -20.568   0.959  0.00  0.00    -0.206 F 
ATOM     14  C   UNL d   1      20.720 -19.416   1.367  0.00  0.00     0.044 A 
ATOM     15  C   UNL d   1      21.762 -18.583   0.903  0.00  0.00     0.032 A 
ENDBRANCH   7   9
ENDBRANCH   5   7
ENDBRANCH   3   5
BRANCH   2  16
ATOM     16  C   UNL d   1      25.506 -14.862  -3.383  0.00  0.00     0.035 A 
ATOM     17  C   UNL d   1      25.200 -13.532  -3.796  0.00  0.00     0.020 A 
ATOM     18  C   UNL d   1      25.945 -12.884  -4.786  0.00  0.00     0.041 A 
ATOM     19  C   UNL d   1      26.964 -13.599  -5.369  0.00  0.00     0.105 A 
ATOM     20  C   UNL d   1      27.232 -14.905  -5.010  0.00  0.00     0.106 A 
ATOM     21  O   UNL d   1      27.795 -13.143  -6.342  0.00  0.00    -0.323 OA
ATOM     22  C   UNL d   1      26.521 -15.572  -4.024  0.00  0.00     0.056 A 
ATOM     23  O   UNL d   1      28.249 -15.434  -5.745  0.00  0.00    -0.323 OA
ATOM     24  C   UNL d   1      28.559 -14.331  -6.626  0.00  0.00     0.352 A 
ENDBRANCH   2  16
TORSDOF 4
ENDMDL
MODEL 6
REMARK VINA RESULT:    -6.738      3.876      7.721
REMARK INTER + INTRA:          -8.395
REMARK INTER:                  -7.931
REMARK INTRA:                  -0.464
REMARK CONF_INDEPENDENT:        1.193
REMARK UNBOUND:                -0.464
REMARK  4 active torsions:
REMARK  status: ('A' for Active; 'I' for Inactive)
REMARK       I    between atoms: C_2  and  N_3 
REMARK    1  A    between atoms: C_2  and  C_14 
REMARK    2  A    between atoms: N_3  and  C_4 
REMARK    3  A    between atoms: C_4  and  N_6 
REMARK    4  A    between atoms: N_6  and  C_7 
ROOT
ATOM      1  O   UNL d   1      26.666 -13.633   1.887  0.00  0.00    -0.267 OA
ATOM      2  C   UNL d   1      27.676 -14.240   2.260  0.00  0.00     0.257 C 
ATOM      3  N   UNL d   1      28.430 -15.145   1.480  0.00  0.00    -0.299 N 
ATOM      4  H   UNL d   1      29.229 -15.575   1.928  0.00  0.00     0.171 HD
ENDROOT
BRANCH   3   5
ATOM      5  C   UNL d   1      28.072 -15.586   0.180  0.00  0.00     0.179 C 
ATOM      6  S   UNL d   1      28.234 -14.597  -1.188  0.00  0.00    -0.040 SA
BRANCH   5   7
ATOM      7  N   UNL d   1      27.537 -16.905   0.120  0.00  0.00    -0.333 N 
ATOM      8  H   UNL d   1      28.021 -17.652   0.604  0.00  0.00     0.168 HD
BRANCH   7   9
ATOM      9  C   UNL d   1      26.146 -17.169  -0.180  0.00  0.00     0.034 A 
ATOM     10  C   UNL d   1      25.454 -16.347  -1.086  0.00  0.00     0.032 A 
ATOM     11  C   UNL d   1      24.074 -16.451  -1.277  0.00  0.00     0.044 A 
ATOM     12  C   UNL d   1      23.374 -17.442  -0.614  0.00  0.00     0.116 A 
ATOM     13  F   UNL d   1      22.052 -17.550  -0.799  0.00  0.00    -0.206 F 
ATOM     14  C   UNL d   1      24.039 -18.326   0.232  0.00  0.00     0.044 A 
ATOM     15  C   UNL d   1      25.430 -18.201   0.445  0.00  0.00     0.032 A 
ENDBRANCH   7   9
ENDBRANCH   5   7
ENDBRANCH   3   5
BRANCH   2  16
ATOM     16  C   UNL d   1      28.047 -13.919   3.656  0.00  0.00     0.035 A 
ATOM     17  C   UNL d   1      28.427 -15.007   4.494  0.00  0.00     0.020 A 
ATOM     18  C   UNL d   1      28.684 -14.827   5.856  0.00  0.00     0.041 A 
ATOM     19  C   UNL d   1      28.519 -13.559   6.360  0.00  0.00     0.105 A 
ATOM     20  C   UNL d   1      28.101 -12.511   5.564  0.00  0.00     0.106 A 
ATOM     21  O   UNL d   1      28.720 -13.187   7.651  0.00  0.00    -0.323 OA
ATOM     22  C   UNL d   1      27.851 -12.653   4.208  0.00  0.00     0.056 A 
ATOM     23  O   UNL d   1      27.959 -11.359   6.277  0.00  0.00    -0.323 OA
ATOM     24  C   UNL d   1      28.296 -11.811   7.608  0.00  0.00     0.352 A 
ENDBRANCH   2  16
TORSDOF 4
ENDMDL
MODEL 7
REMARK VINA RESULT:    -6.621      3.015      3.799
REMARK INTER + INTRA:          -8.437
REMARK INTER:                  -7.814
REMARK INTRA:                  -0.623
REMARK CONF_INDEPENDENT:        1.193
REMARK UNBOUND:                -0.623
REMARK  4 active torsions:
REMARK  status: ('A' for Active; 'I' for Inactive)
REMARK       I    between atoms: C_2  and  N_3 
REMARK    1  A    between atoms: C_2  and  C_14 
REMARK    2  A    between atoms: N_3  and  C_4 
REMARK    3  A    between atoms: C_4  and  N_6 
REMARK    4  A    between atoms: N_6  and  C_7 
ROOT
ATOM      1  O   UNL d   1      24.710 -15.431  -1.579  0.00  0.00    -0.267 OA
ATOM      2  C   UNL d   1      24.952 -16.300  -0.735  0.00  0.00     0.257 C 
ATOM      3  N   UNL d   1      26.123 -16.385   0.050  0.00  0.00    -0.299 N 
ATOM      4  H   UNL d   1      26.183 -17.163   0.694  0.00  0.00     0.171 HD
ENDROOT
BRANCH   3   5
ATOM      5  C   UNL d   1      27.258 -15.545  -0.097  0.00  0.00     0.179 C 
ATOM      6  S   UNL d   1      27.848 -14.591   1.174  0.00  0.00    -0.040 SA
BRANCH   5   7
ATOM      7  N   UNL d   1      27.838 -15.543  -1.398  0.00  0.00    -0.333 N 
ATOM      8  H   UNL d   1      28.404 -16.334  -1.683  0.00  0.00     0.168 HD
BRANCH   7   9
ATOM      9  C   UNL d   1      27.316 -14.740  -2.482  0.00  0.00     0.034 A 
ATOM     10  C   UNL d   1      27.037 -13.378  -2.277  0.00  0.00     0.032 A 
ATOM     11  C   UNL d   1      26.374 -12.605  -3.233  0.00  0.00     0.044 A 
ATOM     12  C   UNL d   1      26.048 -13.171  -4.451  0.00  0.00     0.116 A 
ATOM     13  F   UNL d   1      25.417 -12.432  -5.374  0.00  0.00    -0.206 F 
ATOM     14  C   UNL d   1      26.379 -14.497  -4.721  0.00  0.00     0.044 A 
ATOM     15  C   UNL d   1      27.025 -15.285  -3.742  0.00  0.00     0.032 A 
ENDBRANCH   7   9
ENDBRANCH   5   7
ENDBRANCH   3   5
BRANCH   2  16
ATOM     16  C   UNL d   1      23.856 -17.287  -0.608  0.00  0.00     0.035 A 
ATOM     17  C   UNL d   1      24.227 -18.660  -0.521  0.00  0.00     0.020 A 
ATOM     18  C   UNL d   1      23.267 -19.677  -0.514  0.00  0.00     0.041 A 
ATOM     19  C   UNL d   1      21.952 -19.296  -0.631  0.00  0.00     0.105 A 
ATOM     20  C   UNL d   1      21.591 -17.971  -0.768  0.00  0.00     0.106 A 
ATOM     21  O   UNL d   1      20.883 -20.134  -0.643  0.00  0.00    -0.323 OA
ATOM     22  C   UNL d   1      22.515 -16.938  -0.765  0.00  0.00     0.056 A 
ATOM     23  O   UNL d   1      20.245 -17.825  -0.915  0.00  0.00    -0.323 OA
ATOM     24  C   UNL d   1      19.811 -19.204  -0.895  0.00  0.00     0.352 A 
ENDBRANCH   2  16
TORSDOF 4
ENDMDL
MODEL 8
REMARK VINA RESULT:    -6.254      4.115      5.296
REMARK INTER + INTRA:          -8.476
REMARK INTER:                  -7.447
REMARK INTRA:                  -1.029
REMARK CONF_INDEPENDENT:        1.193
REMARK UNBOUND:                -1.029
REMARK  4 active torsions:
REMARK  status: ('A' for Active; 'I' for Inactive)
REMARK       I    between atoms: C_2  and  N_3 
REMARK    1  A    between atoms: C_2  and  C_14 
REMARK    2  A    between atoms: N_3  and  C_4 
REMARK    3  A    between atoms: C_4  and  N_6 
REMARK    4  A    between atoms: N_6  and  C_7 
ROOT
ATOM      1  O   UNL d   1      26.365 -15.966  -0.939  0.00  0.00    -0.267 OA
ATOM      2  C   UNL d   1      25.324 -15.961  -1.606  0.00  0.00     0.257 C 
ATOM      3  N   UNL d   1      25.085 -15.176  -2.755  0.00  0.00    -0.299 N 
ATOM      4  H   UNL d   1      24.177 -15.272  -3.191  0.00  0.00     0.171 HD
ENDROOT
BRANCH   3   5
ATOM      5  C   UNL d   1      25.965 -14.179  -3.251  0.00  0.00     0.179 C 
ATOM      6  S   UNL d   1      25.408 -12.829  -4.114  0.00  0.00    -0.040 SA
BRANCH   5   7
ATOM      7  N   UNL d   1      27.346 -14.417  -2.998  0.00  0.00    -0.333 N 
ATOM      8  H   UNL d   1      27.650 -14.566  -2.043  0.00  0.00     0.168 HD
BRANCH   7   9
ATOM      9  C   UNL d   1      28.250 -14.911  -4.014  0.00  0.00     0.034 A 
ATOM     10  C   UNL d   1      28.197 -14.387  -5.318  0.00  0.00     0.032 A 
ATOM     11  C   UNL d   1      28.924 -14.946  -6.371  0.00  0.00     0.044 A 
ATOM     12  C   UNL d   1      29.782 -16.000  -6.115  0.00  0.00     0.116 A 
ATOM     13  F   UNL d   1      30.485 -16.536  -7.122  0.00  0.00    -0.206 F 
ATOM     14  C   UNL d   1      29.921 -16.494  -4.821  0.00  0.00     0.044 A 
ATOM     15  C   UNL d   1      29.164 -15.945  -3.762  0.00  0.00     0.032 A 
ENDBRANCH   7   9
ENDBRANCH   5   7
ENDBRANCH   3   5
BRANCH   2  16
ATOM     16  C   UNL d   1      24.308 -16.897  -1.078  0.00  0.00     0.035 A 
ATOM     17  C   UNL d   1      24.776 -18.139  -0.559  0.00  0.00     0.020 A 
ATOM     18  C   UNL d   1      23.891 -19.139  -0.143  0.00  0.00     0.041 A 
ATOM     19  C   UNL d   1      22.549 -18.884  -0.289  0.00  0.00     0.105 A 
ATOM     20  C   UNL d   1      22.090 -17.704  -0.839  0.00  0.00     0.106 A 
ATOM     21  O   UNL d   1      21.540 -19.727   0.057  0.00  0.00    -0.323 OA
ATOM     22  C   UNL d   1      22.939 -16.688  -1.249  0.00  0.00     0.056 A 
ATOM     23  O   UNL d   1      20.731 -17.682  -0.932  0.00  0.00    -0.323 OA
ATOM     24  C   UNL d   1      20.396 -18.991  -0.418  0.00  0.00     0.352 A 
ENDBRANCH   2  16
TORSDOF 4
ENDMDL
MODEL 9
REMARK VINA RESULT:    -6.118      5.028      5.986
REMARK INTER + INTRA:          -8.339
REMARK INTER:                  -7.311
REMARK INTRA:                  -1.028
REMARK CONF_INDEPENDENT:        1.193
REMARK UNBOUND:                -1.028
REMARK  4 active torsions:
REMARK  status: ('A' for Active; 'I' for Inactive)
REMARK       I    between atoms: C_2  and  N_3 
REMARK    1  A    between atoms: C_2  and  C_14 
REMARK    2  A    between atoms: N_3  and  C_4 
REMARK    3  A    between atoms: C_4  and  N_6 
REMARK    4  A    between atoms: N_6  and  C_7 
ROOT
ATOM      1  O   UNL d   1      24.323 -14.075  -4.206  0.00  0.00    -0.267 OA
ATOM      2  C   UNL d   1      25.378 -14.224  -3.578  0.00  0.00     0.257 C 
ATOM      3  N   UNL d   1      26.582 -13.524  -3.810  0.00  0.00    -0.299 N 
ATOM      4  H   UNL d   1      27.368 -13.763  -3.219  0.00  0.00     0.171 HD
ENDROOT
BRANCH   3   5
ATOM      5  C   UNL d   1      26.799 -12.621  -4.883  0.00  0.00     0.179 C 
ATOM      6  S   UNL d   1      28.305 -12.470  -5.648  0.00  0.00    -0.040 SA
BRANCH   5   7
ATOM      7  N   UNL d   1      25.668 -11.834  -5.244  0.00  0.00    -0.333 N 
ATOM      8  H   UNL d   1      24.779 -12.295  -5.395  0.00  0.00     0.168 HD
BRANCH   7   9
ATOM      9  C   UNL d   1      25.584 -10.416  -4.964  0.00  0.00     0.034 A 
ATOM     10  C   UNL d   1      25.887  -9.935  -3.678  0.00  0.00     0.032 A 
ATOM     11  C   UNL d   1      25.656  -8.607  -3.311  0.00  0.00     0.044 A 
ATOM     12  C   UNL d   1      25.186  -7.717  -4.258  0.00  0.00     0.116 A 
ATOM     13  F   UNL d   1      24.969  -6.441  -3.912  0.00  0.00    -0.206 F 
ATOM     14  C   UNL d   1      24.950  -8.139  -5.564  0.00  0.00     0.044 A 
ATOM     15  C   UNL d   1      25.157  -9.489  -5.926  0.00  0.00     0.032 A 
ENDBRANCH   7   9
ENDBRANCH   5   7
ENDBRANCH   3   5
BRANCH   2  16
ATOM     16  C   UNL d   1      25.262 -15.242  -2.510  0.00  0.00     0.035 A 
ATOM     17  C   UNL d   1      26.453 -15.934  -2.141  0.00  0.00     0.020 A 
ATOM     18  C   UNL d   1      26.430 -16.992  -1.228  0.00  0.00     0.041 A 
ATOM     19  C   UNL d   1      25.204 -17.358  -0.727  0.00  0.00     0.105 A 
ATOM     20  C   UNL d   1      24.042 -16.726  -1.119  0.00  0.00     0.106 A 
ATOM     21  O   UNL d   1      24.981 -18.356   0.168  0.00  0.00    -0.323 OA
ATOM     22  C   UNL d   1      24.030 -15.666  -2.013  0.00  0.00     0.056 A 
ATOM     23  O   UNL d   1      22.942 -17.279  -0.537  0.00  0.00    -0.323 OA
ATOM     24  C   UNL d   1      23.541 -18.348   0.230  0.00  0.00     0.352 A 
ENDBRANCH   2  16
TORSDOF 4
ENDMDL
