MODEL 1
REMARK VINA RESULT:    -8.128      0.000      0.000
REMARK INTER + INTRA:         -11.559
REMARK INTER:                  -9.917
REMARK INTRA:                  -1.642
REMARK CONF_INDEPENDENT:        1.790
REMARK UNBOUND:                -1.642
REMARK  6 active torsions:
REMARK  status: ('A' for Active; 'I' for Inactive)
REMARK    1  A    between atoms: C_13  and  N_14 
REMARK    2  A    between atoms: N_17  and  C_18 
REMARK    3  A    between atoms: C_27  and  N_28 
REMARK    4  A    between atoms: N_28  and  C_29 
REMARK    5  A    between atoms: C_29  and  C_30 
REMARK    6  A    between atoms: C_30  and  O_31 
ROOT
ATOM      1  O   UNL d   1      27.434 -17.931  -0.150  0.00  0.00    -0.286 OA
ATOM      2  C   UNL d   1      26.783 -17.217  -0.873  0.00  0.00     0.196 A 
ATOM      3  C   UNL d   1      25.338 -17.351  -0.656  0.00  0.00     0.028 A 
ATOM      4  C   UNL d   1      24.954 -18.291   0.305  0.00  0.00     0.016 A 
ATOM      5  C   UNL d   1      23.620 -18.473   0.567  0.00  0.00     0.001 A 
ATOM      6  C   UNL d   1      22.687 -17.714  -0.138  0.00  0.00     0.001 A 
ATOM      7  C   UNL d   1      23.077 -16.764  -1.109  0.00  0.00     0.015 A 
ATOM      8  C   UNL d   1      24.424 -16.573  -1.379  0.00  0.00     0.015 A 
ATOM      9  C   UNL d   1      25.028 -15.674  -2.337  0.00  0.00     0.126 A 
ATOM     10  O   UNL d   1      24.345 -14.827  -3.141  0.00  0.00    -0.211 OA
ATOM     11  N   UNL d   1      25.263 -14.139  -3.954  0.00  0.00    -0.125 NA
ATOM     12  C   UNL d   1      26.503 -14.591  -3.631  0.00  0.00     0.125 A 
ATOM     13  C   UNL d   1      27.803 -14.263  -4.128  0.00  0.00     0.064 A 
ATOM     14  C   UNL d   1      28.827 -14.980  -3.412  0.00  0.00     0.062 A 
ATOM     15  C   UNL d   1      28.631 -15.959  -2.335  0.00  0.00     0.045 A 
ATOM     16  C   UNL d   1      27.307 -16.271  -1.908  0.00  0.00     0.057 A 
ATOM     17  C   UNL d   1      26.356 -15.540  -2.598  0.00  0.00     0.051 A 
ENDROOT
BRANCH  13  18
ATOM     18  N   UNL d   1      28.072 -13.266  -5.039  0.00  0.00    -0.376 N 
ATOM     19  C   UNL d   1      27.555 -11.899  -5.085  0.00  0.00     0.150 C 
ATOM     20  C   UNL d   1      26.979 -11.615  -6.497  0.00  0.00     0.255 C 
ATOM     21  N   UNL d   1      27.990 -11.979  -7.632  0.00  0.00    -0.064 N 
ATOM     22  C   UNL d   1      28.797 -13.270  -7.300  0.00  0.00     0.255 C 
ATOM     23  H   UNL d   1      28.707 -11.244  -7.608  0.00  0.00     0.280 HD
ATOM     24  C   UNL d   1      29.236 -13.455  -5.868  0.00  0.00     0.150 C 
BRANCH  21  25
ATOM     25  C   UNL d   1      27.346 -11.823  -9.065  0.00  0.00     0.188 C 
ATOM     26  C   UNL d   1      26.835 -10.393  -9.306  0.00  0.00     0.033 C 
ATOM     27  C   UNL d   1      27.973  -9.390  -9.394  0.00  0.00     0.002 C 
ATOM     28  C   UNL d   1      29.144  -9.856 -10.268  0.00  0.00     0.000 C 
ATOM     29  C   UNL d   1      29.525 -11.351 -10.241  0.00  0.00     0.002 C 
ATOM     30  C   UNL d   1      28.294 -12.231 -10.205  0.00  0.00     0.033 C 
ENDBRANCH  21  25
ENDBRANCH  13  18
BRANCH  15  31
ATOM     31  N   UNL d   1      29.801 -16.476  -1.749  0.00  0.00    -0.387 N 
ATOM     32  H   UNL d   1      30.238 -17.307  -2.119  0.00  0.00     0.159 HD
BRANCH  31  33
ATOM     33  C   UNL d   1      30.242 -16.031  -0.431  0.00  0.00     0.146 C 
BRANCH  33  34
ATOM     34  C   UNL d   1      31.064 -16.981   0.411  0.00  0.00     0.183 C 
BRANCH  34  35
ATOM     35  O   UNL d   1      31.087 -18.285  -0.182  0.00  0.00    -0.399 OA
ATOM     36  H   UNL d   1      30.808 -18.938   0.488  0.00  0.00     0.209 HD
ENDBRANCH  34  35
ENDBRANCH  33  34
ENDBRANCH  31  33
ENDBRANCH  15  31
TORSDOF 6
ENDMDL
MODEL 2
REMARK VINA RESULT:    -8.092      7.508     10.108
REMARK INTER + INTRA:         -11.467
REMARK INTER:                  -9.882
REMARK INTRA:                  -1.585
REMARK CONF_INDEPENDENT:        1.790
REMARK UNBOUND:                -1.585
REMARK  6 active torsions:
REMARK  status: ('A' for Active; 'I' for Inactive)
REMARK    1  A    between atoms: C_13  and  N_14 
REMARK    2  A    between atoms: N_17  and  C_18 
REMARK    3  A    between atoms: C_27  and  N_28 
REMARK    4  A    between atoms: N_28  and  C_29 
REMARK    5  A    between atoms: C_29  and  C_30 
REMARK    6  A    between atoms: C_30  and  O_31 
ROOT
ATOM      1  O   UNL d   1      28.600 -10.309   8.486  0.00  0.00    -0.286 OA
ATOM      2  C   UNL d   1      28.621 -11.371   7.915  0.00  0.00     0.196 A 
ATOM      3  C   UNL d   1      28.765 -12.509   8.831  0.00  0.00     0.028 A 
ATOM      4  C   UNL d   1      28.891 -12.184  10.185  0.00  0.00     0.016 A 
ATOM      5  C   UNL d   1      29.026 -13.192  11.106  0.00  0.00     0.001 A 
ATOM      6  C   UNL d   1      29.037 -14.513  10.658  0.00  0.00     0.001 A 
ATOM      7  C   UNL d   1      28.911 -14.839   9.289  0.00  0.00     0.015 A 
ATOM      8  C   UNL d   1      28.772 -13.826   8.353  0.00  0.00     0.015 A 
ATOM      9  C   UNL d   1      28.647 -13.942   6.917  0.00  0.00     0.126 A 
ATOM     10  O   UNL d   1      28.626 -15.110   6.234  0.00  0.00    -0.211 OA
ATOM     11  N   UNL d   1      28.524 -14.826   4.861  0.00  0.00    -0.125 NA
ATOM     12  C   UNL d   1      28.493 -13.475   4.730  0.00  0.00     0.125 A 
ATOM     13  C   UNL d   1      28.405 -12.623   3.585  0.00  0.00     0.064 A 
ATOM     14  C   UNL d   1      28.343 -11.237   3.973  0.00  0.00     0.062 A 
ATOM     15  C   UNL d   1      28.398 -10.700   5.339  0.00  0.00     0.045 A 
ATOM     16  C   UNL d   1      28.521 -11.599   6.438  0.00  0.00     0.057 A 
ATOM     17  C   UNL d   1      28.547 -12.920   6.025  0.00  0.00     0.051 A 
ENDROOT
BRANCH  13  18
ATOM     18  N   UNL d   1      28.220 -13.056   2.291  0.00  0.00    -0.376 N 
ATOM     19  C   UNL d   1      27.044 -12.913   1.433  0.00  0.00     0.150 C 
ATOM     20  C   UNL d   1      26.655 -14.301   0.859  0.00  0.00     0.255 C 
ATOM     21  N   UNL d   1      27.870 -15.031   0.201  0.00  0.00    -0.064 N 
ATOM     22  C   UNL d   1      29.190 -14.792   0.994  0.00  0.00     0.255 C 
ATOM     23  H   UNL d   1      28.038 -14.540  -0.685  0.00  0.00     0.280 HD
ATOM     24  C   UNL d   1      29.410 -13.410   1.559  0.00  0.00     0.150 C 
BRANCH  21  25
ATOM     25  C   UNL d   1      27.499 -16.497  -0.249  0.00  0.00     0.188 C 
ATOM     26  C   UNL d   1      25.986 -16.756  -0.157  0.00  0.00     0.033 C 
ATOM     27  C   UNL d   1      25.207 -15.938  -1.175  0.00  0.00     0.002 C 
ATOM     28  C   UNL d   1      25.821 -15.952  -2.581  0.00  0.00     0.000 C 
ATOM     29  C   UNL d   1      27.359 -15.950  -2.706  0.00  0.00     0.002 C 
ATOM     30  C   UNL d   1      27.996 -16.843  -1.663  0.00  0.00     0.033 C 
ENDBRANCH  21  25
ENDBRANCH  13  18
BRANCH  15  31
ATOM     31  N   UNL d   1      28.252  -9.305   5.461  0.00  0.00    -0.387 N 
ATOM     32  H   UNL d   1      27.821  -8.904   6.281  0.00  0.00     0.159 HD
BRANCH  31  33
ATOM     33  C   UNL d   1      28.423  -8.427   4.309  0.00  0.00     0.146 C 
BRANCH  33  34
ATOM     34  C   UNL d   1      27.785  -7.056   4.348  0.00  0.00     0.183 C 
BRANCH  34  35
ATOM     35  O   UNL d   1      27.030  -6.889   5.554  0.00  0.00    -0.399 OA
ATOM     36  H   UNL d   1      26.768  -7.770   5.884  0.00  0.00     0.209 HD
ENDBRANCH  34  35
ENDBRANCH  33  34
ENDBRANCH  31  33
ENDBRANCH  15  31
TORSDOF 6
ENDMDL
MODEL 3
REMARK VINA RESULT:    -7.944      1.631      2.429
REMARK INTER + INTRA:         -11.312
REMARK INTER:                  -9.734
REMARK INTRA:                  -1.579
REMARK CONF_INDEPENDENT:        1.790
REMARK UNBOUND:                -1.579
REMARK  6 active torsions:
REMARK  status: ('A' for Active; 'I' for Inactive)
REMARK    1  A    between atoms: C_13  and  N_14 
REMARK    2  A    between atoms: N_17  and  C_18 
REMARK    3  A    between atoms: C_27  and  N_28 
REMARK    4  A    between atoms: N_28  and  C_29 
REMARK    5  A    between atoms: C_29  and  C_30 
REMARK    6  A    between atoms: C_30  and  O_31 
ROOT
ATOM      1  O   UNL d   1      26.783 -18.407   0.533  0.00  0.00    -0.286 OA
ATOM      2  C   UNL d   1      26.361 -17.678  -0.331  0.00  0.00     0.196 A 
ATOM      3  C   UNL d   1      24.894 -17.640  -0.379  0.00  0.00     0.028 A 
ATOM      4  C   UNL d   1      24.237 -18.466   0.538  0.00  0.00     0.016 A 
ATOM      5  C   UNL d   1      22.865 -18.484   0.558  0.00  0.00     0.001 A 
ATOM      6  C   UNL d   1      22.169 -17.678  -0.342  0.00  0.00     0.001 A 
ATOM      7  C   UNL d   1      22.836 -16.845  -1.269  0.00  0.00     0.015 A 
ATOM      8  C   UNL d   1      24.222 -16.820  -1.294  0.00  0.00     0.015 A 
ATOM      9  C   UNL d   1      25.090 -16.059  -2.166  0.00  0.00     0.126 A 
ATOM     10  O   UNL d   1      24.666 -15.200  -3.122  0.00  0.00    -0.211 OA
ATOM     11  N   UNL d   1      25.790 -14.673  -3.783  0.00  0.00    -0.125 NA
ATOM     12  C   UNL d   1      26.889 -15.233  -3.216  0.00  0.00     0.125 A 
ATOM     13  C   UNL d   1      28.287 -15.082  -3.479  0.00  0.00     0.064 A 
ATOM     14  C   UNL d   1      29.075 -15.854  -2.553  0.00  0.00     0.062 A 
ATOM     15  C   UNL d   1      28.575 -16.731  -1.485  0.00  0.00     0.045 A 
ATOM     16  C   UNL d   1      27.169 -16.867  -1.295  0.00  0.00     0.057 A 
ATOM     17  C   UNL d   1      26.450 -16.087  -2.184  0.00  0.00     0.051 A 
ENDROOT
BRANCH  13  18
ATOM     18  N   UNL d   1      28.830 -14.184  -4.371  0.00  0.00    -0.376 N 
ATOM     19  C   UNL d   1      29.983 -13.301  -4.200  0.00  0.00     0.150 C 
ATOM     20  C   UNL d   1      29.579 -11.851  -4.574  0.00  0.00     0.255 C 
ATOM     21  N   UNL d   1      28.886 -11.772  -5.973  0.00  0.00    -0.064 N 
ATOM     22  C   UNL d   1      27.954 -12.995  -6.230  0.00  0.00     0.255 C 
ATOM     23  H   UNL d   1      29.638 -11.905  -6.660  0.00  0.00     0.280 HD
ATOM     24  C   UNL d   1      28.441 -14.341  -5.750  0.00  0.00     0.150 C 
BRANCH  21  25
ATOM     25  C   UNL d   1      28.350 -10.320  -6.282  0.00  0.00     0.188 C 
ATOM     26  C   UNL d   1      27.098 -10.355  -7.176  0.00  0.00     0.033 C 
ATOM     27  C   UNL d   1      25.902 -10.954  -6.455  0.00  0.00     0.002 C 
ATOM     28  C   UNL d   1      25.711 -10.427  -5.027  0.00  0.00     0.000 C 
ATOM     29  C   UNL d   1      26.969 -10.138  -4.181  0.00  0.00     0.002 C 
ATOM     30  C   UNL d   1      28.057  -9.498  -5.016  0.00  0.00     0.033 C 
ENDBRANCH  21  25
ENDBRANCH  13  18
BRANCH  15  31
ATOM     31  N   UNL d   1      29.553 -17.329  -0.669  0.00  0.00    -0.387 N 
ATOM     32  H   UNL d   1      29.288 -17.978   0.058  0.00  0.00     0.159 HD
BRANCH  31  33
ATOM     33  C   UNL d   1      30.918 -16.816  -0.629  0.00  0.00     0.146 C 
BRANCH  33  34
ATOM     34  C   UNL d   1      32.036 -17.771  -0.277  0.00  0.00     0.183 C 
BRANCH  34  35
ATOM     35  O   UNL d   1      31.523 -19.096  -0.087  0.00  0.00    -0.399 OA
ATOM     36  H   UNL d   1      30.834 -19.068   0.604  0.00  0.00     0.209 HD
ENDBRANCH  34  35
ENDBRANCH  33  34
ENDBRANCH  31  33
ENDBRANCH  15  31
TORSDOF 6
ENDMDL
MODEL 4
REMARK VINA RESULT:    -7.904      4.108      9.252
REMARK INTER + INTRA:         -11.555
REMARK INTER:                  -9.694
REMARK INTRA:                  -1.861
REMARK CONF_INDEPENDENT:        1.790
REMARK UNBOUND:                -1.861
REMARK  6 active torsions:
REMARK  status: ('A' for Active; 'I' for Inactive)
REMARK    1  A    between atoms: C_13  and  N_14 
REMARK    2  A    between atoms: N_17  and  C_18 
REMARK    3  A    between atoms: C_27  and  N_28 
REMARK    4  A    between atoms: N_28  and  C_29 
REMARK    5  A    between atoms: C_29  and  C_30 
REMARK    6  A    between atoms: C_30  and  O_31 
ROOT
ATOM      1  O   UNL d   1      29.991 -15.719  -6.997  0.00  0.00    -0.286 OA
ATOM      2  C   UNL d   1      30.175 -16.470  -6.072  0.00  0.00     0.196 A 
ATOM      3  C   UNL d   1      30.755 -17.754  -6.486  0.00  0.00     0.028 A 
ATOM      4  C   UNL d   1      30.961 -17.910  -7.860  0.00  0.00     0.016 A 
ATOM      5  C   UNL d   1      31.503 -19.080  -8.327  0.00  0.00     0.001 A 
ATOM      6  C   UNL d   1      31.830 -20.081  -7.411  0.00  0.00     0.001 A 
ATOM      7  C   UNL d   1      31.620 -19.922  -6.023  0.00  0.00     0.015 A 
ATOM      8  C   UNL d   1      31.074 -18.740  -5.544  0.00  0.00     0.015 A 
ATOM      9  C   UNL d   1      30.765 -18.385  -4.176  0.00  0.00     0.126 A 
ATOM     10  O   UNL d   1      30.989 -19.176  -3.101  0.00  0.00    -0.211 OA
ATOM     11  N   UNL d   1      30.535 -18.509  -1.950  0.00  0.00    -0.125 NA
ATOM     12  C   UNL d   1      30.030 -17.313  -2.350  0.00  0.00     0.125 A 
ATOM     13  C   UNL d   1      29.431 -16.234  -1.628  0.00  0.00     0.064 A 
ATOM     14  C   UNL d   1      29.107 -15.139  -2.505  0.00  0.00     0.062 A 
ATOM     15  C   UNL d   1      29.301 -15.087  -3.960  0.00  0.00     0.045 A 
ATOM     16  C   UNL d   1      29.872 -16.209  -4.629  0.00  0.00     0.057 A 
ATOM     17  C   UNL d   1      30.196 -17.226  -3.748  0.00  0.00     0.051 A 
ENDROOT
BRANCH  13  18
ATOM     18  N   UNL d   1      29.336 -16.159  -0.256  0.00  0.00    -0.376 N 
ATOM     19  C   UNL d   1      28.172 -16.394   0.599  0.00  0.00     0.150 C 
ATOM     20  C   UNL d   1      27.983 -15.185   1.552  0.00  0.00     0.255 C 
ATOM     21  N   UNL d   1      29.300 -14.818   2.311  0.00  0.00    -0.064 N 
ATOM     22  C   UNL d   1      30.558 -14.983   1.406  0.00  0.00     0.255 C 
ATOM     23  H   UNL d   1      29.423 -15.553   3.018  0.00  0.00     0.280 HD
ATOM     24  C   UNL d   1      30.579 -16.169   0.472  0.00  0.00     0.150 C 
BRANCH  21  25
ATOM     25  C   UNL d   1      29.137 -13.502   3.166  0.00  0.00     0.188 C 
ATOM     26  C   UNL d   1      27.711 -13.359   3.725  0.00  0.00     0.033 C 
ATOM     27  C   UNL d   1      27.402 -14.419   4.770  0.00  0.00     0.002 C 
ATOM     28  C   UNL d   1      28.523 -14.624   5.796  0.00  0.00     0.000 C 
ATOM     29  C   UNL d   1      29.985 -14.520   5.310  0.00  0.00     0.002 C 
ATOM     30  C   UNL d   1      30.154 -13.393   4.314  0.00  0.00     0.033 C 
ENDBRANCH  21  25
ENDBRANCH  13  18
BRANCH  15  31
ATOM     31  N   UNL d   1      28.962 -13.873  -4.586  0.00  0.00    -0.387 N 
ATOM     32  H   UNL d   1      29.655 -13.151  -4.717  0.00  0.00     0.159 HD
BRANCH  31  33
ATOM     33  C   UNL d   1      27.568 -13.491  -4.783  0.00  0.00     0.146 C 
BRANCH  33  34
ATOM     34  C   UNL d   1      26.551 -14.582  -5.033  0.00  0.00     0.183 C 
BRANCH  34  35
ATOM     35  O   UNL d   1      27.089 -15.575  -5.916  0.00  0.00    -0.399 OA
ATOM     36  H   UNL d   1      27.985 -15.300  -6.187  0.00  0.00     0.209 HD
ENDBRANCH  34  35
ENDBRANCH  33  34
ENDBRANCH  31  33
ENDBRANCH  15  31
TORSDOF 6
ENDMDL
MODEL 5
REMARK VINA RESULT:    -7.649      6.460      9.588
REMARK INTER + INTRA:         -11.326
REMARK INTER:                  -9.439
REMARK INTRA:                  -1.888
REMARK CONF_INDEPENDENT:        1.790
REMARK UNBOUND:                -1.888
REMARK  6 active torsions:
REMARK  status: ('A' for Active; 'I' for Inactive)
REMARK    1  A    between atoms: C_13  and  N_14 
REMARK    2  A    between atoms: N_17  and  C_18 
REMARK    3  A    between atoms: C_27  and  N_28 
REMARK    4  A    between atoms: N_28  and  C_29 
REMARK    5  A    between atoms: C_29  and  C_30 
REMARK    6  A    between atoms: C_30  and  O_31 
ROOT
ATOM      1  O   UNL d   1      26.280  -7.164   3.230  0.00  0.00    -0.286 OA
ATOM      2  C   UNL d   1      26.454  -7.903   2.292  0.00  0.00     0.196 A 
ATOM      3  C   UNL d   1      26.065  -7.301   1.011  0.00  0.00     0.028 A 
ATOM      4  C   UNL d   1      25.531  -6.011   1.086  0.00  0.00     0.016 A 
ATOM      5  C   UNL d   1      25.146  -5.378  -0.069  0.00  0.00     0.001 A 
ATOM      6  C   UNL d   1      25.297  -6.046  -1.283  0.00  0.00     0.001 A 
ATOM      7  C   UNL d   1      25.835  -7.351  -1.357  0.00  0.00     0.015 A 
ATOM      8  C   UNL d   1      26.229  -7.996  -0.194  0.00  0.00     0.015 A 
ATOM      9  C   UNL d   1      26.782  -9.325  -0.049  0.00  0.00     0.126 A 
ATOM     10  O   UNL d   1      27.032 -10.175  -1.071  0.00  0.00    -0.211 OA
ATOM     11  N   UNL d   1      27.536 -11.377  -0.543  0.00  0.00    -0.125 NA
ATOM     12  C   UNL d   1      27.577 -11.237   0.807  0.00  0.00     0.125 A 
ATOM     13  C   UNL d   1      27.987 -12.124   1.852  0.00  0.00     0.064 A 
ATOM     14  C   UNL d   1      27.901 -11.484   3.139  0.00  0.00     0.062 A 
ATOM     15  C   UNL d   1      27.427 -10.122   3.418  0.00  0.00     0.045 A 
ATOM     16  C   UNL d   1      26.997  -9.298   2.336  0.00  0.00     0.057 A 
ATOM     17  C   UNL d   1      27.124  -9.938   1.116  0.00  0.00     0.051 A 
ENDROOT
BRANCH  13  18
ATOM     18  N   UNL d   1      28.562 -13.361   1.657  0.00  0.00    -0.376 N 
ATOM     19  C   UNL d   1      29.787 -13.701   0.936  0.00  0.00     0.150 C 
ATOM     20  C   UNL d   1      29.485 -14.826  -0.088  0.00  0.00     0.255 C 
ATOM     21  N   UNL d   1      28.742 -16.037   0.565  0.00  0.00    -0.064 N 
ATOM     22  C   UNL d   1      27.706 -15.575   1.634  0.00  0.00     0.255 C 
ATOM     23  H   UNL d   1      29.452 -16.525   1.124  0.00  0.00     0.280 HD
ATOM     24  C   UNL d   1      28.104 -14.420   2.520  0.00  0.00     0.150 C 
BRANCH  21  25
ATOM     25  C   UNL d   1      28.311 -17.110  -0.509  0.00  0.00     0.188 C 
ATOM     26  C   UNL d   1      27.413 -18.198   0.104  0.00  0.00     0.033 C 
ATOM     27  C   UNL d   1      26.058 -17.649   0.520  0.00  0.00     0.002 C 
ATOM     28  C   UNL d   1      25.411 -16.736  -0.529  0.00  0.00     0.000 C 
ATOM     29  C   UNL d   1      26.326 -15.802  -1.349  0.00  0.00     0.002 C 
ATOM     30  C   UNL d   1      27.614 -16.497  -1.735  0.00  0.00     0.033 C 
ENDBRANCH  21  25
ENDBRANCH  13  18
BRANCH  15  31
ATOM     31  N   UNL d   1      27.501  -9.704   4.759  0.00  0.00    -0.387 N 
ATOM     32  H   UNL d   1      26.671  -9.668   5.333  0.00  0.00     0.159 HD
BRANCH  31  33
ATOM     33  C   UNL d   1      28.686  -9.024   5.272  0.00  0.00     0.146 C 
BRANCH  33  34
ATOM     34  C   UNL d   1      28.499  -7.744   6.055  0.00  0.00     0.183 C 
BRANCH  34  35
ATOM     35  O   UNL d   1      27.204  -7.185   5.800  0.00  0.00    -0.399 OA
ATOM     36  H   UNL d   1      26.669  -7.842   5.318  0.00  0.00     0.209 HD
ENDBRANCH  34  35
ENDBRANCH  33  34
ENDBRANCH  31  33
ENDBRANCH  15  31
TORSDOF 6
ENDMDL
MODEL 6
REMARK VINA RESULT:    -7.280      1.888      2.407
REMARK INTER + INTRA:         -10.762
REMARK INTER:                  -9.070
REMARK INTRA:                  -1.692
REMARK CONF_INDEPENDENT:        1.790
REMARK UNBOUND:                -1.692
REMARK  6 active torsions:
REMARK  status: ('A' for Active; 'I' for Inactive)
REMARK    1  A    between atoms: C_13  and  N_14 
REMARK    2  A    between atoms: N_17  and  C_18 
REMARK    3  A    between atoms: C_27  and  N_28 
REMARK    4  A    between atoms: N_28  and  C_29 
REMARK    5  A    between atoms: C_29  and  C_30 
REMARK    6  A    between atoms: C_30  and  O_31 
ROOT
ATOM      1  O   UNL d   1      27.159 -18.199   0.227  0.00  0.00    -0.286 OA
ATOM      2  C   UNL d   1      26.674 -17.484  -0.615  0.00  0.00     0.196 A 
ATOM      3  C   UNL d   1      25.209 -17.420  -0.534  0.00  0.00     0.028 A 
ATOM      4  C   UNL d   1      24.623 -18.209   0.460  0.00  0.00     0.016 A 
ATOM      5  C   UNL d   1      23.258 -18.201   0.602  0.00  0.00     0.001 A 
ATOM      6  C   UNL d   1      22.499 -17.405  -0.255  0.00  0.00     0.001 A 
ATOM      7  C   UNL d   1      23.093 -16.608  -1.259  0.00  0.00     0.015 A 
ATOM      8  C   UNL d   1      24.473 -16.610  -1.407  0.00  0.00     0.015 A 
ATOM      9  C   UNL d   1      25.271 -15.888  -2.373  0.00  0.00     0.126 A 
ATOM     10  O   UNL d   1      24.779 -15.045  -3.310  0.00  0.00    -0.211 OA
ATOM     11  N   UNL d   1      25.848 -14.557  -4.082  0.00  0.00    -0.125 NA
ATOM     12  C   UNL d   1      26.984 -15.123  -3.599  0.00  0.00     0.125 A 
ATOM     13  C   UNL d   1      28.355 -15.005  -3.989  0.00  0.00     0.064 A 
ATOM     14  C   UNL d   1      29.209 -15.769  -3.117  0.00  0.00     0.062 A 
ATOM     15  C   UNL d   1      28.792 -16.608  -1.986  0.00  0.00     0.045 A 
ATOM     16  C   UNL d   1      27.406 -16.713  -1.668  0.00  0.00     0.057 A 
ATOM     17  C   UNL d   1      26.624 -15.942  -2.510  0.00  0.00     0.051 A 
ENDROOT
BRANCH  13  18
ATOM     18  N   UNL d   1      28.831 -14.141  -4.950  0.00  0.00    -0.376 N 
ATOM     19  C   UNL d   1      28.456 -14.037  -6.360  0.00  0.00     0.150 C 
ATOM     20  C   UNL d   1      29.735 -14.078  -7.236  0.00  0.00     0.255 C 
ATOM     21  N   UNL d   1      30.812 -13.050  -6.760  0.00  0.00    -0.064 N 
ATOM     22  C   UNL d   1      30.864 -12.940  -5.206  0.00  0.00     0.255 C 
ATOM     23  H   UNL d   1      30.459 -12.129  -7.046  0.00  0.00     0.280 HD
ATOM     24  C   UNL d   1      29.545 -12.985  -4.472  0.00  0.00     0.150 C 
BRANCH  21  25
ATOM     25  C   UNL d   1      32.162 -13.198  -7.564  0.00  0.00     0.188 C 
ATOM     26  C   UNL d   1      31.914 -13.651  -9.013  0.00  0.00     0.033 C 
ATOM     27  C   UNL d   1      31.210 -12.579  -9.830  0.00  0.00     0.002 C 
ATOM     28  C   UNL d   1      31.793 -11.173  -9.641  0.00  0.00     0.000 C 
ATOM     29  C   UNL d   1      32.291 -10.772  -8.236  0.00  0.00     0.002 C 
ATOM     30  C   UNL d   1      33.014 -11.919  -7.562  0.00  0.00     0.033 C 
ENDBRANCH  21  25
ENDBRANCH  13  18
BRANCH  15  31
ATOM     31  N   UNL d   1      29.828 -17.205  -1.243  0.00  0.00    -0.387 N 
ATOM     32  H   UNL d   1      29.633 -17.664  -0.366  0.00  0.00     0.159 HD
BRANCH  31  33
ATOM     33  C   UNL d   1      31.228 -16.921  -1.542  0.00  0.00     0.146 C 
BRANCH  33  34
ATOM     34  C   UNL d   1      32.269 -17.256  -0.497  0.00  0.00     0.183 C 
BRANCH  34  35
ATOM     35  O   UNL d   1      31.667 -17.942   0.608  0.00  0.00    -0.399 OA
ATOM     36  H   UNL d   1      30.730 -18.113   0.398  0.00  0.00     0.209 HD
ENDBRANCH  34  35
ENDBRANCH  33  34
ENDBRANCH  31  33
ENDBRANCH  15  31
TORSDOF 6
ENDMDL
MODEL 7
REMARK VINA RESULT:    -7.222      1.238      1.952
REMARK INTER + INTRA:         -11.014
REMARK INTER:                  -9.011
REMARK INTRA:                  -2.003
REMARK CONF_INDEPENDENT:        1.790
REMARK UNBOUND:                -2.003
REMARK  6 active torsions:
REMARK  status: ('A' for Active; 'I' for Inactive)
REMARK    1  A    between atoms: C_13  and  N_14 
REMARK    2  A    between atoms: N_17  and  C_18 
REMARK    3  A    between atoms: C_27  and  N_28 
REMARK    4  A    between atoms: N_28  and  C_29 
REMARK    5  A    between atoms: C_29  and  C_30 
REMARK    6  A    between atoms: C_30  and  O_31 
ROOT
ATOM      1  O   UNL d   1      27.778 -17.671  -0.531  0.00  0.00    -0.286 OA
ATOM      2  C   UNL d   1      27.059 -17.020  -1.248  0.00  0.00     0.196 A 
ATOM      3  C   UNL d   1      25.640 -17.138  -0.891  0.00  0.00     0.028 A 
ATOM      4  C   UNL d   1      25.352 -17.997   0.174  0.00  0.00     0.016 A 
ATOM      5  C   UNL d   1      24.049 -18.159   0.570  0.00  0.00     0.001 A 
ATOM      6  C   UNL d   1      23.050 -17.460  -0.108  0.00  0.00     0.001 A 
ATOM      7  C   UNL d   1      23.342 -16.593  -1.185  0.00  0.00     0.015 A 
ATOM      8  C   UNL d   1      24.658 -16.423  -1.589  0.00  0.00     0.015 A 
ATOM      9  C   UNL d   1      25.165 -15.605  -2.668  0.00  0.00     0.126 A 
ATOM     10  O   UNL d   1      24.405 -14.827  -3.474  0.00  0.00    -0.211 OA
ATOM     11  N   UNL d   1      25.241 -14.207  -4.419  0.00  0.00    -0.125 NA
ATOM     12  C   UNL d   1      26.508 -14.629  -4.174  0.00  0.00     0.125 A 
ATOM     13  C   UNL d   1      27.756 -14.342  -4.812  0.00  0.00     0.064 A 
ATOM     14  C   UNL d   1      28.846 -14.995  -4.136  0.00  0.00     0.062 A 
ATOM     15  C   UNL d   1      28.756 -15.884  -2.970  0.00  0.00     0.045 A 
ATOM     16  C   UNL d   1      27.479 -16.161  -2.400  0.00  0.00     0.057 A 
ATOM     17  C   UNL d   1      26.463 -15.490  -3.059  0.00  0.00     0.051 A 
ENDROOT
BRANCH  13  18
ATOM     18  N   UNL d   1      27.932 -13.422  -5.822  0.00  0.00    -0.376 N 
ATOM     19  C   UNL d   1      28.595 -13.593  -7.114  0.00  0.00     0.150 C 
ATOM     20  C   UNL d   1      29.643 -12.465  -7.307  0.00  0.00     0.255 C 
ATOM     21  N   UNL d   1      29.038 -11.047  -7.055  0.00  0.00    -0.064 N 
ATOM     22  C   UNL d   1      28.018 -11.050  -5.877  0.00  0.00     0.255 C 
ATOM     23  H   UNL d   1      28.449 -10.849  -7.873  0.00  0.00     0.280 HD
ATOM     24  C   UNL d   1      27.103 -12.245  -5.767  0.00  0.00     0.150 C 
BRANCH  21  25
ATOM     25  C   UNL d   1      30.142  -9.919  -7.111  0.00  0.00     0.188 C 
ATOM     26  C   UNL d   1      30.789  -9.826  -8.504  0.00  0.00     0.033 C 
ATOM     27  C   UNL d   1      29.810  -9.320  -9.551  0.00  0.00     0.002 C 
ATOM     28  C   UNL d   1      28.985  -8.111  -9.096  0.00  0.00     0.000 C 
ATOM     29  C   UNL d   1      28.530  -8.051  -7.622  0.00  0.00     0.002 C 
ATOM     30  C   UNL d   1      29.620  -8.536  -6.691  0.00  0.00     0.033 C 
ENDBRANCH  21  25
ENDBRANCH  13  18
BRANCH  15  31
ATOM     31  N   UNL d   1      29.979 -16.349  -2.451  0.00  0.00    -0.387 N 
ATOM     32  H   UNL d   1      30.453 -17.133  -2.876  0.00  0.00     0.159 HD
BRANCH  31  33
ATOM     33  C   UNL d   1      30.443 -15.936  -1.130  0.00  0.00     0.146 C 
BRANCH  33  34
ATOM     34  C   UNL d   1      30.959 -16.997  -0.185  0.00  0.00     0.183 C 
BRANCH  34  35
ATOM     35  O   UNL d   1      30.515 -18.296  -0.597  0.00  0.00    -0.399 OA
ATOM     36  H   UNL d   1      29.730 -18.539  -0.071  0.00  0.00     0.209 HD
ENDBRANCH  34  35
ENDBRANCH  33  34
ENDBRANCH  31  33
ENDBRANCH  15  31
TORSDOF 6
ENDMDL
MODEL 8
REMARK VINA RESULT:    -7.078      9.344     12.307
REMARK INTER + INTRA:         -10.784
REMARK INTER:                  -8.868
REMARK INTRA:                  -1.917
REMARK CONF_INDEPENDENT:        1.790
REMARK UNBOUND:                -1.917
REMARK  6 active torsions:
REMARK  status: ('A' for Active; 'I' for Inactive)
REMARK    1  A    between atoms: C_13  and  N_14 
REMARK    2  A    between atoms: N_17  and  C_18 
REMARK    3  A    between atoms: C_27  and  N_28 
REMARK    4  A    between atoms: N_28  and  C_29 
REMARK    5  A    between atoms: C_29  and  C_30 
REMARK    6  A    between atoms: C_30  and  O_31 
ROOT
ATOM      1  O   UNL d   1      30.414 -10.553  11.082  0.00  0.00    -0.286 OA
ATOM      2  C   UNL d   1      30.131 -10.403   9.919  0.00  0.00     0.196 A 
ATOM      3  C   UNL d   1      30.030  -8.990   9.534  0.00  0.00     0.028 A 
ATOM      4  C   UNL d   1      30.235  -8.066  10.563  0.00  0.00     0.016 A 
ATOM      5  C   UNL d   1      30.160  -6.725  10.283  0.00  0.00     0.001 A 
ATOM      6  C   UNL d   1      29.878  -6.327   8.977  0.00  0.00     0.001 A 
ATOM      7  C   UNL d   1      29.669  -7.263   7.938  0.00  0.00     0.015 A 
ATOM      8  C   UNL d   1      29.746  -8.620   8.214  0.00  0.00     0.015 A 
ATOM      9  C   UNL d   1      29.550  -9.731   7.308  0.00  0.00     0.126 A 
ATOM     10  O   UNL d   1      29.271  -9.615   5.989  0.00  0.00    -0.211 OA
ATOM     11  N   UNL d   1      29.121 -10.903   5.447  0.00  0.00    -0.125 NA
ATOM     12  C   UNL d   1      29.306 -11.790   6.458  0.00  0.00     0.125 A 
ATOM     13  C   UNL d   1      29.267 -13.219   6.501  0.00  0.00     0.064 A 
ATOM     14  C   UNL d   1      29.595 -13.708   7.815  0.00  0.00     0.062 A 
ATOM     15  C   UNL d   1      29.900 -12.903   9.006  0.00  0.00     0.045 A 
ATOM     16  C   UNL d   1      29.888 -11.480   8.908  0.00  0.00     0.057 A 
ATOM     17  C   UNL d   1      29.599 -11.053   7.624  0.00  0.00     0.051 A 
ENDROOT
BRANCH  13  18
ATOM     18  N   UNL d   1      29.117 -14.038   5.404  0.00  0.00    -0.376 N 
ATOM     19  C   UNL d   1      30.139 -14.771   4.658  0.00  0.00     0.150 C 
ATOM     20  C   UNL d   1      30.002 -14.450   3.147  0.00  0.00     0.255 C 
ATOM     21  N   UNL d   1      28.539 -14.644   2.632  0.00  0.00    -0.064 N 
ATOM     22  C   UNL d   1      27.486 -14.186   3.685  0.00  0.00     0.255 C 
ATOM     23  H   UNL d   1      28.396 -15.660   2.586  0.00  0.00     0.280 HD
ATOM     24  C   UNL d   1      27.780 -14.503   5.131  0.00  0.00     0.150 C 
BRANCH  21  25
ATOM     25  C   UNL d   1      28.378 -14.178   1.132  0.00  0.00     0.188 C 
ATOM     26  C   UNL d   1      29.581 -14.602   0.272  0.00  0.00     0.033 C 
ATOM     27  C   UNL d   1      29.650 -16.110   0.097  0.00  0.00     0.002 C 
ATOM     28  C   UNL d   1      28.303 -16.757  -0.243  0.00  0.00     0.000 C 
ATOM     29  C   UNL d   1      27.030 -16.185   0.416  0.00  0.00     0.002 C 
ATOM     30  C   UNL d   1      27.077 -14.673   0.478  0.00  0.00     0.033 C 
ENDBRANCH  21  25
ENDBRANCH  13  18
BRANCH  15  31
ATOM     31  N   UNL d   1      30.255 -13.620  10.163  0.00  0.00    -0.387 N 
ATOM     32  H   UNL d   1      31.213 -13.894  10.325  0.00  0.00     0.159 HD
BRANCH  31  33
ATOM     33  C   UNL d   1      29.239 -14.255  10.997  0.00  0.00     0.146 C 
BRANCH  33  34
ATOM     34  C   UNL d   1      28.374 -13.375  11.871  0.00  0.00     0.183 C 
BRANCH  34  35
ATOM     35  O   UNL d   1      27.957 -12.208  11.152  0.00  0.00    -0.399 OA
ATOM     36  H   UNL d   1      28.499 -11.450  11.444  0.00  0.00     0.209 HD
ENDBRANCH  34  35
ENDBRANCH  33  34
ENDBRANCH  31  33
ENDBRANCH  15  31
TORSDOF 6
ENDMDL
MODEL 9
REMARK VINA RESULT:    -7.062      4.973      9.771
REMARK INTER + INTRA:         -10.909
REMARK INTER:                  -8.852
REMARK INTRA:                  -2.057
REMARK CONF_INDEPENDENT:        1.790
REMARK UNBOUND:                -2.057
REMARK  6 active torsions:
REMARK  status: ('A' for Active; 'I' for Inactive)
REMARK    1  A    between atoms: C_13  and  N_14 
REMARK    2  A    between atoms: N_17  and  C_18 
REMARK    3  A    between atoms: C_27  and  N_28 
REMARK    4  A    between atoms: N_28  and  C_29 
REMARK    5  A    between atoms: C_29  and  C_30 
REMARK    6  A    between atoms: C_30  and  O_31 
ROOT
ATOM      1  O   UNL d   1      25.669 -15.610  -3.197  0.00  0.00    -0.286 OA
ATOM      2  C   UNL d   1      26.140 -14.739  -2.508  0.00  0.00     0.196 A 
ATOM      3  C   UNL d   1      26.113 -13.422  -3.156  0.00  0.00     0.028 A 
ATOM      4  C   UNL d   1      25.592 -13.396  -4.454  0.00  0.00     0.016 A 
ATOM      5  C   UNL d   1      25.530 -12.202  -5.126  0.00  0.00     0.001 A 
ATOM      6  C   UNL d   1      25.993 -11.050  -4.492  0.00  0.00     0.001 A 
ATOM      7  C   UNL d   1      26.520 -11.078  -3.181  0.00  0.00     0.015 A 
ATOM      8  C   UNL d   1      26.584 -12.281  -2.494  0.00  0.00     0.015 A 
ATOM      9  C   UNL d   1      27.097 -12.529  -1.165  0.00  0.00     0.126 A 
ATOM     10  O   UNL d   1      27.598 -11.581  -0.340  0.00  0.00    -0.211 OA
ATOM     11  N   UNL d   1      28.026 -12.199   0.849  0.00  0.00    -0.125 NA
ATOM     12  C   UNL d   1      27.781 -13.529   0.721  0.00  0.00     0.125 A 
ATOM     13  C   UNL d   1      28.010 -14.636   1.597  0.00  0.00     0.064 A 
ATOM     14  C   UNL d   1      27.515 -15.861   1.025  0.00  0.00     0.062 A 
ATOM     15  C   UNL d   1      26.884 -16.030  -0.291  0.00  0.00     0.045 A 
ATOM     16  C   UNL d   1      26.715 -14.893  -1.134  0.00  0.00     0.057 A 
ATOM     17  C   UNL d   1      27.176 -13.733  -0.537  0.00  0.00     0.051 A 
ENDROOT
BRANCH  13  18
ATOM     18  N   UNL d   1      28.475 -14.536   2.890  0.00  0.00    -0.376 N 
ATOM     19  C   UNL d   1      27.780 -14.836   4.141  0.00  0.00     0.150 C 
ATOM     20  C   UNL d   1      27.902 -13.622   5.099  0.00  0.00     0.255 C 
ATOM     21  N   UNL d   1      29.380 -13.142   5.261  0.00  0.00    -0.064 N 
ATOM     22  C   UNL d   1      30.171 -13.234   3.921  0.00  0.00     0.255 C 
ATOM     23  H   UNL d   1      29.836 -13.849   5.850  0.00  0.00     0.280 HD
ATOM     24  C   UNL d   1      29.904 -14.437   3.049  0.00  0.00     0.150 C 
BRANCH  21  25
ATOM     25  C   UNL d   1      29.478 -11.821   6.120  0.00  0.00     0.188 C 
ATOM     26  C   UNL d   1      28.362 -11.747   7.176  0.00  0.00     0.033 C 
ATOM     27  C   UNL d   1      28.530 -12.803   8.256  0.00  0.00     0.002 C 
ATOM     28  C   UNL d   1      29.965 -12.929   8.782  0.00  0.00     0.000 C 
ATOM     29  C   UNL d   1      31.127 -12.755   7.781  0.00  0.00     0.002 C 
ATOM     30  C   UNL d   1      30.844 -11.638   6.800  0.00  0.00     0.033 C 
ENDBRANCH  21  25
ENDBRANCH  13  18
BRANCH  15  31
ATOM     31  N   UNL d   1      26.423 -17.324  -0.595  0.00  0.00    -0.387 N 
ATOM     32  H   UNL d   1      26.645 -17.754  -1.481  0.00  0.00     0.159 HD
BRANCH  31  33
ATOM     33  C   UNL d   1      25.376 -17.956   0.201  0.00  0.00     0.146 C 
BRANCH  33  34
ATOM     34  C   UNL d   1      23.934 -17.688  -0.165  0.00  0.00     0.183 C 
BRANCH  34  35
ATOM     35  O   UNL d   1      23.857 -16.760  -1.254  0.00  0.00    -0.399 OA
ATOM     36  H   UNL d   1      24.641 -16.878  -1.822  0.00  0.00     0.209 HD
ENDBRANCH  34  35
ENDBRANCH  33  34
ENDBRANCH  31  33
ENDBRANCH  15  31
TORSDOF 6
ENDMDL
