MODEL 1
REMARK VINA RESULT:    -8.233      0.000      0.000
REMARK INTER + INTRA:         -13.718
REMARK INTER:                 -11.515
REMARK INTRA:                  -2.203
REMARK CONF_INDEPENDENT:        3.281
REMARK UNBOUND:                -2.203
REMARK  11 active torsions:
REMARK  status: ('A' for Active; 'I' for Inactive)
REMARK    1  A    between atoms: C_2  and  N_3 
REMARK    2  A    between atoms: N_3  and  C_4 
REMARK    3  A    between atoms: N_3  and  C_32 
REMARK    4  A    between atoms: C_4  and  C_5 
REMARK    5  A    between atoms: C_5  and  C_6 
REMARK    6  A    between atoms: C_6  and  N_7 
REMARK       I    between atoms: N_7  and  C_8 
REMARK    7  A    between atoms: C_8  and  C_10 
REMARK    8  A    between atoms: C_10  and  C_11 
REMARK    9  A    between atoms: C_11  and  C_12 
REMARK       I    between atoms: C_12  and  N_14 
REMARK   10  A    between atoms: N_14  and  C_15 
REMARK   11  A    between atoms: C_20  and  N_21 
ROOT
ATOM      1  C   UNL d   1      29.940 -16.286  -3.718  0.00  0.00     0.222 C 
ATOM      2  O   UNL d   1      28.930 -16.702  -3.165  0.00  0.00    -0.273 OA
ATOM      3  N   UNL d   1      30.963 -17.114  -4.170  0.00  0.00    -0.327 N 
ATOM      4  H   UNL d   1      31.867 -16.698  -4.367  0.00  0.00     0.169 HD
ENDROOT
BRANCH   1   5
ATOM      5  C   UNL d   1      30.185 -14.800  -3.919  0.00  0.00     0.112 C 
BRANCH   5   6
ATOM      6  C   UNL d   1      29.631 -14.330  -5.277  0.00  0.00     0.112 C 
BRANCH   6   7
ATOM      7  C   UNL d   1      28.228 -14.873  -5.476  0.00  0.00     0.217 C 
ATOM      8  N   UNL d   1      27.460 -15.007  -4.342  0.00  0.00    -0.361 N 
ATOM      9  H   UNL d   1      27.826 -14.749  -3.429  0.00  0.00     0.162 HD
ATOM     10  O   UNL d   1      27.799 -15.176  -6.578  0.00  0.00    -0.274 OA
BRANCH   8  11
ATOM     11  C   UNL d   1      26.093 -15.527  -4.474  0.00  0.00     0.124 C 
BRANCH  11  12
ATOM     12  C   UNL d   1      25.570 -15.942  -3.129  0.00  0.00     0.039 C 
BRANCH  12  13
ATOM     13  C   UNL d   1      26.390 -15.719  -1.871  0.00  0.00     0.124 C 
BRANCH  13  14
ATOM     14  N   UNL d   1      26.145 -16.701  -0.783  0.00  0.00    -0.381 N 
BRANCH  14  15
ATOM     15  C   UNL d   1      27.148 -17.381   0.085  0.00  0.00     0.118 C 
ATOM     16  C   UNL d   1      28.617 -17.393  -0.310  0.00  0.00     0.026 C 
ENDBRANCH  14  15
BRANCH  14  17
ATOM     17  C   UNL d   1      24.819 -17.178  -0.632  0.00  0.00     0.030 A 
ATOM     18  C   UNL d   1      24.545 -18.555  -0.519  0.00  0.00     0.029 A 
ATOM     19  C   UNL d   1      23.237 -19.064  -0.520  0.00  0.00     0.002 A 
ATOM     20  C   UNL d   1      22.154 -18.197  -0.530  0.00  0.00     0.000 A 
ATOM     21  C   UNL d   1      22.387 -16.827  -0.517  0.00  0.00     0.002 A 
ATOM     22  C   UNL d   1      23.699 -16.328  -0.608  0.00  0.00     0.029 A 
ENDBRANCH  14  17
ENDBRANCH  13  14
ENDBRANCH  12  13
ENDBRANCH  11  12
ENDBRANCH   8  11
ENDBRANCH   6   7
ENDBRANCH   5   6
ENDBRANCH   1   5
BRANCH   3  23
ATOM     23  C   UNL d   1      30.876 -18.522  -4.085  0.00  0.00     0.035 C 
ATOM     24  C   UNL d   1      30.405 -19.282  -5.156  0.00  0.00     0.032 C 
ATOM     25  C   UNL d   1      30.497 -20.677  -5.132  0.00  0.00     0.033 C 
ATOM     26  C   UNL d   1      30.784 -21.335  -3.934  0.00  0.00     0.044 A 
ATOM     27  N   UNL d   1      30.656 -22.671  -3.835  0.00  0.00    -0.342 N 
ATOM     28  C   UNL d   1      31.136 -20.582  -2.792  0.00  0.00    -0.001 A 
ATOM     29  C   UNL d   1      30.747 -23.365  -2.689  0.00  0.00     0.104 A 
ATOM     30  H   UNL d   1      30.369 -23.210  -4.645  0.00  0.00     0.167 HD
ATOM     31  C   UNL d   1      31.042 -22.658  -1.524  0.00  0.00     0.056 A 
ATOM     32  C   UNL d   1      31.264 -21.272  -1.568  0.00  0.00    -0.046 A 
ATOM     33  C   UNL d   1      31.563 -20.527  -0.294  0.00  0.00     0.049 C 
ATOM     34  C   UNL d   1      31.298 -19.179  -2.929  0.00  0.00     0.043 C 
BRANCH  29  35
ATOM     35  N   UNL d   1      30.448 -24.701  -2.750  0.00  0.00    -0.363 N 
ATOM     36  C   UNL d   1      29.243 -25.203  -3.453  0.00  0.00     0.150 C 
ATOM     37  C   UNL d   1      28.192 -25.777  -2.490  0.00  0.00     0.187 C 
ATOM     38  O   UNL d   1      28.776 -26.741  -1.605  0.00  0.00    -0.388 OA
ATOM     39  C   UNL d   1      29.804 -26.136  -0.812  0.00  0.00     0.187 C 
ATOM     40  C   UNL d   1      30.947 -25.614  -1.699  0.00  0.00     0.150 C 
ENDBRANCH  29  35
ENDBRANCH   3  23
TORSDOF 11
ENDMDL
MODEL 2
REMARK VINA RESULT:    -8.225      3.177      4.277
REMARK INTER + INTRA:         -13.503
REMARK INTER:                 -11.506
REMARK INTRA:                  -1.997
REMARK CONF_INDEPENDENT:        3.281
REMARK UNBOUND:                -1.997
REMARK  11 active torsions:
REMARK  status: ('A' for Active; 'I' for Inactive)
REMARK    1  A    between atoms: C_2  and  N_3 
REMARK    2  A    between atoms: N_3  and  C_4 
REMARK    3  A    between atoms: N_3  and  C_32 
REMARK    4  A    between atoms: C_4  and  C_5 
REMARK    5  A    between atoms: C_5  and  C_6 
REMARK    6  A    between atoms: C_6  and  N_7 
REMARK       I    between atoms: N_7  and  C_8 
REMARK    7  A    between atoms: C_8  and  C_10 
REMARK    8  A    between atoms: C_10  and  C_11 
REMARK    9  A    between atoms: C_11  and  C_12 
REMARK       I    between atoms: C_12  and  N_14 
REMARK   10  A    between atoms: N_14  and  C_15 
REMARK   11  A    between atoms: C_20  and  N_21 
ROOT
ATOM      1  C   UNL d   1      30.639 -15.489  -5.825  0.00  0.00     0.222 C 
ATOM      2  O   UNL d   1      31.509 -15.516  -6.687  0.00  0.00    -0.273 OA
ATOM      3  N   UNL d   1      30.007 -16.629  -5.338  0.00  0.00    -0.327 N 
ATOM      4  H   UNL d   1      29.131 -16.517  -4.838  0.00  0.00     0.169 HD
ENDROOT
BRANCH   1   5
ATOM      5  C   UNL d   1      30.137 -14.181  -5.240  0.00  0.00     0.112 C 
BRANCH   5   6
ATOM      6  C   UNL d   1      28.896 -13.678  -6.000  0.00  0.00     0.112 C 
BRANCH   6   7
ATOM      7  C   UNL d   1      27.661 -14.415  -5.515  0.00  0.00     0.217 C 
ATOM      8  N   UNL d   1      26.803 -13.700  -4.709  0.00  0.00    -0.361 N 
ATOM      9  H   UNL d   1      27.000 -12.733  -4.465  0.00  0.00     0.162 HD
ATOM     10  O   UNL d   1      27.435 -15.575  -5.819  0.00  0.00    -0.274 OA
BRANCH   8  11
ATOM     11  C   UNL d   1      25.591 -14.361  -4.211  0.00  0.00     0.124 C 
BRANCH  11  12
ATOM     12  C   UNL d   1      25.962 -15.475  -3.273  0.00  0.00     0.039 C 
BRANCH  12  13
ATOM     13  C   UNL d   1      26.041 -15.238  -1.776  0.00  0.00     0.124 C 
BRANCH  13  14
ATOM     14  N   UNL d   1      25.982 -16.469  -0.945  0.00  0.00    -0.381 N 
BRANCH  14  15
ATOM     15  C   UNL d   1      27.117 -17.249  -0.376  0.00  0.00     0.118 C 
ATOM     16  C   UNL d   1      28.545 -16.747  -0.534  0.00  0.00     0.026 C 
ENDBRANCH  14  15
BRANCH  14  17
ATOM     17  C   UNL d   1      24.712 -17.078  -0.786  0.00  0.00     0.030 A 
ATOM     18  C   UNL d   1      23.525 -16.325  -0.855  0.00  0.00     0.029 A 
ATOM     19  C   UNL d   1      22.268 -16.872  -0.553  0.00  0.00     0.002 A 
ATOM     20  C   UNL d   1      22.150 -18.226  -0.272  0.00  0.00     0.000 A 
ATOM     21  C   UNL d   1      23.285 -19.026  -0.316  0.00  0.00     0.002 A 
ATOM     22  C   UNL d   1      24.551 -18.451  -0.530  0.00  0.00     0.029 A 
ENDBRANCH  14  17
ENDBRANCH  13  14
ENDBRANCH  12  13
ENDBRANCH  11  12
ENDBRANCH   8  11
ENDBRANCH   6   7
ENDBRANCH   5   6
ENDBRANCH   1   5
BRANCH   3  23
ATOM     23  C   UNL d   1      30.379 -17.926  -5.758  0.00  0.00     0.035 C 
ATOM     24  C   UNL d   1      30.243 -19.025  -4.910  0.00  0.00     0.032 C 
ATOM     25  C   UNL d   1      30.436 -20.323  -5.393  0.00  0.00     0.033 C 
ATOM     26  C   UNL d   1      31.046 -20.520  -6.635  0.00  0.00     0.044 A 
ATOM     27  N   UNL d   1      31.445 -21.747  -7.019  0.00  0.00    -0.342 N 
ATOM     28  C   UNL d   1      31.317 -19.409  -7.462  0.00  0.00    -0.001 A 
ATOM     29  C   UNL d   1      32.183 -22.004  -8.110  0.00  0.00     0.104 A 
ATOM     30  H   UNL d   1      31.281 -22.542  -6.410  0.00  0.00     0.167 HD
ATOM     31  C   UNL d   1      32.522 -20.931  -8.932  0.00  0.00     0.056 A 
ATOM     32  C   UNL d   1      32.073 -19.634  -8.632  0.00  0.00    -0.046 A 
ATOM     33  C   UNL d   1      32.467 -18.487  -9.525  0.00  0.00     0.049 C 
ATOM     34  C   UNL d   1      30.857 -18.131  -7.052  0.00  0.00     0.043 C 
BRANCH  29  35
ATOM     35  N   UNL d   1      32.620 -23.293  -8.271  0.00  0.00    -0.363 N 
ATOM     36  C   UNL d   1      32.928 -23.856  -9.607  0.00  0.00     0.150 C 
ATOM     37  C   UNL d   1      31.923 -24.935 -10.042  0.00  0.00     0.187 C 
ATOM     38  O   UNL d   1      31.771 -25.934  -9.026  0.00  0.00    -0.388 OA
ATOM     39  C   UNL d   1      31.279 -25.349  -7.815  0.00  0.00     0.187 C 
ATOM     40  C   UNL d   1      32.276 -24.316  -7.260  0.00  0.00     0.150 C 
ENDBRANCH  29  35
ENDBRANCH   3  23
TORSDOF 11
ENDMDL
MODEL 3
REMARK VINA RESULT:    -8.180      5.039      7.615
REMARK INTER + INTRA:         -14.229
REMARK INTER:                 -11.461
REMARK INTRA:                  -2.768
REMARK CONF_INDEPENDENT:        3.281
REMARK UNBOUND:                -2.768
REMARK  11 active torsions:
REMARK  status: ('A' for Active; 'I' for Inactive)
REMARK    1  A    between atoms: C_2  and  N_3 
REMARK    2  A    between atoms: N_3  and  C_4 
REMARK    3  A    between atoms: N_3  and  C_32 
REMARK    4  A    between atoms: C_4  and  C_5 
REMARK    5  A    between atoms: C_5  and  C_6 
REMARK    6  A    between atoms: C_6  and  N_7 
REMARK       I    between atoms: N_7  and  C_8 
REMARK    7  A    between atoms: C_8  and  C_10 
REMARK    8  A    between atoms: C_10  and  C_11 
REMARK    9  A    between atoms: C_11  and  C_12 
REMARK       I    between atoms: C_12  and  N_14 
REMARK   10  A    between atoms: N_14  and  C_15 
REMARK   11  A    between atoms: C_20  and  N_21 
ROOT
ATOM      1  C   UNL d   1      29.523 -15.297  -3.892  0.00  0.00     0.222 C 
ATOM      2  O   UNL d   1      29.160 -16.400  -3.505  0.00  0.00    -0.273 OA
ATOM      3  N   UNL d   1      29.717 -14.212  -3.042  0.00  0.00    -0.327 N 
ATOM      4  H   UNL d   1      29.752 -13.283  -3.449  0.00  0.00     0.169 HD
ENDROOT
BRANCH   1   5
ATOM      5  C   UNL d   1      29.752 -15.004  -5.365  0.00  0.00     0.112 C 
BRANCH   5   6
ATOM      6  C   UNL d   1      28.733 -13.973  -5.885  0.00  0.00     0.112 C 
BRANCH   6   7
ATOM      7  C   UNL d   1      27.335 -14.364  -5.444  0.00  0.00     0.217 C 
ATOM      8  N   UNL d   1      26.703 -13.495  -4.582  0.00  0.00    -0.361 N 
ATOM      9  H   UNL d   1      27.162 -12.643  -4.271  0.00  0.00     0.162 HD
ATOM     10  O   UNL d   1      26.794 -15.388  -5.828  0.00  0.00    -0.274 OA
BRANCH   8  11
ATOM     11  C   UNL d   1      25.347 -13.821  -4.122  0.00  0.00     0.124 C 
BRANCH  11  12
ATOM     12  C   UNL d   1      25.377 -15.061  -3.275  0.00  0.00     0.039 C 
BRANCH  12  13
ATOM     13  C   UNL d   1      25.743 -14.991  -1.804  0.00  0.00     0.124 C 
BRANCH  13  14
ATOM     14  N   UNL d   1      25.831 -16.306  -1.119  0.00  0.00    -0.381 N 
BRANCH  14  15
ATOM     15  C   UNL d   1      27.055 -17.091  -0.787  0.00  0.00     0.118 C 
ATOM     16  C   UNL d   1      27.407 -17.380   0.664  0.00  0.00     0.026 C 
ENDBRANCH  14  15
BRANCH  14  17
ATOM     17  C   UNL d   1      24.613 -16.989  -0.875  0.00  0.00     0.030 A 
ATOM     18  C   UNL d   1      23.375 -16.320  -0.934  0.00  0.00     0.029 A 
ATOM     19  C   UNL d   1      22.171 -16.931  -0.552  0.00  0.00     0.002 A 
ATOM     20  C   UNL d   1      22.156 -18.272  -0.195  0.00  0.00     0.000 A 
ATOM     21  C   UNL d   1      23.340 -18.996  -0.244  0.00  0.00     0.002 A 
ATOM     22  C   UNL d   1      24.555 -18.353  -0.540  0.00  0.00     0.029 A 
ENDBRANCH  14  17
ENDBRANCH  13  14
ENDBRANCH  12  13
ENDBRANCH  11  12
ENDBRANCH   8  11
ENDBRANCH   6   7
ENDBRANCH   5   6
ENDBRANCH   1   5
BRANCH   3  23
ATOM     23  C   UNL d   1      29.575 -14.326  -1.642  0.00  0.00     0.035 C 
ATOM     24  C   UNL d   1      30.101 -15.417  -0.950  0.00  0.00     0.032 C 
ATOM     25  C   UNL d   1      30.119 -15.431   0.448  0.00  0.00     0.033 C 
ATOM     26  C   UNL d   1      29.357 -14.504   1.163  0.00  0.00     0.044 A 
ATOM     27  N   UNL d   1      29.179 -14.637   2.491  0.00  0.00    -0.342 N 
ATOM     28  C   UNL d   1      28.700 -13.461   0.473  0.00  0.00    -0.001 A 
ATOM     29  C   UNL d   1      28.333 -13.898   3.226  0.00  0.00     0.104 A 
ATOM     30  H   UNL d   1      29.622 -15.406   2.982  0.00  0.00     0.167 HD
ATOM     31  C   UNL d   1      27.623 -12.889   2.579  0.00  0.00     0.056 A 
ATOM     32  C   UNL d   1      27.817 -12.645   1.210  0.00  0.00    -0.046 A 
ATOM     33  C   UNL d   1      27.024 -11.561   0.529  0.00  0.00     0.049 C 
ATOM     34  C   UNL d   1      28.930 -13.321  -0.920  0.00  0.00     0.043 C 
BRANCH  29  35
ATOM     35  N   UNL d   1      28.173 -14.264   4.537  0.00  0.00    -0.363 N 
ATOM     36  C   UNL d   1      27.427 -13.421   5.501  0.00  0.00     0.150 C 
ATOM     37  C   UNL d   1      28.338 -12.792   6.568  0.00  0.00     0.187 C 
ATOM     38  O   UNL d   1      29.156 -13.786   7.197  0.00  0.00    -0.388 OA
ATOM     39  C   UNL d   1      29.998 -14.428   6.233  0.00  0.00     0.187 C 
ATOM     40  C   UNL d   1      29.159 -15.164   5.173  0.00  0.00     0.150 C 
ENDBRANCH  29  35
ENDBRANCH   3  23
TORSDOF 11
ENDMDL
MODEL 4
REMARK VINA RESULT:    -8.163      1.966      3.400
REMARK INTER + INTRA:         -13.527
REMARK INTER:                 -11.445
REMARK INTRA:                  -2.082
REMARK CONF_INDEPENDENT:        3.281
REMARK UNBOUND:                -2.082
REMARK  11 active torsions:
REMARK  status: ('A' for Active; 'I' for Inactive)
REMARK    1  A    between atoms: C_2  and  N_3 
REMARK    2  A    between atoms: N_3  and  C_4 
REMARK    3  A    between atoms: N_3  and  C_32 
REMARK    4  A    between atoms: C_4  and  C_5 
REMARK    5  A    between atoms: C_5  and  C_6 
REMARK    6  A    between atoms: C_6  and  N_7 
REMARK       I    between atoms: N_7  and  C_8 
REMARK    7  A    between atoms: C_8  and  C_10 
REMARK    8  A    between atoms: C_10  and  C_11 
REMARK    9  A    between atoms: C_11  and  C_12 
REMARK       I    between atoms: C_12  and  N_14 
REMARK   10  A    between atoms: N_14  and  C_15 
REMARK   11  A    between atoms: C_20  and  N_21 
ROOT
ATOM      1  C   UNL d   1      28.304 -14.219  -6.204  0.00  0.00     0.222 C 
ATOM      2  O   UNL d   1      27.406 -15.039  -6.341  0.00  0.00    -0.273 OA
ATOM      3  N   UNL d   1      29.529 -14.515  -5.611  0.00  0.00    -0.327 N 
ATOM      4  H   UNL d   1      30.107 -13.745  -5.291  0.00  0.00     0.169 HD
ENDROOT
BRANCH   1   5
ATOM      5  C   UNL d   1      28.137 -12.772  -6.634  0.00  0.00     0.112 C 
BRANCH   5   6
ATOM      6  C   UNL d   1      26.962 -12.110  -5.892  0.00  0.00     0.112 C 
BRANCH   6   7
ATOM      7  C   UNL d   1      26.599 -12.929  -4.668  0.00  0.00     0.217 C 
ATOM      8  N   UNL d   1      25.320 -13.439  -4.634  0.00  0.00    -0.361 N 
ATOM      9  H   UNL d   1      24.670 -13.270  -5.397  0.00  0.00     0.162 HD
ATOM     10  O   UNL d   1      27.390 -13.128  -3.760  0.00  0.00    -0.274 OA
BRANCH   8  11
ATOM     11  C   UNL d   1      24.912 -14.242  -3.474  0.00  0.00     0.124 C 
BRANCH  11  12
ATOM     12  C   UNL d   1      25.602 -15.576  -3.506  0.00  0.00     0.039 C 
BRANCH  12  13
ATOM     13  C   UNL d   1      26.543 -15.994  -2.391  0.00  0.00     0.124 C 
BRANCH  13  14
ATOM     14  N   UNL d   1      25.969 -15.908  -1.023  0.00  0.00    -0.381 N 
BRANCH  14  15
ATOM     15  C   UNL d   1      26.506 -15.169   0.155  0.00  0.00     0.118 C 
ATOM     16  C   UNL d   1      27.963 -14.735   0.185  0.00  0.00     0.026 C 
ENDBRANCH  14  15
BRANCH  14  17
ATOM     17  C   UNL d   1      24.858 -16.741  -0.737  0.00  0.00     0.030 A 
ATOM     18  C   UNL d   1      25.033 -18.066  -0.291  0.00  0.00     0.029 A 
ATOM     19  C   UNL d   1      23.959 -18.957  -0.145  0.00  0.00     0.002 A 
ATOM     20  C   UNL d   1      22.659 -18.517  -0.343  0.00  0.00     0.000 A 
ATOM     21  C   UNL d   1      22.440 -17.183  -0.664  0.00  0.00     0.002 A 
ATOM     22  C   UNL d   1      23.527 -16.321  -0.896  0.00  0.00     0.029 A 
ENDBRANCH  14  17
ENDBRANCH  13  14
ENDBRANCH  12  13
ENDBRANCH  11  12
ENDBRANCH   8  11
ENDBRANCH   6   7
ENDBRANCH   5   6
ENDBRANCH   1   5
BRANCH   3  23
ATOM     23  C   UNL d   1      29.854 -15.822  -5.183  0.00  0.00     0.035 C 
ATOM     24  C   UNL d   1      29.968 -16.129  -3.827  0.00  0.00     0.032 C 
ATOM     25  C   UNL d   1      30.105 -17.456  -3.408  0.00  0.00     0.033 C 
ATOM     26  C   UNL d   1      30.421 -18.450  -4.338  0.00  0.00     0.044 A 
ATOM     27  N   UNL d   1      30.778 -19.683  -3.932  0.00  0.00    -0.342 N 
ATOM     28  C   UNL d   1      30.443 -18.136  -5.714  0.00  0.00    -0.001 A 
ATOM     29  C   UNL d   1      31.256 -20.644  -4.738  0.00  0.00     0.104 A 
ATOM     30  H   UNL d   1      30.796 -19.900  -2.941  0.00  0.00     0.167 HD
ATOM     31  C   UNL d   1      31.346 -20.363  -6.100  0.00  0.00     0.056 A 
ATOM     32  C   UNL d   1      30.919 -19.123  -6.603  0.00  0.00    -0.046 A 
ATOM     33  C   UNL d   1      31.043 -18.836  -8.076  0.00  0.00     0.049 C 
ATOM     34  C   UNL d   1      30.030 -16.840  -6.120  0.00  0.00     0.043 C 
BRANCH  29  35
ATOM     35  N   UNL d   1      31.704 -21.790  -4.135  0.00  0.00    -0.363 N 
ATOM     36  C   UNL d   1      32.599 -22.745  -4.831  0.00  0.00     0.150 C 
ATOM     37  C   UNL d   1      31.905 -24.079  -5.155  0.00  0.00     0.187 C 
ATOM     38  O   UNL d   1      31.282 -24.631  -3.989  0.00  0.00    -0.388 OA
ATOM     39  C   UNL d   1      30.284 -23.737  -3.482  0.00  0.00     0.187 C 
ATOM     40  C   UNL d   1      30.913 -22.403  -3.045  0.00  0.00     0.150 C 
ENDBRANCH  29  35
ENDBRANCH   3  23
TORSDOF 11
ENDMDL
MODEL 5
REMARK VINA RESULT:    -7.834      2.253      3.373
REMARK INTER + INTRA:         -13.604
REMARK INTER:                 -11.115
REMARK INTRA:                  -2.489
REMARK CONF_INDEPENDENT:        3.281
REMARK UNBOUND:                -2.489
REMARK  11 active torsions:
REMARK  status: ('A' for Active; 'I' for Inactive)
REMARK    1  A    between atoms: C_2  and  N_3 
REMARK    2  A    between atoms: N_3  and  C_4 
REMARK    3  A    between atoms: N_3  and  C_32 
REMARK    4  A    between atoms: C_4  and  C_5 
REMARK    5  A    between atoms: C_5  and  C_6 
REMARK    6  A    between atoms: C_6  and  N_7 
REMARK       I    between atoms: N_7  and  C_8 
REMARK    7  A    between atoms: C_8  and  C_10 
REMARK    8  A    between atoms: C_10  and  C_11 
REMARK    9  A    between atoms: C_11  and  C_12 
REMARK       I    between atoms: C_12  and  N_14 
REMARK   10  A    between atoms: N_14  and  C_15 
REMARK   11  A    between atoms: C_20  and  N_21 
ROOT
ATOM      1  C   UNL d   1      28.277 -14.715  -5.225  0.00  0.00     0.222 C 
ATOM      2  O   UNL d   1      27.438 -15.607  -5.190  0.00  0.00    -0.273 OA
ATOM      3  N   UNL d   1      29.450 -14.737  -4.475  0.00  0.00    -0.327 N 
ATOM      4  H   UNL d   1      29.955 -13.867  -4.347  0.00  0.00     0.169 HD
ENDROOT
BRANCH   1   5
ATOM      5  C   UNL d   1      28.081 -13.468  -6.069  0.00  0.00     0.112 C 
BRANCH   5   6
ATOM      6  C   UNL d   1      27.484 -12.324  -5.229  0.00  0.00     0.112 C 
BRANCH   6   7
ATOM      7  C   UNL d   1      26.761 -12.894  -4.023  0.00  0.00     0.217 C 
ATOM      8  N   UNL d   1      25.599 -13.587  -4.280  0.00  0.00    -0.361 N 
ATOM      9  H   UNL d   1      25.260 -13.703  -5.231  0.00  0.00     0.162 HD
ATOM     10  O   UNL d   1      27.181 -12.750  -2.886  0.00  0.00    -0.274 OA
BRANCH   8  11
ATOM     11  C   UNL d   1      24.858 -14.162  -3.151  0.00  0.00     0.124 C 
BRANCH  11  12
ATOM     12  C   UNL d   1      25.158 -15.629  -3.034  0.00  0.00     0.039 C 
BRANCH  12  13
ATOM     13  C   UNL d   1      26.316 -16.123  -2.186  0.00  0.00     0.124 C 
BRANCH  13  14
ATOM     14  N   UNL d   1      25.925 -16.749  -0.897  0.00  0.00    -0.381 N 
BRANCH  14  15
ATOM     15  C   UNL d   1      26.801 -17.114   0.252  0.00  0.00     0.118 C 
ATOM     16  C   UNL d   1      27.032 -18.576   0.602  0.00  0.00     0.026 C 
ENDBRANCH  14  15
BRANCH  14  17
ATOM     17  C   UNL d   1      24.586 -17.203  -0.782  0.00  0.00     0.030 A 
ATOM     18  C   UNL d   1      24.265 -18.569  -0.893  0.00  0.00     0.029 A 
ATOM     19  C   UNL d   1      22.939 -19.029  -0.933  0.00  0.00     0.002 A 
ATOM     20  C   UNL d   1      21.890 -18.138  -0.757  0.00  0.00     0.000 A 
ATOM     21  C   UNL d   1      22.175 -16.799  -0.521  0.00  0.00     0.002 A 
ATOM     22  C   UNL d   1      23.501 -16.334  -0.573  0.00  0.00     0.029 A 
ENDBRANCH  14  17
ENDBRANCH  13  14
ENDBRANCH  12  13
ENDBRANCH  11  12
ENDBRANCH   8  11
ENDBRANCH   6   7
ENDBRANCH   5   6
ENDBRANCH   1   5
BRANCH   3  23
ATOM     23  C   UNL d   1      29.795 -15.840  -3.662  0.00  0.00     0.035 C 
ATOM     24  C   UNL d   1      29.865 -15.718  -2.274  0.00  0.00     0.032 C 
ATOM     25  C   UNL d   1      30.023 -16.850  -1.468  0.00  0.00     0.033 C 
ATOM     26  C   UNL d   1      30.404 -18.065  -2.043  0.00  0.00     0.044 A 
ATOM     27  N   UNL d   1      30.780 -19.103  -1.272  0.00  0.00    -0.342 N 
ATOM     28  C   UNL d   1      30.471 -18.181  -3.448  0.00  0.00    -0.001 A 
ATOM     29  C   UNL d   1      31.317 -20.243  -1.735  0.00  0.00     0.104 A 
ATOM     30  H   UNL d   1      30.765 -19.009  -0.262  0.00  0.00     0.167 HD
ATOM     31  C   UNL d   1      31.452 -20.384  -3.114  0.00  0.00     0.056 A 
ATOM     32  C   UNL d   1      31.009 -19.371  -3.981  0.00  0.00    -0.046 A 
ATOM     33  C   UNL d   1      31.183 -19.538  -5.468  0.00  0.00     0.049 C 
ATOM     34  C   UNL d   1      30.037 -17.086  -4.240  0.00  0.00     0.043 C 
BRANCH  29  35
ATOM     35  N   UNL d   1      31.773 -21.134  -0.799  0.00  0.00    -0.363 N 
ATOM     36  C   UNL d   1      31.142 -22.462  -0.607  0.00  0.00     0.150 C 
ATOM     37  C   UNL d   1      30.403 -22.577   0.736  0.00  0.00     0.187 C 
ATOM     38  O   UNL d   1      31.249 -22.189   1.824  0.00  0.00    -0.388 OA
ATOM     39  C   UNL d   1      31.665 -20.826   1.676  0.00  0.00     0.187 C 
ATOM     40  C   UNL d   1      32.495 -20.642   0.394  0.00  0.00     0.150 C 
ENDBRANCH  29  35
ENDBRANCH   3  23
TORSDOF 11
ENDMDL
MODEL 6
REMARK VINA RESULT:    -7.805      4.816      8.318
REMARK INTER + INTRA:         -13.789
REMARK INTER:                 -11.087
REMARK INTRA:                  -2.702
REMARK CONF_INDEPENDENT:        3.281
REMARK UNBOUND:                -2.702
REMARK  11 active torsions:
REMARK  status: ('A' for Active; 'I' for Inactive)
REMARK    1  A    between atoms: C_2  and  N_3 
REMARK    2  A    between atoms: N_3  and  C_4 
REMARK    3  A    between atoms: N_3  and  C_32 
REMARK    4  A    between atoms: C_4  and  C_5 
REMARK    5  A    between atoms: C_5  and  C_6 
REMARK    6  A    between atoms: C_6  and  N_7 
REMARK       I    between atoms: N_7  and  C_8 
REMARK    7  A    between atoms: C_8  and  C_10 
REMARK    8  A    between atoms: C_10  and  C_11 
REMARK    9  A    between atoms: C_11  and  C_12 
REMARK       I    between atoms: C_12  and  N_14 
REMARK   10  A    between atoms: N_14  and  C_15 
REMARK   11  A    between atoms: C_20  and  N_21 
ROOT
ATOM      1  C   UNL d   1      29.551 -15.621  -2.127  0.00  0.00     0.222 C 
ATOM      2  O   UNL d   1      28.893 -14.602  -1.961  0.00  0.00    -0.273 OA
ATOM      3  N   UNL d   1      30.377 -16.167  -1.149  0.00  0.00    -0.327 N 
ATOM      4  H   UNL d   1      31.082 -16.839  -1.435  0.00  0.00     0.169 HD
ENDROOT
BRANCH   1   5
ATOM      5  C   UNL d   1      29.554 -16.362  -3.453  0.00  0.00     0.112 C 
BRANCH   5   6
ATOM      6  C   UNL d   1      29.358 -15.387  -4.628  0.00  0.00     0.112 C 
BRANCH   6   7
ATOM      7  C   UNL d   1      27.880 -15.244  -4.938  0.00  0.00     0.217 C 
ATOM      8  N   UNL d   1      27.035 -15.166  -3.853  0.00  0.00    -0.361 N 
ATOM      9  H   UNL d   1      27.399 -15.201  -2.905  0.00  0.00     0.162 HD
ATOM     10  O   UNL d   1      27.457 -15.199  -6.082  0.00  0.00    -0.274 OA
BRANCH   8  11
ATOM     11  C   UNL d   1      25.593 -15.025  -4.093  0.00  0.00     0.124 C 
BRANCH  11  12
ATOM     12  C   UNL d   1      24.897 -14.639  -2.818  0.00  0.00     0.039 C 
BRANCH  12  13
ATOM     13  C   UNL d   1      25.556 -14.869  -1.470  0.00  0.00     0.124 C 
BRANCH  13  14
ATOM     14  N   UNL d   1      25.683 -16.295  -1.072  0.00  0.00    -0.381 N 
BRANCH  14  15
ATOM     15  C   UNL d   1      26.918 -17.129  -1.017  0.00  0.00     0.118 C 
ATOM     16  C   UNL d   1      27.518 -17.515   0.326  0.00  0.00     0.026 C 
ENDBRANCH  14  15
BRANCH  14  17
ATOM     17  C   UNL d   1      24.480 -17.014  -0.860  0.00  0.00     0.030 A 
ATOM     18  C   UNL d   1      24.491 -18.396  -0.587  0.00  0.00     0.029 A 
ATOM     19  C   UNL d   1      23.315 -19.159  -0.523  0.00  0.00     0.002 A 
ATOM     20  C   UNL d   1      22.078 -18.539  -0.626  0.00  0.00     0.000 A 
ATOM     21  C   UNL d   1      22.026 -17.158  -0.772  0.00  0.00     0.002 A 
ATOM     22  C   UNL d   1      23.210 -16.415  -0.927  0.00  0.00     0.029 A 
ENDBRANCH  14  17
ENDBRANCH  13  14
ENDBRANCH  12  13
ENDBRANCH  11  12
ENDBRANCH   8  11
ENDBRANCH   6   7
ENDBRANCH   5   6
ENDBRANCH   1   5
BRANCH   3  23
ATOM     23  C   UNL d   1      30.464 -15.615   0.148  0.00  0.00     0.035 C 
ATOM     24  C   UNL d   1      31.586 -15.828   0.949  0.00  0.00     0.032 C 
ATOM     25  C   UNL d   1      31.745 -15.129   2.150  0.00  0.00     0.033 C 
ATOM     26  C   UNL d   1      30.662 -14.440   2.703  0.00  0.00     0.044 A 
ATOM     27  N   UNL d   1      30.724 -13.955   3.957  0.00  0.00    -0.342 N 
ATOM     28  C   UNL d   1      29.463 -14.322   1.968  0.00  0.00    -0.001 A 
ATOM     29  C   UNL d   1      29.683 -13.432   4.626  0.00  0.00     0.104 A 
ATOM     30  H   UNL d   1      31.574 -14.069   4.499  0.00  0.00     0.167 HD
ATOM     31  C   UNL d   1      28.463 -13.342   3.959  0.00  0.00     0.056 A 
ATOM     32  C   UNL d   1      28.347 -13.760   2.623  0.00  0.00    -0.046 A 
ATOM     33  C   UNL d   1      27.013 -13.670   1.930  0.00  0.00     0.049 C 
ATOM     34  C   UNL d   1      29.433 -14.812   0.636  0.00  0.00     0.043 C 
BRANCH  29  35
ATOM     35  N   UNL d   1      29.891 -13.117   5.943  0.00  0.00    -0.363 N 
ATOM     36  C   UNL d   1      29.060 -13.691   7.028  0.00  0.00     0.150 C 
ATOM     37  C   UNL d   1      28.154 -12.645   7.697  0.00  0.00     0.187 C 
ATOM     38  O   UNL d   1      28.909 -11.498   8.106  0.00  0.00    -0.388 OA
ATOM     39  C   UNL d   1      29.528 -10.874   6.976  0.00  0.00     0.187 C 
ATOM     40  C   UNL d   1      30.525 -11.830   6.299  0.00  0.00     0.150 C 
ENDBRANCH  29  35
ENDBRANCH   3  23
TORSDOF 11
ENDMDL
MODEL 7
REMARK VINA RESULT:    -7.502      6.846     10.511
REMARK INTER + INTRA:         -13.598
REMARK INTER:                 -10.783
REMARK INTRA:                  -2.814
REMARK CONF_INDEPENDENT:        3.281
REMARK UNBOUND:                -2.814
REMARK  11 active torsions:
REMARK  status: ('A' for Active; 'I' for Inactive)
REMARK    1  A    between atoms: C_2  and  N_3 
REMARK    2  A    between atoms: N_3  and  C_4 
REMARK    3  A    between atoms: N_3  and  C_32 
REMARK    4  A    between atoms: C_4  and  C_5 
REMARK    5  A    between atoms: C_5  and  C_6 
REMARK    6  A    between atoms: C_6  and  N_7 
REMARK       I    between atoms: N_7  and  C_8 
REMARK    7  A    between atoms: C_8  and  C_10 
REMARK    8  A    between atoms: C_10  and  C_11 
REMARK    9  A    between atoms: C_11  and  C_12 
REMARK       I    between atoms: C_12  and  N_14 
REMARK   10  A    between atoms: N_14  and  C_15 
REMARK   11  A    between atoms: C_20  and  N_21 
ROOT
ATOM      1  C   UNL d   1      28.954 -12.808   1.001  0.00  0.00     0.222 C 
ATOM      2  O   UNL d   1      30.055 -13.297   1.219  0.00  0.00    -0.273 OA
ATOM      3  N   UNL d   1      27.945 -12.736   1.957  0.00  0.00    -0.327 N 
ATOM      4  H   UNL d   1      26.995 -12.571   1.641  0.00  0.00     0.169 HD
ENDROOT
BRANCH   1   5
ATOM      5  C   UNL d   1      28.576 -12.271  -0.369  0.00  0.00     0.112 C 
BRANCH   5   6
ATOM      6  C   UNL d   1      27.677 -13.268  -1.121  0.00  0.00     0.112 C 
BRANCH   6   7
ATOM      7  C   UNL d   1      27.201 -14.351  -0.171  0.00  0.00     0.217 C 
ATOM      8  N   UNL d   1      27.978 -15.485  -0.102  0.00  0.00    -0.361 N 
ATOM      9  H   UNL d   1      28.822 -15.574  -0.661  0.00  0.00     0.162 HD
ATOM     10  O   UNL d   1      26.186 -14.229   0.497  0.00  0.00    -0.274 OA
BRANCH   8  11
ATOM     11  C   UNL d   1      27.567 -16.567   0.801  0.00  0.00     0.124 C 
BRANCH  11  12
ATOM     12  C   UNL d   1      26.344 -17.251   0.259  0.00  0.00     0.039 C 
BRANCH  12  13
ATOM     13  C   UNL d   1      26.053 -17.261  -1.231  0.00  0.00     0.124 C 
BRANCH  13  14
ATOM     14  N   UNL d   1      24.954 -16.358  -1.659  0.00  0.00    -0.381 N 
BRANCH  14  15
ATOM     15  C   UNL d   1      23.518 -16.403  -1.260  0.00  0.00     0.118 C 
ATOM     16  C   UNL d   1      22.983 -17.585  -0.466  0.00  0.00     0.026 C 
ENDBRANCH  14  15
BRANCH  14  17
ATOM     17  C   UNL d   1      25.248 -15.426  -2.685  0.00  0.00     0.030 A 
ATOM     18  C   UNL d   1      26.384 -15.575  -3.505  0.00  0.00     0.029 A 
ATOM     19  C   UNL d   1      26.781 -14.592  -4.425  0.00  0.00     0.002 A 
ATOM     20  C   UNL d   1      25.990 -13.470  -4.628  0.00  0.00     0.000 A 
ATOM     21  C   UNL d   1      24.798 -13.350  -3.925  0.00  0.00     0.002 A 
ATOM     22  C   UNL d   1      24.455 -14.294  -2.940  0.00  0.00     0.029 A 
ENDBRANCH  14  17
ENDBRANCH  13  14
ENDBRANCH  12  13
ENDBRANCH  11  12
ENDBRANCH   8  11
ENDBRANCH   6   7
ENDBRANCH   5   6
ENDBRANCH   1   5
BRANCH   3  23
ATOM     23  C   UNL d   1      28.146 -13.165   3.288  0.00  0.00     0.035 C 
ATOM     24  C   UNL d   1      27.943 -14.495   3.655  0.00  0.00     0.032 C 
ATOM     25  C   UNL d   1      28.321 -14.948   4.922  0.00  0.00     0.033 C 
ATOM     26  C   UNL d   1      28.629 -14.028   5.927  0.00  0.00     0.044 A 
ATOM     27  N   UNL d   1      28.773 -14.426   7.204  0.00  0.00    -0.342 N 
ATOM     28  C   UNL d   1      28.711 -12.654   5.612  0.00  0.00    -0.001 A 
ATOM     29  C   UNL d   1      28.902 -13.598   8.254  0.00  0.00     0.104 A 
ATOM     30  H   UNL d   1      28.680 -15.409   7.438  0.00  0.00     0.167 HD
ATOM     31  C   UNL d   1      28.936 -12.229   7.998  0.00  0.00     0.056 A 
ATOM     32  C   UNL d   1      28.867 -11.747   6.681  0.00  0.00    -0.046 A 
ATOM     33  C   UNL d   1      28.888 -10.261   6.432  0.00  0.00     0.049 C 
ATOM     34  C   UNL d   1      28.589 -12.262   4.254  0.00  0.00     0.043 C 
BRANCH  29  35
ATOM     35  N   UNL d   1      28.895 -14.172   9.498  0.00  0.00    -0.363 N 
ATOM     36  C   UNL d   1      27.931 -13.760  10.546  0.00  0.00     0.150 C 
ATOM     37  C   UNL d   1      28.605 -13.020  11.713  0.00  0.00     0.187 C 
ATOM     38  O   UNL d   1      29.714 -13.768  12.224  0.00  0.00    -0.388 OA
ATOM     39  C   UNL d   1      30.703 -13.960  11.206  0.00  0.00     0.187 C 
ATOM     40  C   UNL d   1      30.133 -14.778  10.034  0.00  0.00     0.150 C 
ENDBRANCH  29  35
ENDBRANCH   3  23
TORSDOF 11
ENDMDL
MODEL 8
REMARK VINA RESULT:    -7.458      5.210      8.383
REMARK INTER + INTRA:         -13.422
REMARK INTER:                 -10.740
REMARK INTRA:                  -2.682
REMARK CONF_INDEPENDENT:        3.281
REMARK UNBOUND:                -2.682
REMARK  11 active torsions:
REMARK  status: ('A' for Active; 'I' for Inactive)
REMARK    1  A    between atoms: C_2  and  N_3 
REMARK    2  A    between atoms: N_3  and  C_4 
REMARK    3  A    between atoms: N_3  and  C_32 
REMARK    4  A    between atoms: C_4  and  C_5 
REMARK    5  A    between atoms: C_5  and  C_6 
REMARK    6  A    between atoms: C_6  and  N_7 
REMARK       I    between atoms: N_7  and  C_8 
REMARK    7  A    between atoms: C_8  and  C_10 
REMARK    8  A    between atoms: C_10  and  C_11 
REMARK    9  A    between atoms: C_11  and  C_12 
REMARK       I    between atoms: C_12  and  N_14 
REMARK   10  A    between atoms: N_14  and  C_15 
REMARK   11  A    between atoms: C_20  and  N_21 
ROOT
ATOM      1  C   UNL d   1      29.002 -14.141  -3.000  0.00  0.00     0.222 C 
ATOM      2  O   UNL d   1      28.664 -12.967  -2.919  0.00  0.00    -0.273 OA
ATOM      3  N   UNL d   1      29.094 -14.989  -1.901  0.00  0.00    -0.327 N 
ATOM      4  H   UNL d   1      29.627 -15.847  -1.999  0.00  0.00     0.169 HD
ENDROOT
BRANCH   1   5
ATOM      5  C   UNL d   1      29.399 -14.767  -4.326  0.00  0.00     0.112 C 
BRANCH   5   6
ATOM      6  C   UNL d   1      28.533 -14.219  -5.474  0.00  0.00     0.112 C 
BRANCH   6   7
ATOM      7  C   UNL d   1      27.070 -14.518  -5.205  0.00  0.00     0.217 C 
ATOM      8  N   UNL d   1      26.437 -13.696  -4.299  0.00  0.00    -0.361 N 
ATOM      9  H   UNL d   1      26.936 -12.934  -3.848  0.00  0.00     0.162 HD
ATOM     10  O   UNL d   1      26.481 -15.434  -5.757  0.00  0.00    -0.274 OA
BRANCH   8  11
ATOM     11  C   UNL d   1      25.020 -13.938  -4.000  0.00  0.00     0.124 C 
BRANCH  11  12
ATOM     12  C   UNL d   1      24.894 -14.938  -2.886  0.00  0.00     0.039 C 
BRANCH  12  13
ATOM     13  C   UNL d   1      26.028 -15.895  -2.567  0.00  0.00     0.124 C 
BRANCH  13  14
ATOM     14  N   UNL d   1      25.798 -16.764  -1.384  0.00  0.00    -0.381 N 
BRANCH  14  15
ATOM     15  C   UNL d   1      26.813 -17.359  -0.469  0.00  0.00     0.118 C 
ATOM     16  C   UNL d   1      26.370 -18.179   0.733  0.00  0.00     0.026 C 
ENDBRANCH  14  15
BRANCH  14  17
ATOM     17  C   UNL d   1      24.473 -17.219  -1.166  0.00  0.00     0.030 A 
ATOM     18  C   UNL d   1      23.437 -16.324  -0.836  0.00  0.00     0.029 A 
ATOM     19  C   UNL d   1      22.155 -16.762  -0.469  0.00  0.00     0.002 A 
ATOM     20  C   UNL d   1      21.840 -18.112  -0.523  0.00  0.00     0.000 A 
ATOM     21  C   UNL d   1      22.802 -19.012  -0.965  0.00  0.00     0.002 A 
ATOM     22  C   UNL d   1      24.110 -18.575  -1.242  0.00  0.00     0.029 A 
ENDBRANCH  14  17
ENDBRANCH  13  14
ENDBRANCH  12  13
ENDBRANCH  11  12
ENDBRANCH   8  11
ENDBRANCH   6   7
ENDBRANCH   5   6
ENDBRANCH   1   5
BRANCH   3  23
ATOM     23  C   UNL d   1      28.732 -14.569  -0.601  0.00  0.00     0.035 C 
ATOM     24  C   UNL d   1      27.553 -13.858  -0.376  0.00  0.00     0.032 C 
ATOM     25  C   UNL d   1      27.111 -13.610   0.928  0.00  0.00     0.033 C 
ATOM     26  C   UNL d   1      27.978 -13.807   2.006  0.00  0.00     0.044 A 
ATOM     27  N   UNL d   1      27.658 -13.365   3.236  0.00  0.00    -0.342 N 
ATOM     28  C   UNL d   1      29.238 -14.405   1.786  0.00  0.00    -0.001 A 
ATOM     29  C   UNL d   1      28.493 -13.360   4.288  0.00  0.00     0.104 A 
ATOM     30  H   UNL d   1      26.767 -12.904   3.388  0.00  0.00     0.167 HD
ATOM     31  C   UNL d   1      29.767 -13.893   4.107  0.00  0.00     0.056 A 
ATOM     32  C   UNL d   1      30.142 -14.441   2.869  0.00  0.00    -0.046 A 
ATOM     33  C   UNL d   1      31.532 -14.995   2.692  0.00  0.00     0.049 C 
ATOM     34  C   UNL d   1      29.540 -14.894   0.489  0.00  0.00     0.043 C 
BRANCH  29  35
ATOM     35  N   UNL d   1      28.047 -12.742   5.427  0.00  0.00    -0.363 N 
ATOM     36  C   UNL d   1      27.781 -11.285   5.476  0.00  0.00     0.150 C 
ATOM     37  C   UNL d   1      28.788 -10.528   6.357  0.00  0.00     0.187 C 
ATOM     38  O   UNL d   1      28.892 -11.130   7.653  0.00  0.00    -0.388 OA
ATOM     39  C   UNL d   1      29.346 -12.484   7.543  0.00  0.00     0.187 C 
ATOM     40  C   UNL d   1      28.343 -13.337   6.748  0.00  0.00     0.150 C 
ENDBRANCH  29  35
ENDBRANCH   3  23
TORSDOF 11
ENDMDL
MODEL 9
REMARK VINA RESULT:    -7.200      4.362      6.361
REMARK INTER + INTRA:         -13.551
REMARK INTER:                 -10.482
REMARK INTRA:                  -3.069
REMARK CONF_INDEPENDENT:        3.281
REMARK UNBOUND:                -3.069
REMARK  11 active torsions:
REMARK  status: ('A' for Active; 'I' for Inactive)
REMARK    1  A    between atoms: C_2  and  N_3 
REMARK    2  A    between atoms: N_3  and  C_4 
REMARK    3  A    between atoms: N_3  and  C_32 
REMARK    4  A    between atoms: C_4  and  C_5 
REMARK    5  A    between atoms: C_5  and  C_6 
REMARK    6  A    between atoms: C_6  and  N_7 
REMARK       I    between atoms: N_7  and  C_8 
REMARK    7  A    between atoms: C_8  and  C_10 
REMARK    8  A    between atoms: C_10  and  C_11 
REMARK    9  A    between atoms: C_11  and  C_12 
REMARK       I    between atoms: C_12  and  N_14 
REMARK   10  A    between atoms: N_14  and  C_15 
REMARK   11  A    between atoms: C_20  and  N_21 
ROOT
ATOM      1  C   UNL d   1      26.400 -14.996  -4.770  0.00  0.00     0.222 C 
ATOM      2  O   UNL d   1      26.005 -15.577  -5.772  0.00  0.00    -0.273 OA
ATOM      3  N   UNL d   1      27.746 -14.765  -4.499  0.00  0.00    -0.327 N 
ATOM      4  H   UNL d   1      28.011 -14.528  -3.548  0.00  0.00     0.169 HD
ENDROOT
BRANCH   1   5
ATOM      5  C   UNL d   1      25.441 -14.509  -3.698  0.00  0.00     0.112 C 
BRANCH   5   6
ATOM      6  C   UNL d   1      25.769 -13.065  -3.280  0.00  0.00     0.112 C 
BRANCH   6   7
ATOM      7  C   UNL d   1      26.887 -13.066  -2.254  0.00  0.00     0.217 C 
ATOM      8  N   UNL d   1      26.561 -13.529  -0.999  0.00  0.00    -0.361 N 
ATOM      9  H   UNL d   1      25.619 -13.852  -0.789  0.00  0.00     0.162 HD
ATOM     10  O   UNL d   1      28.014 -12.680  -2.519  0.00  0.00    -0.274 OA
BRANCH   8  11
ATOM     11  C   UNL d   1      27.602 -13.555   0.036  0.00  0.00     0.124 C 
BRANCH  11  12
ATOM     12  C   UNL d   1      27.274 -14.597   1.068  0.00  0.00     0.039 C 
BRANCH  12  13
ATOM     13  C   UNL d   1      27.532 -16.068   0.800  0.00  0.00     0.124 C 
BRANCH  13  14
ATOM     14  N   UNL d   1      27.022 -16.565  -0.504  0.00  0.00    -0.381 N 
BRANCH  14  15
ATOM     15  C   UNL d   1      27.701 -16.532  -1.830  0.00  0.00     0.118 C 
ATOM     16  C   UNL d   1      29.214 -16.395  -1.910  0.00  0.00     0.026 C 
ENDBRANCH  14  15
BRANCH  14  17
ATOM     17  C   UNL d   1      25.669 -16.988  -0.547  0.00  0.00     0.030 A 
ATOM     18  C   UNL d   1      24.647 -16.127  -0.992  0.00  0.00     0.029 A 
ATOM     19  C   UNL d   1      23.288 -16.466  -0.904  0.00  0.00     0.002 A 
ATOM     20  C   UNL d   1      22.914 -17.727  -0.462  0.00  0.00     0.000 A 
ATOM     21  C   UNL d   1      23.902 -18.646  -0.131  0.00  0.00     0.002 A 
ATOM     22  C   UNL d   1      25.256 -18.267  -0.136  0.00  0.00     0.029 A 
ENDBRANCH  14  17
ENDBRANCH  13  14
ENDBRANCH  12  13
ENDBRANCH  11  12
ENDBRANCH   8  11
ENDBRANCH   6   7
ENDBRANCH   5   6
ENDBRANCH   1   5
BRANCH   3  23
ATOM     23  C   UNL d   1      28.764 -15.130  -5.409  0.00  0.00     0.035 C 
ATOM     24  C   UNL d   1      29.143 -14.277  -6.445  0.00  0.00     0.032 C 
ATOM     25  C   UNL d   1      30.270 -14.561  -7.223  0.00  0.00     0.033 C 
ATOM     26  C   UNL d   1      30.851 -15.830  -7.168  0.00  0.00     0.044 A 
ATOM     27  N   UNL d   1      31.786 -16.198  -8.064  0.00  0.00    -0.342 N 
ATOM     28  C   UNL d   1      30.395 -16.765  -6.213  0.00  0.00    -0.001 A 
ATOM     29  C   UNL d   1      32.274 -17.442  -8.192  0.00  0.00     0.104 A 
ATOM     30  H   UNL d   1      32.090 -15.538  -8.773  0.00  0.00     0.167 HD
ATOM     31  C   UNL d   1      31.816 -18.413  -7.305  0.00  0.00     0.056 A 
ATOM     32  C   UNL d   1      30.897 -18.081  -6.296  0.00  0.00    -0.046 A 
ATOM     33  C   UNL d   1      30.402 -19.152  -5.360  0.00  0.00     0.049 C 
ATOM     34  C   UNL d   1      29.433 -16.344  -5.259  0.00  0.00     0.043 C 
BRANCH  29  35
ATOM     35  N   UNL d   1      33.115 -17.669  -9.250  0.00  0.00    -0.363 N 
ATOM     36  C   UNL d   1      33.373 -19.034  -9.768  0.00  0.00     0.150 C 
ATOM     37  C   UNL d   1      34.807 -19.513  -9.491  0.00  0.00     0.187 C 
ATOM     38  O   UNL d   1      35.767 -18.546  -9.936  0.00  0.00    -0.388 OA
ATOM     39  C   UNL d   1      35.585 -17.304  -9.247  0.00  0.00     0.187 C 
ATOM     40  C   UNL d   1      34.199 -16.707  -9.546  0.00  0.00     0.150 C 
ENDBRANCH  29  35
ENDBRANCH   3  23
TORSDOF 11
ENDMDL
