MODEL 1
REMARK VINA RESULT:    -7.951      0.000      0.000
REMARK INTER + INTRA:         -10.585
REMARK INTER:                  -9.144
REMARK INTRA:                  -1.441
REMARK CONF_INDEPENDENT:        1.193
REMARK UNBOUND:                -1.441
REMARK  4 active torsions:
REMARK  status: ('A' for Active; 'I' for Inactive)
REMARK    1  A    between atoms: C_2  and  C_4 
REMARK       I    between atoms: C_4  and  N_6 
REMARK    2  A    between atoms: N_6  and  N_7 
REMARK       I    between atoms: N_7  and  C_8 
REMARK    3  A    between atoms: C_8  and  C_10 
REMARK    4  A    between atoms: C_13  and  C_14 
ROOT
ATOM      1  N   UNL d   1      22.274 -18.446  -0.620  0.00  0.00    -0.263 N 
ATOM      2  C   UNL d   1      23.499 -18.067  -0.101  0.00  0.00     0.270 C 
ATOM      3  O   UNL d   1      23.921 -18.493   0.980  0.00  0.00    -0.266 OA
ATOM      4  H   UNL d   1      21.933 -18.182  -1.543  0.00  0.00     0.190 HD
ENDROOT
BRANCH   2   5
ATOM      5  C   UNL d   1      24.316 -17.076  -0.862  0.00  0.00     0.033 A 
ATOM      6  C   UNL d   1      23.682 -15.985  -1.474  0.00  0.00     0.017 A 
ATOM      7  C   UNL d   1      24.370 -15.178  -2.393  0.00  0.00     0.008 A 
ATOM      8  C   UNL d   1      25.734 -15.385  -2.649  0.00  0.00    -0.055 A 
ATOM      9  C   UNL d   1      26.355 -16.478  -2.020  0.00  0.00     0.008 A 
ATOM     10  C   UNL d   1      25.663 -17.311  -1.133  0.00  0.00     0.017 A 
BRANCH   8  11
ATOM     11  C   UNL d   1      26.498 -14.412  -3.547  0.00  0.00     0.010 C 
ATOM     12  C   UNL d   1      26.493 -14.915  -4.998  0.00  0.00     0.015 C 
ATOM     13  C   UNL d   1      25.921 -12.990  -3.529  0.00  0.00     0.015 C 
ENDBRANCH   8  11
ENDBRANCH   2   5
BRANCH   1  14
ATOM     14  N   UNL d   1      21.464 -19.352   0.113  0.00  0.00    -0.267 N 
ATOM     15  C   UNL d   1      20.312 -19.844  -0.476  0.00  0.00     0.239 C 
ATOM     16  O   UNL d   1      19.974 -19.491  -1.607  0.00  0.00    -0.271 OA
ATOM     17  H   UNL d   1      21.784 -19.587   1.051  0.00  0.00     0.190 HD
BRANCH  15  18
ATOM     18  C   UNL d   1      19.476 -20.819   0.375  0.00  0.00     0.071 C 
ATOM     19  C   UNL d   1      19.559 -20.454   1.864  0.00  0.00     0.019 C 
ATOM     20  C   UNL d   1      18.007 -20.828  -0.042  0.00  0.00     0.019 C 
ENDBRANCH  15  18
ENDBRANCH   1  14
TORSDOF 4
ENDMDL
MODEL 2
REMARK VINA RESULT:    -7.925      0.456      1.219
REMARK INTER + INTRA:         -10.552
REMARK INTER:                  -9.118
REMARK INTRA:                  -1.434
REMARK CONF_INDEPENDENT:        1.193
REMARK UNBOUND:                -1.434
REMARK  4 active torsions:
REMARK  status: ('A' for Active; 'I' for Inactive)
REMARK    1  A    between atoms: C_2  and  C_4 
REMARK       I    between atoms: C_4  and  N_6 
REMARK    2  A    between atoms: N_6  and  N_7 
REMARK       I    between atoms: N_7  and  C_8 
REMARK    3  A    between atoms: C_8  and  C_10 
REMARK    4  A    between atoms: C_13  and  C_14 
ROOT
ATOM      1  N   UNL d   1      22.512 -18.451  -0.634  0.00  0.00    -0.263 N 
ATOM      2  C   UNL d   1      23.720 -17.966  -0.164  0.00  0.00     0.270 C 
ATOM      3  O   UNL d   1      24.128 -18.201   0.979  0.00  0.00    -0.266 OA
ATOM      4  H   UNL d   1      22.184 -18.349  -1.594  0.00  0.00     0.190 HD
ENDROOT
BRANCH   2   5
ATOM      5  C   UNL d   1      24.532 -17.095  -1.063  0.00  0.00     0.033 A 
ATOM      6  C   UNL d   1      25.922 -17.272  -1.123  0.00  0.00     0.017 A 
ATOM      7  C   UNL d   1      26.739 -16.325  -1.759  0.00  0.00     0.008 A 
ATOM      8  C   UNL d   1      26.178 -15.229  -2.431  0.00  0.00    -0.055 A 
ATOM      9  C   UNL d   1      24.783 -15.072  -2.368  0.00  0.00     0.008 A 
ATOM     10  C   UNL d   1      23.965 -15.992  -1.702  0.00  0.00     0.017 A 
BRANCH   8  11
ATOM     11  C   UNL d   1      27.074 -14.286  -3.234  0.00  0.00     0.010 C 
ATOM     12  C   UNL d   1      27.312 -14.851  -4.642  0.00  0.00     0.015 C 
ATOM     13  C   UNL d   1      26.494 -12.871  -3.375  0.00  0.00     0.015 C 
ENDBRANCH   8  11
ENDBRANCH   2   5
BRANCH   1  14
ATOM     14  N   UNL d   1      21.705 -19.243   0.223  0.00  0.00    -0.267 N 
ATOM     15  C   UNL d   1      20.577 -19.853  -0.297  0.00  0.00     0.239 C 
ATOM     16  O   UNL d   1      20.257 -19.700  -1.478  0.00  0.00    -0.271 OA
ATOM     17  H   UNL d   1      22.009 -19.312   1.193  0.00  0.00     0.190 HD
BRANCH  15  18
ATOM     18  C   UNL d   1      19.742 -20.694   0.688  0.00  0.00     0.071 C 
ATOM     19  C   UNL d   1      19.767 -20.075   2.093  0.00  0.00     0.019 C 
ATOM     20  C   UNL d   1      18.288 -20.825   0.239  0.00  0.00     0.019 C 
ENDBRANCH  15  18
ENDBRANCH   1  14
TORSDOF 4
ENDMDL
MODEL 3
REMARK VINA RESULT:    -7.738      1.547      2.326
REMARK INTER + INTRA:          -9.657
REMARK INTER:                  -8.931
REMARK INTRA:                  -0.726
REMARK CONF_INDEPENDENT:        1.193
REMARK UNBOUND:                -0.726
REMARK  4 active torsions:
REMARK  status: ('A' for Active; 'I' for Inactive)
REMARK    1  A    between atoms: C_2  and  C_4 
REMARK       I    between atoms: C_4  and  N_6 
REMARK    2  A    between atoms: N_6  and  N_7 
REMARK       I    between atoms: N_7  and  C_8 
REMARK    3  A    between atoms: C_8  and  C_10 
REMARK    4  A    between atoms: C_13  and  C_14 
ROOT
ATOM      1  N   UNL d   1      22.668 -19.057   0.183  0.00  0.00    -0.263 N 
ATOM      2  C   UNL d   1      22.964 -17.765  -0.214  0.00  0.00     0.270 C 
ATOM      3  O   UNL d   1      22.139 -16.847  -0.146  0.00  0.00    -0.266 OA
ATOM      4  H   UNL d   1      23.346 -19.818   0.219  0.00  0.00     0.190 HD
ENDROOT
BRANCH   2   5
ATOM      5  C   UNL d   1      24.316 -17.489  -0.781  0.00  0.00     0.033 A 
ATOM      6  C   UNL d   1      25.451 -18.015  -0.145  0.00  0.00     0.017 A 
ATOM      7  C   UNL d   1      26.737 -17.580  -0.499  0.00  0.00     0.008 A 
ATOM      8  C   UNL d   1      26.925 -16.681  -1.560  0.00  0.00    -0.055 A 
ATOM      9  C   UNL d   1      25.777 -16.172  -2.191  0.00  0.00     0.008 A 
ATOM     10  C   UNL d   1      24.489 -16.572  -1.817  0.00  0.00     0.017 A 
BRANCH   8  11
ATOM     11  C   UNL d   1      28.339 -16.327  -2.019  0.00  0.00     0.010 C 
ATOM     12  C   UNL d   1      28.321 -15.025  -2.834  0.00  0.00     0.015 C 
ATOM     13  C   UNL d   1      29.328 -16.154  -0.858  0.00  0.00     0.015 C 
ENDBRANCH   8  11
ENDBRANCH   2   5
BRANCH   1  14
ATOM     14  N   UNL d   1      21.372 -19.349   0.681  0.00  0.00    -0.267 N 
ATOM     15  C   UNL d   1      20.369 -19.676  -0.215  0.00  0.00     0.239 C 
ATOM     16  O   UNL d   1      20.581 -19.695  -1.429  0.00  0.00    -0.271 OA
ATOM     17  H   UNL d   1      21.254 -19.293   1.692  0.00  0.00     0.190 HD
BRANCH  15  18
ATOM     18  C   UNL d   1      18.986 -19.976   0.392  0.00  0.00     0.071 C 
ATOM     19  C   UNL d   1      18.798 -21.485   0.605  0.00  0.00     0.019 C 
ATOM     20  C   UNL d   1      18.781 -19.267   1.730  0.00  0.00     0.019 C 
ENDBRANCH  15  18
ENDBRANCH   1  14
TORSDOF 4
ENDMDL
MODEL 4
REMARK VINA RESULT:    -7.139      2.929      7.814
REMARK INTER + INTRA:          -9.752
REMARK INTER:                  -8.332
REMARK INTRA:                  -1.421
REMARK CONF_INDEPENDENT:        1.193
REMARK UNBOUND:                -1.421
REMARK  4 active torsions:
REMARK  status: ('A' for Active; 'I' for Inactive)
REMARK    1  A    between atoms: C_2  and  C_4 
REMARK       I    between atoms: C_4  and  N_6 
REMARK    2  A    between atoms: N_6  and  N_7 
REMARK       I    between atoms: N_7  and  C_8 
REMARK    3  A    between atoms: C_8  and  C_10 
REMARK    4  A    between atoms: C_13  and  C_14 
ROOT
ATOM      1  N   UNL d   1      25.575 -16.199  -2.775  0.00  0.00    -0.263 N 
ATOM      2  C   UNL d   1      25.393 -16.351  -1.412  0.00  0.00     0.270 C 
ATOM      3  O   UNL d   1      26.184 -15.889  -0.583  0.00  0.00    -0.266 OA
ATOM      4  H   UNL d   1      24.903 -16.493  -3.483  0.00  0.00     0.190 HD
ENDROOT
BRANCH   2   5
ATOM      5  C   UNL d   1      24.217 -17.138  -0.938  0.00  0.00     0.033 A 
ATOM      6  C   UNL d   1      24.357 -18.515  -0.705  0.00  0.00     0.017 A 
ATOM      7  C   UNL d   1      23.230 -19.325  -0.499  0.00  0.00     0.008 A 
ATOM      8  C   UNL d   1      21.946 -18.765  -0.426  0.00  0.00    -0.055 A 
ATOM      9  C   UNL d   1      21.826 -17.383  -0.653  0.00  0.00     0.008 A 
ATOM     10  C   UNL d   1      22.942 -16.574  -0.898  0.00  0.00     0.017 A 
BRANCH   8  11
ATOM     11  C   UNL d   1      20.749 -19.643  -0.065  0.00  0.00     0.010 C 
ATOM     12  C   UNL d   1      20.396 -19.474   1.421  0.00  0.00     0.015 C 
ATOM     13  C   UNL d   1      19.495 -19.334  -0.894  0.00  0.00     0.015 C 
ENDBRANCH   8  11
ENDBRANCH   2   5
BRANCH   1  14
ATOM     14  N   UNL d   1      26.713 -15.494  -3.246  0.00  0.00    -0.267 N 
ATOM     15  C   UNL d   1      26.832 -15.248  -4.603  0.00  0.00     0.239 C 
ATOM     16  O   UNL d   1      25.983 -15.651  -5.401  0.00  0.00    -0.271 OA
ATOM     17  H   UNL d   1      27.390 -15.208  -2.541  0.00  0.00     0.190 HD
BRANCH  15  18
ATOM     18  C   UNL d   1      28.092 -14.482  -5.047  0.00  0.00     0.071 C 
ATOM     19  C   UNL d   1      29.081 -15.418  -5.756  0.00  0.00     0.019 C 
ATOM     20  C   UNL d   1      27.757 -13.326  -5.988  0.00  0.00     0.019 C 
ENDBRANCH  15  18
ENDBRANCH   1  14
TORSDOF 4
ENDMDL
MODEL 5
REMARK VINA RESULT:    -6.928      1.885      2.536
REMARK INTER + INTRA:          -9.419
REMARK INTER:                  -8.121
REMARK INTRA:                  -1.298
REMARK CONF_INDEPENDENT:        1.193
REMARK UNBOUND:                -1.298
REMARK  4 active torsions:
REMARK  status: ('A' for Active; 'I' for Inactive)
REMARK    1  A    between atoms: C_2  and  C_4 
REMARK       I    between atoms: C_4  and  N_6 
REMARK    2  A    between atoms: N_6  and  N_7 
REMARK       I    between atoms: N_7  and  C_8 
REMARK    3  A    between atoms: C_8  and  C_10 
REMARK    4  A    between atoms: C_13  and  C_14 
ROOT
ATOM      1  N   UNL d   1      22.093 -18.508   0.147  0.00  0.00    -0.263 N 
ATOM      2  C   UNL d   1      23.010 -18.462  -0.887  0.00  0.00     0.270 C 
ATOM      3  O   UNL d   1      22.887 -19.141  -1.913  0.00  0.00    -0.266 OA
ATOM      4  H   UNL d   1      22.118 -17.902   0.967  0.00  0.00     0.190 HD
ENDROOT
BRANCH   2   5
ATOM      5  C   UNL d   1      24.210 -17.588  -0.733  0.00  0.00     0.033 A 
ATOM      6  C   UNL d   1      24.420 -16.538  -1.639  0.00  0.00     0.017 A 
ATOM      7  C   UNL d   1      25.647 -15.858  -1.677  0.00  0.00     0.008 A 
ATOM      8  C   UNL d   1      26.657 -16.146  -0.747  0.00  0.00    -0.055 A 
ATOM      9  C   UNL d   1      26.425 -17.195   0.160  0.00  0.00     0.008 A 
ATOM     10  C   UNL d   1      25.218 -17.904   0.177  0.00  0.00     0.017 A 
BRANCH   8  11
ATOM     11  C   UNL d   1      27.930 -15.301  -0.716  0.00  0.00     0.010 C 
ATOM     12  C   UNL d   1      28.684 -15.526   0.604  0.00  0.00     0.015 C 
ATOM     13  C   UNL d   1      28.889 -15.606  -1.875  0.00  0.00     0.015 C 
ENDBRANCH   8  11
ENDBRANCH   2   5
BRANCH   1  14
ATOM     14  N   UNL d   1      20.970 -19.369   0.037  0.00  0.00    -0.267 N 
ATOM     15  C   UNL d   1      20.280 -19.716   1.185  0.00  0.00     0.239 C 
ATOM     16  O   UNL d   1      20.639 -19.310   2.292  0.00  0.00    -0.271 OA
ATOM     17  H   UNL d   1      20.737 -19.689  -0.901  0.00  0.00     0.190 HD
BRANCH  15  18
ATOM     18  C   UNL d   1      19.074 -20.656   0.996  0.00  0.00     0.071 C 
ATOM     19  C   UNL d   1      18.034 -20.441   2.105  0.00  0.00     0.019 C 
ATOM     20  C   UNL d   1      18.394 -20.450  -0.356  0.00  0.00     0.019 C 
ENDBRANCH  15  18
ENDBRANCH   1  14
TORSDOF 4
ENDMDL
MODEL 6
REMARK VINA RESULT:    -6.800      1.735      2.055
REMARK INTER + INTRA:          -8.699
REMARK INTER:                  -7.993
REMARK INTRA:                  -0.706
REMARK CONF_INDEPENDENT:        1.193
REMARK UNBOUND:                -0.706
REMARK  4 active torsions:
REMARK  status: ('A' for Active; 'I' for Inactive)
REMARK    1  A    between atoms: C_2  and  C_4 
REMARK       I    between atoms: C_4  and  N_6 
REMARK    2  A    between atoms: N_6  and  N_7 
REMARK       I    between atoms: N_7  and  C_8 
REMARK    3  A    between atoms: C_8  and  C_10 
REMARK    4  A    between atoms: C_13  and  C_14 
ROOT
ATOM      1  N   UNL d   1      23.255 -17.220  -0.440  0.00  0.00    -0.263 N 
ATOM      2  C   UNL d   1      24.511 -17.797  -0.401  0.00  0.00     0.270 C 
ATOM      3  O   UNL d   1      24.711 -18.913   0.092  0.00  0.00    -0.266 OA
ATOM      4  H   UNL d   1      23.039 -16.342  -0.912  0.00  0.00     0.190 HD
ENDROOT
BRANCH   2   5
ATOM      5  C   UNL d   1      25.666 -17.020  -0.938  0.00  0.00     0.033 A 
ATOM      6  C   UNL d   1      25.453 -16.088  -1.964  0.00  0.00     0.017 A 
ATOM      7  C   UNL d   1      26.535 -15.524  -2.657  0.00  0.00     0.008 A 
ATOM      8  C   UNL d   1      27.856 -15.806  -2.277  0.00  0.00    -0.055 A 
ATOM      9  C   UNL d   1      28.051 -16.734  -1.241  0.00  0.00     0.008 A 
ATOM     10  C   UNL d   1      26.975 -17.331  -0.571  0.00  0.00     0.017 A 
BRANCH   8  11
ATOM     11  C   UNL d   1      29.016 -15.076  -2.953  0.00  0.00     0.010 C 
ATOM     12  C   UNL d   1      30.081 -16.084  -3.412  0.00  0.00     0.015 C 
ATOM     13  C   UNL d   1      28.585 -14.245  -4.170  0.00  0.00     0.015 C 
ENDBRANCH   8  11
ENDBRANCH   2   5
BRANCH   1  14
ATOM     14  N   UNL d   1      22.151 -17.924   0.108  0.00  0.00    -0.267 N 
ATOM     15  C   UNL d   1      21.625 -18.993  -0.596  0.00  0.00     0.239 C 
ATOM     16  O   UNL d   1      22.084 -19.323  -1.692  0.00  0.00    -0.271 OA
ATOM     17  H   UNL d   1      21.803 -17.590   1.005  0.00  0.00     0.190 HD
BRANCH  15  18
ATOM     18  C   UNL d   1      20.427 -19.712   0.053  0.00  0.00     0.071 C 
ATOM     19  C   UNL d   1      20.294 -19.325   1.533  0.00  0.00     0.019 C 
ATOM     20  C   UNL d   1      19.113 -19.387  -0.655  0.00  0.00     0.019 C 
ENDBRANCH  15  18
ENDBRANCH   1  14
TORSDOF 4
ENDMDL
MODEL 7
REMARK VINA RESULT:    -5.675      3.094      7.920
REMARK INTER + INTRA:          -8.296
REMARK INTER:                  -6.869
REMARK INTRA:                  -1.427
REMARK CONF_INDEPENDENT:        1.193
REMARK UNBOUND:                -1.427
REMARK  4 active torsions:
REMARK  status: ('A' for Active; 'I' for Inactive)
REMARK    1  A    between atoms: C_2  and  C_4 
REMARK       I    between atoms: C_4  and  N_6 
REMARK    2  A    between atoms: N_6  and  N_7 
REMARK       I    between atoms: N_7  and  C_8 
REMARK    3  A    between atoms: C_8  and  C_10 
REMARK    4  A    between atoms: C_13  and  C_14 
ROOT
ATOM      1  N   UNL d   1      25.537 -14.975  -2.028  0.00  0.00    -0.263 N 
ATOM      2  C   UNL d   1      25.499 -15.812  -0.927  0.00  0.00     0.270 C 
ATOM      3  O   UNL d   1      26.358 -15.777  -0.038  0.00  0.00    -0.266 OA
ATOM      4  H   UNL d   1      24.805 -14.918  -2.735  0.00  0.00     0.190 HD
ENDROOT
BRANCH   2   5
ATOM      5  C   UNL d   1      24.400 -16.818  -0.839  0.00  0.00     0.033 A 
ATOM      6  C   UNL d   1      23.067 -16.392  -0.922  0.00  0.00     0.017 A 
ATOM      7  C   UNL d   1      22.014 -17.263  -0.600  0.00  0.00     0.008 A 
ATOM      8  C   UNL d   1      22.265 -18.605  -0.281  0.00  0.00    -0.055 A 
ATOM      9  C   UNL d   1      23.607 -19.017  -0.212  0.00  0.00     0.008 A 
ATOM     10  C   UNL d   1      24.664 -18.143  -0.493  0.00  0.00     0.017 A 
BRANCH   8  11
ATOM     11  C   UNL d   1      21.099 -19.570  -0.069  0.00  0.00     0.010 C 
ATOM     12  C   UNL d   1      20.492 -19.369   1.327  0.00  0.00     0.015 C 
ATOM     13  C   UNL d   1      19.980 -19.408  -1.108  0.00  0.00     0.015 C 
ENDBRANCH   8  11
ENDBRANCH   2   5
BRANCH   1  14
ATOM     14  N   UNL d   1      26.601 -14.043  -2.152  0.00  0.00    -0.267 N 
ATOM     15  C   UNL d   1      26.589 -13.153  -3.211  0.00  0.00     0.239 C 
ATOM     16  O   UNL d   1      25.687 -13.174  -4.051  0.00  0.00    -0.271 OA
ATOM     17  H   UNL d   1      27.328 -14.091  -1.439  0.00  0.00     0.190 HD
BRANCH  15  18
ATOM     18  C   UNL d   1      27.774 -12.172  -3.288  0.00  0.00     0.071 C 
ATOM     19  C   UNL d   1      28.007 -11.709  -4.733  0.00  0.00     0.019 C 
ATOM     20  C   UNL d   1      27.556 -10.940  -2.411  0.00  0.00     0.019 C 
ENDBRANCH  15  18
ENDBRANCH   1  14
TORSDOF 4
ENDMDL
MODEL 8
REMARK VINA RESULT:    -5.671      3.310      5.502
REMARK INTER + INTRA:          -8.290
REMARK INTER:                  -6.864
REMARK INTRA:                  -1.426
REMARK CONF_INDEPENDENT:        1.193
REMARK UNBOUND:                -1.426
REMARK  4 active torsions:
REMARK  status: ('A' for Active; 'I' for Inactive)
REMARK    1  A    between atoms: C_2  and  C_4 
REMARK       I    between atoms: C_4  and  N_6 
REMARK    2  A    between atoms: N_6  and  N_7 
REMARK       I    between atoms: N_7  and  C_8 
REMARK    3  A    between atoms: C_8  and  C_10 
REMARK    4  A    between atoms: C_13  and  C_14 
ROOT
ATOM      1  N   UNL d   1      25.619 -15.470  -2.829  0.00  0.00    -0.263 N 
ATOM      2  C   UNL d   1      25.302 -14.502  -3.765  0.00  0.00     0.270 C 
ATOM      3  O   UNL d   1      24.151 -14.075  -3.912  0.00  0.00    -0.266 OA
ATOM      4  H   UNL d   1      26.567 -15.783  -2.622  0.00  0.00     0.190 HD
ENDROOT
BRANCH   2   5
ATOM      5  C   UNL d   1      26.388 -13.989  -4.650  0.00  0.00     0.033 A 
ATOM      6  C   UNL d   1      26.399 -12.635  -5.016  0.00  0.00     0.017 A 
ATOM      7  C   UNL d   1      27.249 -12.173  -6.032  0.00  0.00     0.008 A 
ATOM      8  C   UNL d   1      28.175 -13.034  -6.640  0.00  0.00    -0.055 A 
ATOM      9  C   UNL d   1      28.156 -14.385  -6.255  0.00  0.00     0.008 A 
ATOM     10  C   UNL d   1      27.283 -14.861  -5.270  0.00  0.00     0.017 A 
BRANCH   8  11
ATOM     11  C   UNL d   1      29.184 -12.481  -7.645  0.00  0.00     0.010 C 
ATOM     12  C   UNL d   1      30.458 -13.339  -7.644  0.00  0.00     0.015 C 
ATOM     13  C   UNL d   1      28.644 -12.426  -9.081  0.00  0.00     0.015 C 
ENDBRANCH   8  11
ENDBRANCH   2   5
BRANCH   1  14
ATOM     14  N   UNL d   1      24.590 -16.003  -2.009  0.00  0.00    -0.267 N 
ATOM     15  C   UNL d   1      24.906 -17.004  -1.107  0.00  0.00     0.239 C 
ATOM     16  O   UNL d   1      26.052 -17.449  -1.024  0.00  0.00    -0.271 OA
ATOM     17  H   UNL d   1      23.659 -15.610  -2.141  0.00  0.00     0.190 HD
BRANCH  15  18
ATOM     18  C   UNL d   1      23.742 -17.540  -0.251  0.00  0.00     0.071 C 
ATOM     19  C   UNL d   1      22.456 -16.747  -0.520  0.00  0.00     0.019 C 
ATOM     20  C   UNL d   1      23.468 -19.018  -0.521  0.00  0.00     0.019 C 
ENDBRANCH  15  18
ENDBRANCH   1  14
TORSDOF 4
ENDMDL
MODEL 9
REMARK VINA RESULT:    -5.654      3.263      5.172
REMARK INTER + INTRA:          -8.280
REMARK INTER:                  -6.847
REMARK INTRA:                  -1.432
REMARK CONF_INDEPENDENT:        1.193
REMARK UNBOUND:                -1.432
REMARK  4 active torsions:
REMARK  status: ('A' for Active; 'I' for Inactive)
REMARK    1  A    between atoms: C_2  and  C_4 
REMARK       I    between atoms: C_4  and  N_6 
REMARK    2  A    between atoms: N_6  and  N_7 
REMARK       I    between atoms: N_7  and  C_8 
REMARK    3  A    between atoms: C_8  and  C_10 
REMARK    4  A    between atoms: C_13  and  C_14 
ROOT
ATOM      1  N   UNL d   1      25.879 -16.326  -2.459  0.00  0.00    -0.263 N 
ATOM      2  C   UNL d   1      25.905 -15.421  -3.505  0.00  0.00     0.270 C 
ATOM      3  O   UNL d   1      24.893 -14.822  -3.887  0.00  0.00    -0.266 OA
ATOM      4  H   UNL d   1      26.705 -16.773  -2.063  0.00  0.00     0.190 HD
ENDROOT
BRANCH   2   5
ATOM      5  C   UNL d   1      27.197 -15.195  -4.215  0.00  0.00     0.033 A 
ATOM      6  C   UNL d   1      27.185 -14.769  -5.552  0.00  0.00     0.017 A 
ATOM      7  C   UNL d   1      28.358 -14.784  -6.320  0.00  0.00     0.008 A 
ATOM      8  C   UNL d   1      29.589 -15.134  -5.745  0.00  0.00    -0.055 A 
ATOM      9  C   UNL d   1      29.585 -15.549  -4.402  0.00  0.00     0.008 A 
ATOM     10  C   UNL d   1      28.410 -15.574  -3.641  0.00  0.00     0.017 A 
BRANCH   8  11
ATOM     11  C   UNL d   1      30.875 -15.011  -6.561  0.00  0.00     0.010 C 
ATOM     12  C   UNL d   1      31.181 -16.337  -7.272  0.00  0.00     0.015 C 
ATOM     13  C   UNL d   1      30.819 -13.900  -7.619  0.00  0.00     0.015 C 
ENDBRANCH   8  11
ENDBRANCH   2   5
BRANCH   1  14
ATOM     14  N   UNL d   1      24.649 -16.588  -1.801  0.00  0.00    -0.267 N 
ATOM     15  C   UNL d   1      24.614 -17.551  -0.808  0.00  0.00     0.239 C 
ATOM     16  O   UNL d   1      25.622 -18.193  -0.507  0.00  0.00    -0.271 OA
ATOM     17  H   UNL d   1      23.846 -16.042  -2.111  0.00  0.00     0.190 HD
BRANCH  15  18
ATOM     18  C   UNL d   1      23.247 -17.788  -0.138  0.00  0.00     0.071 C 
ATOM     19  C   UNL d   1      22.252 -16.683  -0.520  0.00  0.00     0.019 C 
ATOM     20  C   UNL d   1      22.647 -19.139  -0.525  0.00  0.00     0.019 C 
ENDBRANCH  15  18
ENDBRANCH   1  14
TORSDOF 4
ENDMDL
