MODEL 1
REMARK VINA RESULT:    -6.859      0.000      0.000
REMARK INTER + INTRA:         -10.370
REMARK INTER:                  -8.351
REMARK INTRA:                  -2.019
REMARK CONF_INDEPENDENT:        1.492
REMARK UNBOUND:                -2.019
REMARK  5 active torsions:
REMARK  status: ('A' for Active; 'I' for Inactive)
REMARK       I    between atoms: C_2  and  N_3 
REMARK    1  A    between atoms: C_2  and  C_17 
REMARK    2  A    between atoms: N_3  and  N_4 
REMARK       I    between atoms: N_4  and  C_5 
REMARK    3  A    between atoms: C_5  and  C_7 
REMARK    4  A    between atoms: C_9  and  C_10 
REMARK    5  A    between atoms: C_22  and  O_23 
ROOT
ATOM      1  N   UNL d   1      27.713 -14.918   0.304  0.00  0.00    -0.267 N 
ATOM      2  C   UNL d   1      28.218 -15.747  -0.681  0.00  0.00     0.240 C 
ATOM      3  O   UNL d   1      29.078 -16.601  -0.451  0.00  0.00    -0.271 OA
ATOM      4  H   UNL d   1      27.030 -14.186   0.118  0.00  0.00     0.190 HD
ENDROOT
BRANCH   1   5
ATOM      5  N   UNL d   1      28.323 -14.821   1.578  0.00  0.00    -0.263 N 
ATOM      6  C   UNL d   1      27.825 -13.859   2.450  0.00  0.00     0.272 C 
ATOM      7  O   UNL d   1      27.005 -13.012   2.101  0.00  0.00    -0.266 OA
ATOM      8  H   UNL d   1      28.925 -15.589   1.857  0.00  0.00     0.190 HD
BRANCH   6   9
ATOM      9  C   UNL d   1      28.312 -13.874   3.853  0.00  0.00     0.066 A 
ATOM     10  C   UNL d   1      27.494 -13.442   4.907  0.00  0.00     0.020 A 
ATOM     11  C   UNL d   1      27.944 -13.547   6.230  0.00  0.00     0.001 A 
ATOM     12  C   UNL d   1      29.206 -14.075   6.507  0.00  0.00     0.003 A 
ATOM     13  C   UNL d   1      30.026 -14.508   5.464  0.00  0.00     0.037 A 
ATOM     14  C   UNL d   1      29.578 -14.410   4.145  0.00  0.00     0.081 A 
BRANCH  14  15
ATOM     15  O   UNL d   1      30.399 -14.805   3.124  0.00  0.00    -0.360 OA
ATOM     16  H   UNL d   1      30.029 -15.575   2.666  0.00  0.00     0.217 HD
ENDBRANCH  14  15
ENDBRANCH   6   9
ENDBRANCH   1   5
BRANCH   2  17
ATOM     17  C   UNL d   1      27.613 -15.667  -2.063  0.00  0.00     0.088 A 
ATOM     18  C   UNL d   1      26.542 -14.649  -2.431  0.00  0.00     0.025 A 
ATOM     19  C   UNL d   1      26.201 -16.112  -2.429  0.00  0.00     0.032 A 
BRANCH  19  20
ATOM     20  C   UNL d   1      25.322 -16.750  -1.383  0.00  0.00    -0.050 A 
ATOM     21  C   UNL d   1      25.753 -17.827  -0.582  0.00  0.00     0.007 A 
ATOM     22  C   UNL d   1      24.860 -18.561   0.195  0.00  0.00     0.004 A 
ATOM     23  C   UNL d   1      23.517 -18.201   0.228  0.00  0.00     0.042 A 
ATOM     24  C   UNL d   1      23.079 -17.119  -0.521  0.00  0.00     0.116 A 
ATOM     25  F   UNL d   1      21.780 -16.793  -0.522  0.00  0.00    -0.206 F 
ATOM     26  C   UNL d   1      23.962 -16.398  -1.318  0.00  0.00     0.049 A 
ENDBRANCH  19  20
ENDBRANCH   2  17
TORSDOF 5
ENDMDL
MODEL 2
REMARK VINA RESULT:    -6.528      5.265      7.263
REMARK INTER + INTRA:         -10.171
REMARK INTER:                  -8.020
REMARK INTRA:                  -2.151
REMARK CONF_INDEPENDENT:        1.492
REMARK UNBOUND:                -2.151
REMARK  5 active torsions:
REMARK  status: ('A' for Active; 'I' for Inactive)
REMARK       I    between atoms: C_2  and  N_3 
REMARK    1  A    between atoms: C_2  and  C_17 
REMARK    2  A    between atoms: N_3  and  N_4 
REMARK       I    between atoms: N_4  and  C_5 
REMARK    3  A    between atoms: C_5  and  C_7 
REMARK    4  A    between atoms: C_9  and  C_10 
REMARK    5  A    between atoms: C_22  and  O_23 
ROOT
ATOM      1  N   UNL d   1      27.137 -15.130  -3.585  0.00  0.00    -0.267 N 
ATOM      2  C   UNL d   1      27.384 -15.103  -4.945  0.00  0.00     0.240 C 
ATOM      3  O   UNL d   1      26.598 -15.575  -5.770  0.00  0.00    -0.271 OA
ATOM      4  H   UNL d   1      27.795 -14.775  -2.893  0.00  0.00     0.190 HD
ENDROOT
BRANCH   1   5
ATOM      5  N   UNL d   1      26.097 -15.917  -3.034  0.00  0.00    -0.263 N 
ATOM      6  C   UNL d   1      26.081 -16.073  -1.652  0.00  0.00     0.272 C 
ATOM      7  O   UNL d   1      27.003 -15.692  -0.933  0.00  0.00    -0.266 OA
ATOM      8  H   UNL d   1      25.315 -16.133  -3.643  0.00  0.00     0.190 HD
BRANCH   6   9
ATOM      9  C   UNL d   1      24.894 -16.723  -1.039  0.00  0.00     0.066 A 
ATOM     10  C   UNL d   1      23.601 -16.232  -1.270  0.00  0.00     0.020 A 
ATOM     11  C   UNL d   1      22.492 -16.913  -0.753  0.00  0.00     0.001 A 
ATOM     12  C   UNL d   1      22.665 -18.079  -0.003  0.00  0.00     0.003 A 
ATOM     13  C   UNL d   1      23.948 -18.575   0.230  0.00  0.00     0.037 A 
ATOM     14  C   UNL d   1      25.056 -17.900  -0.290  0.00  0.00     0.081 A 
BRANCH  14  15
ATOM     15  O   UNL d   1      26.313 -18.373  -0.031  0.00  0.00    -0.360 OA
ATOM     16  H   UNL d   1      26.956 -17.648  -0.018  0.00  0.00     0.217 HD
ENDBRANCH  14  15
ENDBRANCH   6   9
ENDBRANCH   1   5
BRANCH   2  17
ATOM     17  C   UNL d   1      28.614 -14.374  -5.434  0.00  0.00     0.088 A 
ATOM     18  C   UNL d   1      29.040 -14.375  -6.896  0.00  0.00     0.025 A 
ATOM     19  C   UNL d   1      29.913 -15.042  -5.871  0.00  0.00     0.032 A 
BRANCH  19  20
ATOM     20  C   UNL d   1      30.058 -16.539  -5.764  0.00  0.00    -0.050 A 
ATOM     21  C   UNL d   1      30.030 -17.218  -4.529  0.00  0.00     0.007 A 
ATOM     22  C   UNL d   1      30.412 -18.554  -4.423  0.00  0.00     0.004 A 
ATOM     23  C   UNL d   1      30.784 -19.258  -5.564  0.00  0.00     0.042 A 
ATOM     24  C   UNL d   1      30.779 -18.619  -6.795  0.00  0.00     0.116 A 
ATOM     25  F   UNL d   1      31.173 -19.283  -7.890  0.00  0.00    -0.206 F 
ATOM     26  C   UNL d   1      30.423 -17.279  -6.903  0.00  0.00     0.049 A 
ENDBRANCH  19  20
ENDBRANCH   2  17
TORSDOF 5
ENDMDL
MODEL 3
REMARK VINA RESULT:    -6.467      1.267      1.829
REMARK INTER + INTRA:          -9.977
REMARK INTER:                  -7.958
REMARK INTRA:                  -2.018
REMARK CONF_INDEPENDENT:        1.492
REMARK UNBOUND:                -2.018
REMARK  5 active torsions:
REMARK  status: ('A' for Active; 'I' for Inactive)
REMARK       I    between atoms: C_2  and  N_3 
REMARK    1  A    between atoms: C_2  and  C_17 
REMARK    2  A    between atoms: N_3  and  N_4 
REMARK       I    between atoms: N_4  and  C_5 
REMARK    3  A    between atoms: C_5  and  C_7 
REMARK    4  A    between atoms: C_9  and  C_10 
REMARK    5  A    between atoms: C_22  and  O_23 
ROOT
ATOM      1  N   UNL d   1      28.333 -15.128   1.550  0.00  0.00    -0.267 N 
ATOM      2  C   UNL d   1      27.377 -15.123   0.551  0.00  0.00     0.240 C 
ATOM      3  O   UNL d   1      26.338 -14.464   0.633  0.00  0.00    -0.271 OA
ATOM      4  H   UNL d   1      29.177 -15.696   1.510  0.00  0.00     0.190 HD
ENDROOT
BRANCH   1   5
ATOM      5  N   UNL d   1      28.072 -14.583   2.831  0.00  0.00    -0.263 N 
ATOM      6  C   UNL d   1      29.168 -14.305   3.640  0.00  0.00     0.272 C 
ATOM      7  O   UNL d   1      30.311 -14.655   3.348  0.00  0.00    -0.266 OA
ATOM      8  H   UNL d   1      27.136 -14.227   2.995  0.00  0.00     0.190 HD
BRANCH   6   9
ATOM      9  C   UNL d   1      28.931 -13.552   4.899  0.00  0.00     0.066 A 
ATOM     10  C   UNL d   1      28.054 -12.459   4.932  0.00  0.00     0.020 A 
ATOM     11  C   UNL d   1      27.780 -11.820   6.148  0.00  0.00     0.001 A 
ATOM     12  C   UNL d   1      28.379 -12.262   7.329  0.00  0.00     0.003 A 
ATOM     13  C   UNL d   1      29.252 -13.349   7.305  0.00  0.00     0.037 A 
ATOM     14  C   UNL d   1      29.523 -13.992   6.094  0.00  0.00     0.081 A 
BRANCH  14  15
ATOM     15  O   UNL d   1      30.405 -15.037   6.070  0.00  0.00    -0.360 OA
ATOM     16  H   UNL d   1      31.055 -14.921   5.361  0.00  0.00     0.217 HD
ENDBRANCH  14  15
ENDBRANCH   6   9
ENDBRANCH   1   5
BRANCH   2  17
ATOM     17  C   UNL d   1      27.675 -15.873  -0.726  0.00  0.00     0.088 A 
ATOM     18  C   UNL d   1      27.076 -15.475  -2.069  0.00  0.00     0.025 A 
ATOM     19  C   UNL d   1      26.697 -16.791  -1.451  0.00  0.00     0.032 A 
BRANCH  19  20
ATOM     20  C   UNL d   1      25.337 -17.058  -0.856  0.00  0.00    -0.050 A 
ATOM     21  C   UNL d   1      25.053 -18.212  -0.098  0.00  0.00     0.007 A 
ATOM     22  C   UNL d   1      23.746 -18.566   0.230  0.00  0.00     0.004 A 
ATOM     23  C   UNL d   1      22.692 -17.742  -0.152  0.00  0.00     0.042 A 
ATOM     24  C   UNL d   1      22.953 -16.581  -0.864  0.00  0.00     0.116 A 
ATOM     25  F   UNL d   1      21.938 -15.805  -1.266  0.00  0.00    -0.206 F 
ATOM     26  C   UNL d   1      24.254 -16.235  -1.215  0.00  0.00     0.049 A 
ENDBRANCH  19  20
ENDBRANCH   2  17
TORSDOF 5
ENDMDL
MODEL 4
REMARK VINA RESULT:    -6.385      4.951      7.915
REMARK INTER + INTRA:          -9.582
REMARK INTER:                  -7.876
REMARK INTRA:                  -1.706
REMARK CONF_INDEPENDENT:        1.492
REMARK UNBOUND:                -1.706
REMARK  5 active torsions:
REMARK  status: ('A' for Active; 'I' for Inactive)
REMARK       I    between atoms: C_2  and  N_3 
REMARK    1  A    between atoms: C_2  and  C_17 
REMARK    2  A    between atoms: N_3  and  N_4 
REMARK       I    between atoms: N_4  and  C_5 
REMARK    3  A    between atoms: C_5  and  C_7 
REMARK    4  A    between atoms: C_9  and  C_10 
REMARK    5  A    between atoms: C_22  and  O_23 
ROOT
ATOM      1  N   UNL d   1      27.629 -14.876  -4.721  0.00  0.00    -0.267 N 
ATOM      2  C   UNL d   1      26.271 -15.042  -4.920  0.00  0.00     0.240 C 
ATOM      3  O   UNL d   1      25.811 -15.950  -5.617  0.00  0.00    -0.271 OA
ATOM      4  H   UNL d   1      28.022 -14.110  -4.177  0.00  0.00     0.190 HD
ENDROOT
BRANCH   1   5
ATOM      5  N   UNL d   1      28.585 -15.575  -5.497  0.00  0.00    -0.263 N 
ATOM      6  C   UNL d   1      29.369 -16.519  -4.842  0.00  0.00     0.272 C 
ATOM      7  O   UNL d   1      29.367 -16.647  -3.619  0.00  0.00    -0.266 OA
ATOM      8  H   UNL d   1      28.492 -15.509  -6.505  0.00  0.00     0.190 HD
BRANCH   6   9
ATOM      9  C   UNL d   1      30.233 -17.400  -5.670  0.00  0.00     0.066 A 
ATOM     10  C   UNL d   1      30.493 -18.723  -5.287  0.00  0.00     0.020 A 
ATOM     11  C   UNL d   1      31.239 -19.560  -6.128  0.00  0.00     0.001 A 
ATOM     12  C   UNL d   1      31.731 -19.083  -7.344  0.00  0.00     0.003 A 
ATOM     13  C   UNL d   1      31.476 -17.768  -7.733  0.00  0.00     0.037 A 
ATOM     14  C   UNL d   1      30.728 -16.933  -6.899  0.00  0.00     0.081 A 
BRANCH  14  15
ATOM     15  O   UNL d   1      30.509 -15.634  -7.270  0.00  0.00    -0.360 OA
ATOM     16  H   UNL d   1      29.897 -15.590  -8.020  0.00  0.00     0.217 HD
ENDBRANCH  14  15
ENDBRANCH   6   9
ENDBRANCH   1   5
BRANCH   2  17
ATOM     17  C   UNL d   1      25.322 -14.137  -4.170  0.00  0.00     0.088 A 
ATOM     18  C   UNL d   1      25.764 -13.289  -2.985  0.00  0.00     0.025 A 
ATOM     19  C   UNL d   1      24.780 -14.403  -2.770  0.00  0.00     0.032 A 
BRANCH  19  20
ATOM     20  C   UNL d   1      25.134 -15.686  -2.060  0.00  0.00    -0.050 A 
ATOM     21  C   UNL d   1      24.158 -16.569  -1.557  0.00  0.00     0.007 A 
ATOM     22  C   UNL d   1      24.493 -17.611  -0.694  0.00  0.00     0.004 A 
ATOM     23  C   UNL d   1      25.825 -17.825  -0.355  0.00  0.00     0.042 A 
ATOM     24  C   UNL d   1      26.806 -16.992  -0.873  0.00  0.00     0.116 A 
ATOM     25  F   UNL d   1      28.085 -17.171  -0.518  0.00  0.00    -0.206 F 
ATOM     26  C   UNL d   1      26.474 -15.935  -1.714  0.00  0.00     0.049 A 
ENDBRANCH  19  20
ENDBRANCH   2  17
TORSDOF 5
ENDMDL
MODEL 5
REMARK VINA RESULT:    -6.187      5.265      7.536
REMARK INTER + INTRA:          -9.861
REMARK INTER:                  -7.679
REMARK INTRA:                  -2.182
REMARK CONF_INDEPENDENT:        1.492
REMARK UNBOUND:                -2.182
REMARK  5 active torsions:
REMARK  status: ('A' for Active; 'I' for Inactive)
REMARK       I    between atoms: C_2  and  N_3 
REMARK    1  A    between atoms: C_2  and  C_17 
REMARK    2  A    between atoms: N_3  and  N_4 
REMARK       I    between atoms: N_4  and  C_5 
REMARK    3  A    between atoms: C_5  and  C_7 
REMARK    4  A    between atoms: C_9  and  C_10 
REMARK    5  A    between atoms: C_22  and  O_23 
ROOT
ATOM      1  N   UNL d   1      28.100 -15.362  -3.699  0.00  0.00    -0.267 N 
ATOM      2  C   UNL d   1      28.308 -15.124  -5.045  0.00  0.00     0.240 C 
ATOM      3  O   UNL d   1      27.402 -15.201  -5.879  0.00  0.00    -0.271 OA
ATOM      4  H   UNL d   1      28.847 -15.337  -3.008  0.00  0.00     0.190 HD
ENDROOT
BRANCH   1   5
ATOM      5  N   UNL d   1      26.903 -15.950  -3.225  0.00  0.00    -0.263 N 
ATOM      6  C   UNL d   1      26.882 -16.373  -1.901  0.00  0.00     0.272 C 
ATOM      7  O   UNL d   1      27.892 -16.397  -1.199  0.00  0.00    -0.266 OA
ATOM      8  H   UNL d   1      26.074 -15.828  -3.799  0.00  0.00     0.190 HD
BRANCH   6   9
ATOM      9  C   UNL d   1      25.581 -16.806  -1.329  0.00  0.00     0.066 A 
ATOM     10  C   UNL d   1      25.515 -17.844  -0.388  0.00  0.00     0.020 A 
ATOM     11  C   UNL d   1      24.289 -18.176   0.201  0.00  0.00     0.001 A 
ATOM     12  C   UNL d   1      23.127 -17.482  -0.145  0.00  0.00     0.003 A 
ATOM     13  C   UNL d   1      23.185 -16.448  -1.079  0.00  0.00     0.037 A 
ATOM     14  C   UNL d   1      24.408 -16.111  -1.665  0.00  0.00     0.081 A 
BRANCH  14  15
ATOM     15  O   UNL d   1      24.453 -15.118  -2.604  0.00  0.00    -0.360 OA
ATOM     16  H   UNL d   1      23.927 -14.354  -2.321  0.00  0.00     0.217 HD
ENDBRANCH  14  15
ENDBRANCH   6   9
ENDBRANCH   1   5
BRANCH   2  17
ATOM     17  C   UNL d   1      29.675 -14.653  -5.485  0.00  0.00     0.088 A 
ATOM     18  C   UNL d   1      30.094 -14.605  -6.948  0.00  0.00     0.025 A 
ATOM     19  C   UNL d   1      30.785 -15.555  -6.012  0.00  0.00     0.032 A 
BRANCH  19  20
ATOM     20  C   UNL d   1      30.580 -17.049  -6.057  0.00  0.00    -0.050 A 
ATOM     21  C   UNL d   1      30.377 -17.822  -4.897  0.00  0.00     0.007 A 
ATOM     22  C   UNL d   1      30.439 -19.214  -4.929  0.00  0.00     0.004 A 
ATOM     23  C   UNL d   1      30.654 -19.868  -6.137  0.00  0.00     0.042 A 
ATOM     24  C   UNL d   1      30.815 -19.126  -7.298  0.00  0.00     0.116 A 
ATOM     25  F   UNL d   1      31.061 -19.750  -8.458  0.00  0.00    -0.206 F 
ATOM     26  C   UNL d   1      30.780 -17.736  -7.268  0.00  0.00     0.049 A 
ENDBRANCH  19  20
ENDBRANCH   2  17
TORSDOF 5
ENDMDL
MODEL 6
REMARK VINA RESULT:    -6.102      1.545      2.015
REMARK INTER + INTRA:          -9.906
REMARK INTER:                  -7.593
REMARK INTRA:                  -2.313
REMARK CONF_INDEPENDENT:        1.492
REMARK UNBOUND:                -2.313
REMARK  5 active torsions:
REMARK  status: ('A' for Active; 'I' for Inactive)
REMARK       I    between atoms: C_2  and  N_3 
REMARK    1  A    between atoms: C_2  and  C_17 
REMARK    2  A    between atoms: N_3  and  N_4 
REMARK       I    between atoms: N_4  and  C_5 
REMARK    3  A    between atoms: C_5  and  C_7 
REMARK    4  A    between atoms: C_9  and  C_10 
REMARK    5  A    between atoms: C_22  and  O_23 
ROOT
ATOM      1  N   UNL d   1      27.216 -14.076  -0.423  0.00  0.00    -0.267 N 
ATOM      2  C   UNL d   1      26.758 -13.450  -1.567  0.00  0.00     0.240 C 
ATOM      3  O   UNL d   1      26.491 -12.246  -1.601  0.00  0.00    -0.271 OA
ATOM      4  H   UNL d   1      27.405 -15.076  -0.374  0.00  0.00     0.190 HD
ENDROOT
BRANCH   1   5
ATOM      5  N   UNL d   1      27.170 -13.441   0.842  0.00  0.00    -0.263 N 
ATOM      6  C   UNL d   1      27.609 -14.174   1.939  0.00  0.00     0.272 C 
ATOM      7  O   UNL d   1      27.877 -15.372   1.869  0.00  0.00    -0.266 OA
ATOM      8  H   UNL d   1      27.033 -12.435   0.844  0.00  0.00     0.190 HD
BRANCH   6   9
ATOM      9  C   UNL d   1      27.757 -13.464   3.236  0.00  0.00     0.066 A 
ATOM     10  C   UNL d   1      27.727 -12.064   3.300  0.00  0.00     0.020 A 
ATOM     11  C   UNL d   1      27.781 -11.420   4.543  0.00  0.00     0.001 A 
ATOM     12  C   UNL d   1      27.869 -12.165   5.721  0.00  0.00     0.003 A 
ATOM     13  C   UNL d   1      27.899 -13.558   5.666  0.00  0.00     0.037 A 
ATOM     14  C   UNL d   1      27.840 -14.203   4.428  0.00  0.00     0.081 A 
BRANCH  14  15
ATOM     15  O   UNL d   1      27.902 -15.568   4.376  0.00  0.00    -0.360 OA
ATOM     16  H   UNL d   1      28.527 -15.858   3.695  0.00  0.00     0.217 HD
ENDBRANCH  14  15
ENDBRANCH   6   9
ENDBRANCH   1   5
BRANCH   2  17
ATOM     17  C   UNL d   1      26.685 -14.256  -2.843  0.00  0.00     0.088 A 
ATOM     18  C   UNL d   1      25.392 -14.434  -3.627  0.00  0.00     0.025 A 
ATOM     19  C   UNL d   1      26.032 -15.627  -2.977  0.00  0.00     0.032 A 
BRANCH  19  20
ATOM     20  C   UNL d   1      25.458 -16.306  -1.759  0.00  0.00    -0.050 A 
ATOM     21  C   UNL d   1      26.239 -17.098  -0.893  0.00  0.00     0.007 A 
ATOM     22  C   UNL d   1      25.654 -17.914   0.074  0.00  0.00     0.004 A 
ATOM     23  C   UNL d   1      24.273 -17.917   0.231  0.00  0.00     0.042 A 
ATOM     24  C   UNL d   1      23.488 -17.114  -0.585  0.00  0.00     0.116 A 
ATOM     25  F   UNL d   1      22.155 -17.144  -0.463  0.00  0.00    -0.206 F 
ATOM     26  C   UNL d   1      24.065 -16.317  -1.568  0.00  0.00     0.049 A 
ENDBRANCH  19  20
ENDBRANCH   2  17
TORSDOF 5
ENDMDL
MODEL 7
REMARK VINA RESULT:    -5.937      1.610      2.090
REMARK INTER + INTRA:          -9.459
REMARK INTER:                  -7.428
REMARK INTRA:                  -2.031
REMARK CONF_INDEPENDENT:        1.492
REMARK UNBOUND:                -2.031
REMARK  5 active torsions:
REMARK  status: ('A' for Active; 'I' for Inactive)
REMARK       I    between atoms: C_2  and  N_3 
REMARK    1  A    between atoms: C_2  and  C_17 
REMARK    2  A    between atoms: N_3  and  N_4 
REMARK       I    between atoms: N_4  and  C_5 
REMARK    3  A    between atoms: C_5  and  C_7 
REMARK    4  A    between atoms: C_9  and  C_10 
REMARK    5  A    between atoms: C_22  and  O_23 
ROOT
ATOM      1  N   UNL d   1      27.278 -14.440   0.291  0.00  0.00    -0.267 N 
ATOM      2  C   UNL d   1      27.946 -15.003  -0.781  0.00  0.00     0.240 C 
ATOM      3  O   UNL d   1      28.985 -15.654  -0.645  0.00  0.00    -0.271 OA
ATOM      4  H   UNL d   1      26.440 -13.871   0.188  0.00  0.00     0.190 HD
ENDROOT
BRANCH   1   5
ATOM      5  N   UNL d   1      27.869 -14.358   1.575  0.00  0.00    -0.263 N 
ATOM      6  C   UNL d   1      27.242 -13.547   2.514  0.00  0.00     0.272 C 
ATOM      7  O   UNL d   1      26.310 -12.799   2.224  0.00  0.00    -0.266 OA
ATOM      8  H   UNL d   1      28.573 -15.054   1.800  0.00  0.00     0.190 HD
BRANCH   6   9
ATOM      9  C   UNL d   1      27.728 -13.603   3.917  0.00  0.00     0.066 A 
ATOM     10  C   UNL d   1      28.145 -14.814   4.490  0.00  0.00     0.020 A 
ATOM     11  C   UNL d   1      28.681 -14.827   5.784  0.00  0.00     0.001 A 
ATOM     12  C   UNL d   1      28.798 -13.641   6.512  0.00  0.00     0.003 A 
ATOM     13  C   UNL d   1      28.386 -12.433   5.950  0.00  0.00     0.037 A 
ATOM     14  C   UNL d   1      27.857 -12.416   4.657  0.00  0.00     0.081 A 
BRANCH  14  15
ATOM     15  O   UNL d   1      27.424 -11.233   4.123  0.00  0.00    -0.360 OA
ATOM     16  H   UNL d   1      27.378 -11.290   3.156  0.00  0.00     0.217 HD
ENDBRANCH  14  15
ENDBRANCH   6   9
ENDBRANCH   1   5
BRANCH   2  17
ATOM     17  C   UNL d   1      27.316 -14.898  -2.150  0.00  0.00     0.088 A 
ATOM     18  C   UNL d   1      26.001 -14.171  -2.394  0.00  0.00     0.025 A 
ATOM     19  C   UNL d   1      26.073 -15.657  -2.603  0.00  0.00     0.032 A 
BRANCH  19  20
ATOM     20  C   UNL d   1      25.421 -16.650  -1.674  0.00  0.00    -0.050 A 
ATOM     21  C   UNL d   1      24.030 -16.679  -1.450  0.00  0.00     0.007 A 
ATOM     22  C   UNL d   1      23.474 -17.426  -0.412  0.00  0.00     0.004 A 
ATOM     23  C   UNL d   1      24.297 -18.204   0.396  0.00  0.00     0.042 A 
ATOM     24  C   UNL d   1      25.665 -18.220   0.166  0.00  0.00     0.116 A 
ATOM     25  F   UNL d   1      26.465 -18.937   0.966  0.00  0.00    -0.206 F 
ATOM     26  C   UNL d   1      26.228 -17.458  -0.852  0.00  0.00     0.049 A 
ENDBRANCH  19  20
ENDBRANCH   2  17
TORSDOF 5
ENDMDL
MODEL 8
REMARK VINA RESULT:    -5.780      4.981      7.135
REMARK INTER + INTRA:          -9.472
REMARK INTER:                  -7.271
REMARK INTRA:                  -2.201
REMARK CONF_INDEPENDENT:        1.492
REMARK UNBOUND:                -2.201
REMARK  5 active torsions:
REMARK  status: ('A' for Active; 'I' for Inactive)
REMARK       I    between atoms: C_2  and  N_3 
REMARK    1  A    between atoms: C_2  and  C_17 
REMARK    2  A    between atoms: N_3  and  N_4 
REMARK       I    between atoms: N_4  and  C_5 
REMARK    3  A    between atoms: C_5  and  C_7 
REMARK    4  A    between atoms: C_9  and  C_10 
REMARK    5  A    between atoms: C_22  and  O_23 
ROOT
ATOM      1  N   UNL d   1      26.966 -15.197  -3.642  0.00  0.00    -0.267 N 
ATOM      2  C   UNL d   1      27.169 -15.153  -5.009  0.00  0.00     0.240 C 
ATOM      3  O   UNL d   1      26.336 -15.573  -5.815  0.00  0.00    -0.271 OA
ATOM      4  H   UNL d   1      27.662 -14.886  -2.966  0.00  0.00     0.190 HD
ENDROOT
BRANCH   1   5
ATOM      5  N   UNL d   1      25.911 -15.949  -3.071  0.00  0.00    -0.263 N 
ATOM      6  C   UNL d   1      25.939 -16.141  -1.694  0.00  0.00     0.272 C 
ATOM      7  O   UNL d   1      26.905 -15.824  -1.002  0.00  0.00    -0.266 OA
ATOM      8  H   UNL d   1      25.096 -16.111  -3.654  0.00  0.00     0.190 HD
BRANCH   6   9
ATOM      9  C   UNL d   1      24.746 -16.751  -1.052  0.00  0.00     0.066 A 
ATOM     10  C   UNL d   1      23.467 -16.208  -1.241  0.00  0.00     0.020 A 
ATOM     11  C   UNL d   1      22.348 -16.851  -0.697  0.00  0.00     0.001 A 
ATOM     12  C   UNL d   1      22.497 -18.030   0.037  0.00  0.00     0.003 A 
ATOM     13  C   UNL d   1      23.766 -18.577   0.229  0.00  0.00     0.037 A 
ATOM     14  C   UNL d   1      24.883 -17.941  -0.317  0.00  0.00     0.081 A 
BRANCH  14  15
ATOM     15  O   UNL d   1      26.128 -18.463  -0.099  0.00  0.00    -0.360 OA
ATOM     16  H   UNL d   1      26.800 -17.764  -0.104  0.00  0.00     0.217 HD
ENDBRANCH  14  15
ENDBRANCH   6   9
ENDBRANCH   1   5
BRANCH   2  17
ATOM     17  C   UNL d   1      28.413 -14.469  -5.526  0.00  0.00     0.088 A 
ATOM     18  C   UNL d   1      29.334 -13.655  -4.627  0.00  0.00     0.025 A 
ATOM     19  C   UNL d   1      28.569 -12.965  -5.720  0.00  0.00     0.032 A 
BRANCH  19  20
ATOM     20  C   UNL d   1      27.400 -12.049  -5.454  0.00  0.00    -0.050 A 
ATOM     21  C   UNL d   1      26.717 -11.372  -6.484  0.00  0.00     0.007 A 
ATOM     22  C   UNL d   1      25.813 -10.348  -6.209  0.00  0.00     0.004 A 
ATOM     23  C   UNL d   1      25.533 -10.011  -4.889  0.00  0.00     0.042 A 
ATOM     24  C   UNL d   1      26.165 -10.693  -3.859  0.00  0.00     0.116 A 
ATOM     25  F   UNL d   1      25.927 -10.346  -2.587  0.00  0.00    -0.206 F 
ATOM     26  C   UNL d   1      27.086 -11.699  -4.129  0.00  0.00     0.049 A 
ENDBRANCH  19  20
ENDBRANCH   2  17
TORSDOF 5
ENDMDL
MODEL 9
REMARK VINA RESULT:    -5.718      4.303      7.833
REMARK INTER + INTRA:          -9.354
REMARK INTER:                  -7.209
REMARK INTRA:                  -2.145
REMARK CONF_INDEPENDENT:        1.492
REMARK UNBOUND:                -2.145
REMARK  5 active torsions:
REMARK  status: ('A' for Active; 'I' for Inactive)
REMARK       I    between atoms: C_2  and  N_3 
REMARK    1  A    between atoms: C_2  and  C_17 
REMARK    2  A    between atoms: N_3  and  N_4 
REMARK       I    between atoms: N_4  and  C_5 
REMARK    3  A    between atoms: C_5  and  C_7 
REMARK    4  A    between atoms: C_9  and  C_10 
REMARK    5  A    between atoms: C_22  and  O_23 
ROOT
ATOM      1  N   UNL d   1      25.854 -15.861  -3.146  0.00  0.00    -0.267 N 
ATOM      2  C   UNL d   1      24.785 -16.047  -2.289  0.00  0.00     0.240 C 
ATOM      3  O   UNL d   1      23.900 -15.201  -2.141  0.00  0.00    -0.271 OA
ATOM      4  H   UNL d   1      26.608 -16.538  -3.249  0.00  0.00     0.190 HD
ENDROOT
BRANCH   1   5
ATOM      5  N   UNL d   1      26.139 -14.597  -3.715  0.00  0.00    -0.263 N 
ATOM      6  C   UNL d   1      26.948 -14.576  -4.846  0.00  0.00     0.272 C 
ATOM      7  O   UNL d   1      27.534 -15.575  -5.258  0.00  0.00    -0.266 OA
ATOM      8  H   UNL d   1      25.568 -13.817  -3.406  0.00  0.00     0.190 HD
BRANCH   6   9
ATOM      9  C   UNL d   1      27.095 -13.288  -5.572  0.00  0.00     0.066 A 
ATOM     10  C   UNL d   1      28.117 -13.101  -6.513  0.00  0.00     0.020 A 
ATOM     11  C   UNL d   1      28.182 -11.910  -7.248  0.00  0.00     0.001 A 
ATOM     12  C   UNL d   1      27.237 -10.903  -7.046  0.00  0.00     0.003 A 
ATOM     13  C   UNL d   1      26.216 -11.080  -6.111  0.00  0.00     0.037 A 
ATOM     14  C   UNL d   1      26.145 -12.270  -5.381  0.00  0.00     0.081 A 
BRANCH  14  15
ATOM     15  O   UNL d   1      25.162 -12.426  -4.443  0.00  0.00    -0.360 OA
ATOM     16  H   UNL d   1      24.771 -11.570  -4.211  0.00  0.00     0.217 HD
ENDBRANCH  14  15
ENDBRANCH   6   9
ENDBRANCH   1   5
BRANCH   2  17
ATOM     17  C   UNL d   1      24.650 -17.382  -1.593  0.00  0.00     0.088 A 
ATOM     18  C   UNL d   1      24.194 -17.509  -0.146  0.00  0.00     0.025 A 
ATOM     19  C   UNL d   1      25.594 -17.908  -0.518  0.00  0.00     0.032 A 
BRANCH  19  20
ATOM     20  C   UNL d   1      26.809 -17.105  -0.128  0.00  0.00    -0.050 A 
ATOM     21  C   UNL d   1      26.717 -15.823   0.453  0.00  0.00     0.007 A 
ATOM     22  C   UNL d   1      27.832 -14.997   0.576  0.00  0.00     0.004 A 
ATOM     23  C   UNL d   1      29.080 -15.456   0.166  0.00  0.00     0.042 A 
ATOM     24  C   UNL d   1      29.199 -16.730  -0.371  0.00  0.00     0.116 A 
ATOM     25  F   UNL d   1      30.391 -17.160  -0.803  0.00  0.00    -0.206 F 
ATOM     26  C   UNL d   1      28.085 -17.549  -0.519  0.00  0.00     0.049 A 
ENDBRANCH  19  20
ENDBRANCH   2  17
TORSDOF 5
ENDMDL
