MODEL 1
REMARK VINA RESULT:   -10.213      0.000      0.000
REMARK INTER + INTRA:         -14.452
REMARK INTER:                 -13.196
REMARK INTRA:                  -1.256
REMARK CONF_INDEPENDENT:        2.983
REMARK UNBOUND:                -1.256
REMARK  10 active torsions:
REMARK  status: ('A' for Active; 'I' for Inactive)
REMARK    1  A    between atoms: O_2  and  C_3 
REMARK    2  A    between atoms: C_5  and  C_6 
REMARK    3  A    between atoms: C_6  and  O_8 
REMARK    4  A    between atoms: O_8  and  C_9 
REMARK    5  A    between atoms: C_9  and  C_10 
REMARK    6  A    between atoms: C_10  and  C_12 
REMARK    7  A    between atoms: C_24  and  O_25 
REMARK    8  A    between atoms: O_25  and  C_26 
REMARK    9  A    between atoms: C_26  and  C_27 
REMARK       I    between atoms: C_27  and  N_29 
REMARK   10  A    between atoms: N_29  and  C_30 
ROOT
ATOM      1  C   UNL d   1      25.972 -15.827  -2.551  0.00  0.00     0.102 A 
ATOM      2  C   UNL d   1      27.395 -15.815  -2.472  0.00  0.00     0.057 A 
ATOM      3  C   UNL d   1      28.102 -16.463  -1.429  0.00  0.00     0.042 A 
ATOM      4  C   UNL d   1      27.371 -17.023  -0.385  0.00  0.00     0.020 A 
ATOM      5  C   UNL d   1      25.973 -17.050  -0.456  0.00  0.00     0.040 A 
ATOM      6  C   UNL d   1      25.258 -16.507  -1.543  0.00  0.00     0.102 A 
ENDROOT
BRANCH   3   7
ATOM      7  C   UNL d   1      29.604 -16.624  -1.529  0.00  0.00     0.293 C 
ATOM      8  O   UNL d   1      30.397 -15.774  -1.213  0.00  0.00    -0.259 OA
BRANCH   7   9
ATOM      9  O   UNL d   1      29.960 -17.824  -2.078  0.00  0.00    -0.310 OA
BRANCH   9  10
ATOM     10  C   UNL d   1      30.956 -17.748  -3.125  0.00  0.00     0.262 C 
BRANCH  10  11
ATOM     11  C   UNL d   1      30.271 -17.967  -4.465  0.00  0.00     0.182 C 
ATOM     12  O   UNL d   1      29.528 -17.092  -4.913  0.00  0.00    -0.290 OA
BRANCH  11  13
ATOM     13  C   UNL d   1      30.497 -19.225  -5.262  0.00  0.00     0.025 A 
ATOM     14  C   UNL d   1      30.987 -19.080  -6.519  0.00  0.00     0.002 A 
ATOM     15  C   UNL d   1      31.240 -17.979  -7.404  0.00  0.00     0.014 C 
ATOM     16  C   UNL d   1      31.314 -20.439  -6.984  0.00  0.00     0.039 A 
ATOM     17  C   UNL d   1      31.529 -18.210  -8.692  0.00  0.00     0.001 C 
ATOM     18  C   UNL d   1      31.768 -19.551  -9.186  0.00  0.00     0.002 C 
ATOM     19  C   UNL d   1      31.689 -20.643  -8.403  0.00  0.00     0.030 C 
ATOM     20  N   UNL d   1      31.192 -21.297  -6.051  0.00  0.00    -0.381 N 
ATOM     21  C   UNL d   1      30.659 -20.673  -4.797  0.00  0.00     0.115 A 
ATOM     22  H   UNL d   1      31.343 -22.291  -6.230  0.00  0.00     0.160 HD
ATOM     23  C   UNL d   1      30.398 -21.860  -3.828  0.00  0.00     0.037 C 
ENDBRANCH  11  13
ENDBRANCH  10  11
ENDBRANCH   9  10
ENDBRANCH   7   9
ENDBRANCH   3   7
BRANCH   1  24
ATOM     24  O   UNL d   1      25.471 -15.390  -3.762  0.00  0.00    -0.353 OA
ATOM     25  C   UNL d   1      25.441 -13.990  -4.049  0.00  0.00     0.210 C 
ENDBRANCH   1  24
BRANCH   6  26
ATOM     26  O   UNL d   1      23.924 -16.844  -1.446  0.00  0.00    -0.339 OA
BRANCH  26  27
ATOM     27  C   UNL d   1      23.597 -17.834  -0.512  0.00  0.00     0.278 C 
BRANCH  27  28
ATOM     28  C   UNL d   1      22.306 -18.637  -0.545  0.00  0.00     0.246 C 
ATOM     29  O   UNL d   1      22.028 -19.318  -1.528  0.00  0.00    -0.271 OA
ATOM     30  N   UNL d   1      21.530 -18.571   0.630  0.00  0.00    -0.325 N 
ATOM     31  H   UNL d   1      21.672 -17.853   1.335  0.00  0.00     0.169 HD
BRANCH  30  32
ATOM     32  C   UNL d   1      20.399 -19.404   0.776  0.00  0.00     0.035 A 
ATOM     33  C   UNL d   1      20.029 -19.943   2.014  0.00  0.00     0.032 A 
ATOM     34  C   UNL d   1      18.873 -20.731   2.099  0.00  0.00     0.044 A 
ATOM     35  C   UNL d   1      18.093 -20.950   0.963  0.00  0.00     0.116 A 
ATOM     36  F   UNL d   1      16.952 -21.643   1.061  0.00  0.00    -0.206 F 
ATOM     37  C   UNL d   1      18.474 -20.448  -0.269  0.00  0.00     0.044 A 
ATOM     38  C   UNL d   1      19.631 -19.689  -0.358  0.00  0.00     0.032 A 
ENDBRANCH  30  32
ENDBRANCH  27  28
ENDBRANCH  26  27
ENDBRANCH   6  26
TORSDOF 10
ENDMDL
MODEL 2
REMARK VINA RESULT:   -10.010      1.946      3.180
REMARK INTER + INTRA:         -14.637
REMARK INTER:                 -12.993
REMARK INTRA:                  -1.644
REMARK CONF_INDEPENDENT:        2.983
REMARK UNBOUND:                -1.644
REMARK  10 active torsions:
REMARK  status: ('A' for Active; 'I' for Inactive)
REMARK    1  A    between atoms: O_2  and  C_3 
REMARK    2  A    between atoms: C_5  and  C_6 
REMARK    3  A    between atoms: C_6  and  O_8 
REMARK    4  A    between atoms: O_8  and  C_9 
REMARK    5  A    between atoms: C_9  and  C_10 
REMARK    6  A    between atoms: C_10  and  C_12 
REMARK    7  A    between atoms: C_24  and  O_25 
REMARK    8  A    between atoms: O_25  and  C_26 
REMARK    9  A    between atoms: C_26  and  C_27 
REMARK       I    between atoms: C_27  and  N_29 
REMARK   10  A    between atoms: N_29  and  C_30 
ROOT
ATOM      1  C   UNL d   1      25.918 -15.804  -2.522  0.00  0.00     0.102 A 
ATOM      2  C   UNL d   1      27.342 -15.849  -2.479  0.00  0.00     0.057 A 
ATOM      3  C   UNL d   1      28.047 -16.685  -1.577  0.00  0.00     0.042 A 
ATOM      4  C   UNL d   1      27.318 -17.391  -0.624  0.00  0.00     0.020 A 
ATOM      5  C   UNL d   1      25.919 -17.363  -0.663  0.00  0.00     0.040 A 
ATOM      6  C   UNL d   1      25.201 -16.623  -1.625  0.00  0.00     0.102 A 
ENDROOT
BRANCH   3   7
ATOM      7  C   UNL d   1      29.540 -16.872  -1.741  0.00  0.00     0.293 C 
ATOM      8  O   UNL d   1      30.282 -17.201  -0.851  0.00  0.00    -0.259 OA
BRANCH   7   9
ATOM      9  O   UNL d   1      29.964 -16.566  -3.005  0.00  0.00    -0.310 OA
BRANCH   9  10
ATOM     10  C   UNL d   1      30.914 -17.496  -3.574  0.00  0.00     0.262 C 
BRANCH  10  11
ATOM     11  C   UNL d   1      30.491 -17.813  -5.000  0.00  0.00     0.182 C 
ATOM     12  O   UNL d   1      30.027 -18.925  -5.259  0.00  0.00    -0.290 OA
BRANCH  11  13
ATOM     13  C   UNL d   1      30.611 -16.787  -6.096  0.00  0.00     0.025 A 
ATOM     14  C   UNL d   1      29.719 -15.765  -6.087  0.00  0.00     0.002 A 
ATOM     15  C   UNL d   1      28.531 -15.443  -5.348  0.00  0.00     0.014 C 
ATOM     16  C   UNL d   1      30.185 -14.813  -7.109  0.00  0.00     0.039 A 
ATOM     17  C   UNL d   1      27.746 -14.435  -5.752  0.00  0.00     0.001 C 
ATOM     18  C   UNL d   1      28.150 -13.539  -6.817  0.00  0.00     0.002 C 
ATOM     19  C   UNL d   1      29.312 -13.675  -7.484  0.00  0.00     0.030 C 
ATOM     20  N   UNL d   1      31.325 -15.140  -7.572  0.00  0.00    -0.381 N 
ATOM     21  C   UNL d   1      31.794 -16.445  -7.003  0.00  0.00     0.115 A 
ATOM     22  H   UNL d   1      31.762 -14.600  -8.320  0.00  0.00     0.160 HD
ATOM     23  C   UNL d   1      33.090 -16.791  -7.789  0.00  0.00     0.037 C 
ENDBRANCH  11  13
ENDBRANCH  10  11
ENDBRANCH   9  10
ENDBRANCH   7   9
ENDBRANCH   3   7
BRANCH   1  24
ATOM     24  O   UNL d   1      25.408 -15.154  -3.629  0.00  0.00    -0.353 OA
ATOM     25  C   UNL d   1      25.380 -13.725  -3.657  0.00  0.00     0.210 C 
ENDBRANCH   1  24
BRANCH   6  26
ATOM     26  O   UNL d   1      23.858 -16.931  -1.553  0.00  0.00    -0.339 OA
BRANCH  26  27
ATOM     27  C   UNL d   1      23.482 -17.850  -0.566  0.00  0.00     0.278 C 
BRANCH  27  28
ATOM     28  C   UNL d   1      22.177 -18.630  -0.589  0.00  0.00     0.246 C 
ATOM     29  O   UNL d   1      21.867 -19.286  -1.580  0.00  0.00    -0.271 OA
ATOM     30  N   UNL d   1      21.426 -18.575   0.603  0.00  0.00    -0.325 N 
ATOM     31  H   UNL d   1      21.595 -17.874   1.319  0.00  0.00     0.169 HD
BRANCH  30  32
ATOM     32  C   UNL d   1      20.284 -19.392   0.756  0.00  0.00     0.035 A 
ATOM     33  C   UNL d   1      19.496 -19.777  -0.335  0.00  0.00     0.032 A 
ATOM     34  C   UNL d   1      18.397 -20.621  -0.121  0.00  0.00     0.044 A 
ATOM     35  C   UNL d   1      18.116 -21.086   1.163  0.00  0.00     0.116 A 
ATOM     36  F   UNL d   1      17.110 -21.949   1.354  0.00  0.00    -0.206 F 
ATOM     37  C   UNL d   1      18.871 -20.681   2.249  0.00  0.00     0.044 A 
ATOM     38  C   UNL d   1      19.943 -19.825   2.042  0.00  0.00     0.032 A 
ENDBRANCH  30  32
ENDBRANCH  27  28
ENDBRANCH  26  27
ENDBRANCH   6  26
TORSDOF 10
ENDMDL
MODEL 3
REMARK VINA RESULT:    -9.879      2.942      4.807
REMARK INTER + INTRA:         -14.821
REMARK INTER:                 -12.862
REMARK INTRA:                  -1.959
REMARK CONF_INDEPENDENT:        2.983
REMARK UNBOUND:                -1.959
REMARK  10 active torsions:
REMARK  status: ('A' for Active; 'I' for Inactive)
REMARK    1  A    between atoms: O_2  and  C_3 
REMARK    2  A    between atoms: C_5  and  C_6 
REMARK    3  A    between atoms: C_6  and  O_8 
REMARK    4  A    between atoms: O_8  and  C_9 
REMARK    5  A    between atoms: C_9  and  C_10 
REMARK    6  A    between atoms: C_10  and  C_12 
REMARK    7  A    between atoms: C_24  and  O_25 
REMARK    8  A    between atoms: O_25  and  C_26 
REMARK    9  A    between atoms: C_26  and  C_27 
REMARK       I    between atoms: C_27  and  N_29 
REMARK   10  A    between atoms: N_29  and  C_30 
ROOT
ATOM      1  C   UNL d   1      26.705 -16.689  -1.223  0.00  0.00     0.102 A 
ATOM      2  C   UNL d   1      27.297 -15.393  -1.271  0.00  0.00     0.057 A 
ATOM      3  C   UNL d   1      26.615 -14.268  -1.798  0.00  0.00     0.042 A 
ATOM      4  C   UNL d   1      25.375 -14.468  -2.398  0.00  0.00     0.020 A 
ATOM      5  C   UNL d   1      24.780 -15.735  -2.348  0.00  0.00     0.040 A 
ATOM      6  C   UNL d   1      25.397 -16.840  -1.727  0.00  0.00     0.102 A 
ENDROOT
BRANCH   3   7
ATOM      7  C   UNL d   1      27.193 -12.883  -1.602  0.00  0.00     0.293 C 
ATOM      8  O   UNL d   1      27.080 -12.240  -0.589  0.00  0.00    -0.259 OA
BRANCH   7   9
ATOM      9  O   UNL d   1      27.811 -12.415  -2.729  0.00  0.00    -0.310 OA
BRANCH   9  10
ATOM     10  C   UNL d   1      26.954 -11.687  -3.639  0.00  0.00     0.262 C 
BRANCH  10  11
ATOM     11  C   UNL d   1      26.623 -12.586  -4.820  0.00  0.00     0.182 C 
ATOM     12  O   UNL d   1      25.457 -12.945  -4.996  0.00  0.00    -0.290 OA
BRANCH  11  13
ATOM     13  C   UNL d   1      27.688 -13.029  -5.788  0.00  0.00     0.025 A 
ATOM     14  C   UNL d   1      28.277 -14.229  -5.553  0.00  0.00     0.002 A 
ATOM     15  C   UNL d   1      28.255 -15.194  -4.490  0.00  0.00     0.014 C 
ATOM     16  C   UNL d   1      29.101 -14.514  -6.739  0.00  0.00     0.039 A 
ATOM     17  C   UNL d   1      29.148 -16.193  -4.479  0.00  0.00     0.001 C 
ATOM     18  C   UNL d   1      30.029 -16.436  -5.603  0.00  0.00     0.002 C 
ATOM     19  C   UNL d   1      30.032 -15.667  -6.707  0.00  0.00     0.030 C 
ATOM     20  N   UNL d   1      28.906 -13.661  -7.663  0.00  0.00    -0.381 N 
ATOM     21  C   UNL d   1      27.970 -12.576  -7.221  0.00  0.00     0.115 A 
ATOM     22  H   UNL d   1      29.438 -13.700  -8.535  0.00  0.00     0.160 HD
ATOM     23  C   UNL d   1      27.977 -11.535  -8.375  0.00  0.00     0.037 C 
ENDBRANCH  11  13
ENDBRANCH  10  11
ENDBRANCH   9  10
ENDBRANCH   7   9
ENDBRANCH   3   7
BRANCH   1  24
ATOM     24  O   UNL d   1      27.393 -17.594  -0.438  0.00  0.00    -0.353 OA
ATOM     25  C   UNL d   1      27.007 -17.781   0.926  0.00  0.00     0.210 C 
ENDBRANCH   1  24
BRANCH   6  26
ATOM     26  O   UNL d   1      24.512 -17.896  -1.653  0.00  0.00    -0.339 OA
BRANCH  26  27
ATOM     27  C   UNL d   1      23.575 -17.851  -0.614  0.00  0.00     0.278 C 
BRANCH  27  28
ATOM     28  C   UNL d   1      22.252 -18.601  -0.635  0.00  0.00     0.246 C 
ATOM     29  O   UNL d   1      21.904 -19.211  -1.642  0.00  0.00    -0.271 OA
ATOM     30  N   UNL d   1      21.531 -18.575   0.577  0.00  0.00    -0.325 N 
ATOM     31  H   UNL d   1      21.732 -17.906   1.314  0.00  0.00     0.169 HD
BRANCH  30  32
ATOM     32  C   UNL d   1      20.374 -19.372   0.726  0.00  0.00     0.035 A 
ATOM     33  C   UNL d   1      19.532 -19.665  -0.352  0.00  0.00     0.032 A 
ATOM     34  C   UNL d   1      18.419 -20.494  -0.145  0.00  0.00     0.044 A 
ATOM     35  C   UNL d   1      18.179 -21.035   1.118  0.00  0.00     0.116 A 
ATOM     36  F   UNL d   1      17.158 -21.883   1.297  0.00  0.00    -0.206 F 
ATOM     37  C   UNL d   1      18.990 -20.720   2.194  0.00  0.00     0.044 A 
ATOM     38  C   UNL d   1      20.075 -19.879   1.995  0.00  0.00     0.032 A 
ENDBRANCH  30  32
ENDBRANCH  27  28
ENDBRANCH  26  27
ENDBRANCH   6  26
TORSDOF 10
ENDMDL
MODEL 4
REMARK VINA RESULT:    -9.873      4.923      7.912
REMARK INTER + INTRA:         -14.497
REMARK INTER:                 -12.856
REMARK INTRA:                  -1.642
REMARK CONF_INDEPENDENT:        2.983
REMARK UNBOUND:                -1.642
REMARK  10 active torsions:
REMARK  status: ('A' for Active; 'I' for Inactive)
REMARK    1  A    between atoms: O_2  and  C_3 
REMARK    2  A    between atoms: C_5  and  C_6 
REMARK    3  A    between atoms: C_6  and  O_8 
REMARK    4  A    between atoms: O_8  and  C_9 
REMARK    5  A    between atoms: C_9  and  C_10 
REMARK    6  A    between atoms: C_10  and  C_12 
REMARK    7  A    between atoms: C_24  and  O_25 
REMARK    8  A    between atoms: O_25  and  C_26 
REMARK    9  A    between atoms: C_26  and  C_27 
REMARK       I    between atoms: C_27  and  N_29 
REMARK   10  A    between atoms: N_29  and  C_30 
ROOT
ATOM      1  C   UNL d   1      26.551 -16.665  -1.106  0.00  0.00     0.102 A 
ATOM      2  C   UNL d   1      27.399 -15.548  -0.854  0.00  0.00     0.057 A 
ATOM      3  C   UNL d   1      27.042 -14.227  -1.223  0.00  0.00     0.042 A 
ATOM      4  C   UNL d   1      25.879 -14.040  -1.964  0.00  0.00     0.020 A 
ATOM      5  C   UNL d   1      25.033 -15.128  -2.209  0.00  0.00     0.040 A 
ATOM      6  C   UNL d   1      25.319 -16.430  -1.752  0.00  0.00     0.102 A 
ENDROOT
BRANCH   3   7
ATOM      7  C   UNL d   1      27.864 -13.061  -0.716  0.00  0.00     0.293 C 
ATOM      8  O   UNL d   1      29.046 -12.932  -0.910  0.00  0.00    -0.259 OA
BRANCH   7   9
ATOM      9  O   UNL d   1      27.123 -12.196   0.041  0.00  0.00    -0.310 OA
BRANCH   9  10
ATOM     10  C   UNL d   1      26.646 -12.734   1.296  0.00  0.00     0.262 C 
BRANCH  10  11
ATOM     11  C   UNL d   1      27.522 -12.202   2.418  0.00  0.00     0.182 C 
ATOM     12  O   UNL d   1      27.361 -11.046   2.813  0.00  0.00    -0.290 OA
BRANCH  11  13
ATOM     13  C   UNL d   1      28.570 -13.066   3.069  0.00  0.00     0.025 A 
ATOM     14  C   UNL d   1      28.525 -13.182   4.420  0.00  0.00     0.002 A 
ATOM     15  C   UNL d   1      27.785 -12.560   5.481  0.00  0.00     0.014 C 
ATOM     16  C   UNL d   1      29.497 -14.231   4.769  0.00  0.00     0.039 A 
ATOM     17  C   UNL d   1      28.152 -12.756   6.755  0.00  0.00     0.001 C 
ATOM     18  C   UNL d   1      29.171 -13.723   7.110  0.00  0.00     0.002 C 
ATOM     19  C   UNL d   1      29.830 -14.458   6.195  0.00  0.00     0.030 C 
ATOM     20  N   UNL d   1      29.962 -14.805   3.732  0.00  0.00    -0.381 N 
ATOM     21  C   UNL d   1      29.448 -14.170   2.475  0.00  0.00     0.115 A 
ATOM     22  H   UNL d   1      30.681 -15.527   3.809  0.00  0.00     0.160 HD
ATOM     23  C   UNL d   1      30.234 -14.851   1.321  0.00  0.00     0.037 C 
ENDBRANCH  11  13
ENDBRANCH  10  11
ENDBRANCH   9  10
ENDBRANCH   7   9
ENDBRANCH   3   7
BRANCH   1  24
ATOM     24  O   UNL d   1      26.925 -17.818  -0.444  0.00  0.00    -0.353 OA
ATOM     25  C   UNL d   1      26.950 -17.833   0.986  0.00  0.00     0.210 C 
ENDBRANCH   1  24
BRANCH   6  26
ATOM     26  O   UNL d   1      24.233 -17.254  -1.962  0.00  0.00    -0.339 OA
BRANCH  26  27
ATOM     27  C   UNL d   1      23.745 -17.938  -0.842  0.00  0.00     0.278 C 
BRANCH  27  28
ATOM     28  C   UNL d   1      22.409 -18.665  -0.810  0.00  0.00     0.246 C 
ATOM     29  O   UNL d   1      22.042 -19.325  -1.778  0.00  0.00    -0.271 OA
ATOM     30  N   UNL d   1      21.700 -18.559   0.404  0.00  0.00    -0.325 N 
ATOM     31  H   UNL d   1      21.919 -17.853   1.101  0.00  0.00     0.169 HD
BRANCH  30  32
ATOM     32  C   UNL d   1      20.531 -19.326   0.607  0.00  0.00     0.035 A 
ATOM     33  C   UNL d   1      19.668 -19.655  -0.444  0.00  0.00     0.032 A 
ATOM     34  C   UNL d   1      18.544 -20.452  -0.182  0.00  0.00     0.044 A 
ATOM     35  C   UNL d   1      18.312 -20.928   1.108  0.00  0.00     0.116 A 
ATOM     36  F   UNL d   1      17.280 -21.747   1.342  0.00  0.00    -0.206 F 
ATOM     37  C   UNL d   1      19.145 -20.577   2.157  0.00  0.00     0.044 A 
ATOM     38  C   UNL d   1      20.242 -19.767   1.903  0.00  0.00     0.032 A 
ENDBRANCH  30  32
ENDBRANCH  27  28
ENDBRANCH  26  27
ENDBRANCH   6  26
TORSDOF 10
ENDMDL
MODEL 5
REMARK VINA RESULT:    -9.773      1.421      2.415
REMARK INTER + INTRA:         -14.555
REMARK INTER:                 -12.756
REMARK INTRA:                  -1.800
REMARK CONF_INDEPENDENT:        2.983
REMARK UNBOUND:                -1.800
REMARK  10 active torsions:
REMARK  status: ('A' for Active; 'I' for Inactive)
REMARK    1  A    between atoms: O_2  and  C_3 
REMARK    2  A    between atoms: C_5  and  C_6 
REMARK    3  A    between atoms: C_6  and  O_8 
REMARK    4  A    between atoms: O_8  and  C_9 
REMARK    5  A    between atoms: C_9  and  C_10 
REMARK    6  A    between atoms: C_10  and  C_12 
REMARK    7  A    between atoms: C_24  and  O_25 
REMARK    8  A    between atoms: O_25  and  C_26 
REMARK    9  A    between atoms: C_26  and  C_27 
REMARK       I    between atoms: C_27  and  N_29 
REMARK   10  A    between atoms: N_29  and  C_30 
ROOT
ATOM      1  C   UNL d   1      25.744 -16.261  -1.401  0.00  0.00     0.102 A 
ATOM      2  C   UNL d   1      27.098 -15.829  -1.507  0.00  0.00     0.057 A 
ATOM      3  C   UNL d   1      28.166 -16.526  -0.890  0.00  0.00     0.042 A 
ATOM      4  C   UNL d   1      27.862 -17.598  -0.056  0.00  0.00     0.020 A 
ATOM      5  C   UNL d   1      26.536 -18.038   0.048  0.00  0.00     0.040 A 
ATOM      6  C   UNL d   1      25.476 -17.423  -0.647  0.00  0.00     0.102 A 
ENDROOT
BRANCH   3   7
ATOM      7  C   UNL d   1      29.595 -16.164  -1.236  0.00  0.00     0.293 C 
ATOM      8  O   UNL d   1      30.146 -15.157  -0.867  0.00  0.00    -0.259 OA
BRANCH   7   9
ATOM      9  O   UNL d   1      30.175 -17.081  -2.068  0.00  0.00    -0.310 OA
BRANCH   9  10
ATOM     10  C   UNL d   1      31.035 -16.525  -3.089  0.00  0.00     0.262 C 
BRANCH  10  11
ATOM     11  C   UNL d   1      30.234 -16.376  -4.372  0.00  0.00     0.182 C 
ATOM     12  O   UNL d   1      29.087 -15.929  -4.319  0.00  0.00    -0.290 OA
BRANCH  11  13
ATOM     13  C   UNL d   1      30.822 -16.747  -5.709  0.00  0.00     0.025 A 
ATOM     14  C   UNL d   1      30.773 -18.055  -6.064  0.00  0.00     0.002 A 
ATOM     15  C   UNL d   1      30.411 -19.284  -5.416  0.00  0.00     0.014 C 
ATOM     16  C   UNL d   1      31.204 -18.108  -7.471  0.00  0.00     0.039 A 
ATOM     17  C   UNL d   1      30.697 -20.456  -6.000  0.00  0.00     0.001 C 
ATOM     18  C   UNL d   1      31.205 -20.523  -7.355  0.00  0.00     0.002 C 
ATOM     19  C   UNL d   1      31.450 -19.429  -8.098  0.00  0.00     0.030 C 
ATOM     20  N   UNL d   1      31.340 -16.943  -7.965  0.00  0.00    -0.381 N 
ATOM     21  C   UNL d   1      31.114 -15.879  -6.934  0.00  0.00     0.115 A 
ATOM     22  H   UNL d   1      31.676 -16.815  -8.922  0.00  0.00     0.160 HD
ATOM     23  C   UNL d   1      31.489 -14.544  -7.635  0.00  0.00     0.037 C 
ENDBRANCH  11  13
ENDBRANCH  10  11
ENDBRANCH   9  10
ENDBRANCH   7   9
ENDBRANCH   3   7
BRANCH   1  24
ATOM     24  O   UNL d   1      24.881 -15.632  -2.277  0.00  0.00    -0.353 OA
ATOM     25  C   UNL d   1      25.407 -14.963  -3.426  0.00  0.00     0.210 C 
ENDBRANCH   1  24
BRANCH   6  26
ATOM     26  O   UNL d   1      24.326 -18.175  -0.517  0.00  0.00    -0.339 OA
BRANCH  26  27
ATOM     27  C   UNL d   1      23.165 -17.642  -1.089  0.00  0.00     0.278 C 
BRANCH  27  28
ATOM     28  C   UNL d   1      21.758 -18.058  -0.692  0.00  0.00     0.246 C 
ATOM     29  O   UNL d   1      20.784 -17.539  -1.231  0.00  0.00    -0.271 OA
ATOM     30  N   UNL d   1      21.688 -19.092   0.265  0.00  0.00    -0.325 N 
ATOM     31  H   UNL d   1      22.485 -19.357   0.837  0.00  0.00     0.169 HD
BRANCH  30  32
ATOM     32  C   UNL d   1      20.441 -19.674   0.586  0.00  0.00     0.035 A 
ATOM     33  C   UNL d   1      19.535 -20.075  -0.401  0.00  0.00     0.032 A 
ATOM     34  C   UNL d   1      18.330 -20.682  -0.017  0.00  0.00     0.044 A 
ATOM     35  C   UNL d   1      18.059 -20.900   1.333  0.00  0.00     0.116 A 
ATOM     36  F   UNL d   1      16.941 -21.543   1.693  0.00  0.00    -0.206 F 
ATOM     37  C   UNL d   1      18.937 -20.473   2.314  0.00  0.00     0.044 A 
ATOM     38  C   UNL d   1      20.117 -19.850   1.935  0.00  0.00     0.032 A 
ENDBRANCH  30  32
ENDBRANCH  27  28
ENDBRANCH  26  27
ENDBRANCH   6  26
TORSDOF 10
ENDMDL
MODEL 6
REMARK VINA RESULT:    -9.746      5.144      7.841
REMARK INTER + INTRA:         -14.970
REMARK INTER:                 -12.729
REMARK INTRA:                  -2.241
REMARK CONF_INDEPENDENT:        2.983
REMARK UNBOUND:                -2.241
REMARK  10 active torsions:
REMARK  status: ('A' for Active; 'I' for Inactive)
REMARK    1  A    between atoms: O_2  and  C_3 
REMARK    2  A    between atoms: C_5  and  C_6 
REMARK    3  A    between atoms: C_6  and  O_8 
REMARK    4  A    between atoms: O_8  and  C_9 
REMARK    5  A    between atoms: C_9  and  C_10 
REMARK    6  A    between atoms: C_10  and  C_12 
REMARK    7  A    between atoms: C_24  and  O_25 
REMARK    8  A    between atoms: O_25  and  C_26 
REMARK    9  A    between atoms: C_26  and  C_27 
REMARK       I    between atoms: C_27  and  N_29 
REMARK   10  A    between atoms: N_29  and  C_30 
ROOT
ATOM      1  C   UNL d   1      25.380 -15.960  -0.941  0.00  0.00     0.102 A 
ATOM      2  C   UNL d   1      26.570 -15.261  -0.586  0.00  0.00     0.057 A 
ATOM      3  C   UNL d   1      27.605 -15.864   0.172  0.00  0.00     0.042 A 
ATOM      4  C   UNL d   1      27.390 -17.139   0.686  0.00  0.00     0.020 A 
ATOM      5  C   UNL d   1      26.229 -17.839   0.336  0.00  0.00     0.040 A 
ATOM      6  C   UNL d   1      25.241 -17.296  -0.509  0.00  0.00     0.102 A 
ENDROOT
BRANCH   3   7
ATOM      7  C   UNL d   1      28.938 -15.160   0.309  0.00  0.00     0.293 C 
ATOM      8  O   UNL d   1      29.861 -15.581   0.961  0.00  0.00    -0.259 OA
BRANCH   7   9
ATOM      9  O   UNL d   1      28.959 -13.959  -0.344  0.00  0.00    -0.310 OA
BRANCH   9  10
ATOM     10  C   UNL d   1      29.130 -12.802   0.508  0.00  0.00     0.262 C 
BRANCH  10  11
ATOM     11  C   UNL d   1      27.761 -12.338   0.977  0.00  0.00     0.182 C 
ATOM     12  O   UNL d   1      26.835 -12.272   0.167  0.00  0.00    -0.290 OA
BRANCH  11  13
ATOM     13  C   UNL d   1      27.511 -11.974   2.418  0.00  0.00     0.025 A 
ATOM     14  C   UNL d   1      27.965 -12.837   3.361  0.00  0.00     0.002 A 
ATOM     15  C   UNL d   1      28.537 -14.154   3.360  0.00  0.00     0.014 C 
ATOM     16  C   UNL d   1      27.789 -12.153   4.653  0.00  0.00     0.039 A 
ATOM     17  C   UNL d   1      28.672 -14.823   4.513  0.00  0.00     0.001 C 
ATOM     18  C   UNL d   1      28.420 -14.191   5.792  0.00  0.00     0.002 C 
ATOM     19  C   UNL d   1      28.009 -12.914   5.906  0.00  0.00     0.030 C 
ATOM     20  N   UNL d   1      27.425 -10.943   4.498  0.00  0.00    -0.381 N 
ATOM     21  C   UNL d   1      27.192 -10.620   3.053  0.00  0.00     0.115 A 
ATOM     22  H   UNL d   1      27.221 -10.349   5.305  0.00  0.00     0.160 HD
ATOM     23  C   UNL d   1      26.586  -9.188   3.047  0.00  0.00     0.037 C 
ENDBRANCH  11  13
ENDBRANCH  10  11
ENDBRANCH   9  10
ENDBRANCH   7   9
ENDBRANCH   3   7
BRANCH   1  24
ATOM     24  O   UNL d   1      24.616 -15.323  -1.900  0.00  0.00    -0.353 OA
ATOM     25  C   UNL d   1      25.250 -14.461  -2.848  0.00  0.00     0.210 C 
ENDBRANCH   1  24
BRANCH   6  26
ATOM     26  O   UNL d   1      24.317 -18.265  -0.840  0.00  0.00    -0.339 OA
BRANCH  26  27
ATOM     27  C   UNL d   1      23.099 -17.812  -1.363  0.00  0.00     0.278 C 
BRANCH  27  28
ATOM     28  C   UNL d   1      21.740 -18.225  -0.820  0.00  0.00     0.246 C 
ATOM     29  O   UNL d   1      20.716 -17.712  -1.264  0.00  0.00    -0.271 OA
ATOM     30  N   UNL d   1      21.769 -19.246   0.152  0.00  0.00    -0.325 N 
ATOM     31  H   UNL d   1      22.620 -19.504   0.644  0.00  0.00     0.169 HD
BRANCH  30  32
ATOM     32  C   UNL d   1      20.562 -19.824   0.604  0.00  0.00     0.035 A 
ATOM     33  C   UNL d   1      20.258 -19.936   1.965  0.00  0.00     0.032 A 
ATOM     34  C   UNL d   1      19.025 -20.485   2.348  0.00  0.00     0.044 A 
ATOM     35  C   UNL d   1      18.110 -20.888   1.376  0.00  0.00     0.116 A 
ATOM     36  F   UNL d   1      16.906 -21.345   1.742  0.00  0.00    -0.206 F 
ATOM     37  C   UNL d   1      18.421 -20.810   0.030  0.00  0.00     0.044 A 
ATOM     38  C   UNL d   1      19.650 -20.292  -0.348  0.00  0.00     0.032 A 
ENDBRANCH  30  32
ENDBRANCH  27  28
ENDBRANCH  26  27
ENDBRANCH   6  26
TORSDOF 10
ENDMDL
MODEL 7
REMARK VINA RESULT:    -9.746      3.707      6.302
REMARK INTER + INTRA:         -14.565
REMARK INTER:                 -12.729
REMARK INTRA:                  -1.836
REMARK CONF_INDEPENDENT:        2.983
REMARK UNBOUND:                -1.836
REMARK  10 active torsions:
REMARK  status: ('A' for Active; 'I' for Inactive)
REMARK    1  A    between atoms: O_2  and  C_3 
REMARK    2  A    between atoms: C_5  and  C_6 
REMARK    3  A    between atoms: C_6  and  O_8 
REMARK    4  A    between atoms: O_8  and  C_9 
REMARK    5  A    between atoms: C_9  and  C_10 
REMARK    6  A    between atoms: C_10  and  C_12 
REMARK    7  A    between atoms: C_24  and  O_25 
REMARK    8  A    between atoms: O_25  and  C_26 
REMARK    9  A    between atoms: C_26  and  C_27 
REMARK       I    between atoms: C_27  and  N_29 
REMARK   10  A    between atoms: N_29  and  C_30 
ROOT
ATOM      1  C   UNL d   1      25.647 -15.238  -2.516  0.00  0.00     0.102 A 
ATOM      2  C   UNL d   1      27.044 -15.382  -2.759  0.00  0.00     0.057 A 
ATOM      3  C   UNL d   1      27.860 -16.251  -1.993  0.00  0.00     0.042 A 
ATOM      4  C   UNL d   1      27.295 -16.888  -0.892  0.00  0.00     0.020 A 
ATOM      5  C   UNL d   1      25.921 -16.762  -0.649  0.00  0.00     0.040 A 
ATOM      6  C   UNL d   1      25.074 -15.989  -1.469  0.00  0.00     0.102 A 
ENDROOT
BRANCH   3   7
ATOM      7  C   UNL d   1      29.273 -16.546  -2.448  0.00  0.00     0.293 C 
ATOM      8  O   UNL d   1      29.631 -16.524  -3.599  0.00  0.00    -0.259 OA
BRANCH   7   9
ATOM      9  O   UNL d   1      30.088 -16.899  -1.409  0.00  0.00    -0.310 OA
BRANCH   9  10
ATOM     10  C   UNL d   1      31.090 -15.917  -1.054  0.00  0.00     0.262 C 
BRANCH  10  11
ATOM     11  C   UNL d   1      30.415 -14.787  -0.293  0.00  0.00     0.182 C 
ATOM     12  O   UNL d   1      29.623 -14.051  -0.883  0.00  0.00    -0.290 OA
BRANCH  11  13
ATOM     13  C   UNL d   1      30.684 -14.563   1.172  0.00  0.00     0.025 A 
ATOM     14  C   UNL d   1      29.605 -14.447   1.987  0.00  0.00     0.002 A 
ATOM     15  C   UNL d   1      28.185 -14.340   1.805  0.00  0.00     0.014 C 
ATOM     16  C   UNL d   1      30.135 -14.455   3.361  0.00  0.00     0.039 A 
ATOM     17  C   UNL d   1      27.403 -14.009   2.842  0.00  0.00     0.001 C 
ATOM     18  C   UNL d   1      27.926 -13.926   4.191  0.00  0.00     0.002 C 
ATOM     19  C   UNL d   1      29.221 -14.144   4.486  0.00  0.00     0.030 C 
ATOM     20  N   UNL d   1      31.381 -14.714   3.383  0.00  0.00    -0.381 N 
ATOM     21  C   UNL d   1      31.942 -14.834   1.998  0.00  0.00     0.115 A 
ATOM     22  H   UNL d   1      31.902 -14.713   4.262  0.00  0.00     0.160 HD
ATOM     23  C   UNL d   1      33.479 -14.967   2.189  0.00  0.00     0.037 C 
ENDBRANCH  11  13
ENDBRANCH  10  11
ENDBRANCH   9  10
ENDBRANCH   7   9
ENDBRANCH   3   7
BRANCH   1  24
ATOM     24  O   UNL d   1      24.966 -14.571  -3.517  0.00  0.00    -0.353 OA
ATOM     25  C   UNL d   1      25.579 -13.452  -4.161  0.00  0.00     0.210 C 
ENDBRANCH   1  24
BRANCH   6  26
ATOM     26  O   UNL d   1      23.756 -16.200  -1.119  0.00  0.00    -0.339 OA
BRANCH  26  27
ATOM     27  C   UNL d   1      23.357 -17.534  -0.971  0.00  0.00     0.278 C 
BRANCH  27  28
ATOM     28  C   UNL d   1      21.947 -17.958  -0.590  0.00  0.00     0.246 C 
ATOM     29  O   UNL d   1      20.978 -17.355  -1.043  0.00  0.00    -0.271 OA
ATOM     30  N   UNL d   1      21.868 -19.092   0.244  0.00  0.00    -0.325 N 
ATOM     31  H   UNL d   1      22.669 -19.440   0.763  0.00  0.00     0.169 HD
BRANCH  30  32
ATOM     32  C   UNL d   1      20.612 -19.674   0.526  0.00  0.00     0.035 A 
ATOM     33  C   UNL d   1      19.744 -20.091  -0.489  0.00  0.00     0.032 A 
ATOM     34  C   UNL d   1      18.528 -20.698  -0.143  0.00  0.00     0.044 A 
ATOM     35  C   UNL d   1      18.208 -20.902   1.199  0.00  0.00     0.116 A 
ATOM     36  F   UNL d   1      17.081 -21.545   1.525  0.00  0.00    -0.206 F 
ATOM     37  C   UNL d   1      19.048 -20.460   2.206  0.00  0.00     0.044 A 
ATOM     38  C   UNL d   1      20.239 -19.837   1.864  0.00  0.00     0.032 A 
ENDBRANCH  30  32
ENDBRANCH  27  28
ENDBRANCH  26  27
ENDBRANCH   6  26
TORSDOF 10
ENDMDL
MODEL 8
REMARK VINA RESULT:    -9.549      4.171      6.773
REMARK INTER + INTRA:         -14.519
REMARK INTER:                 -12.532
REMARK INTRA:                  -1.986
REMARK CONF_INDEPENDENT:        2.983
REMARK UNBOUND:                -1.986
REMARK  10 active torsions:
REMARK  status: ('A' for Active; 'I' for Inactive)
REMARK    1  A    between atoms: O_2  and  C_3 
REMARK    2  A    between atoms: C_5  and  C_6 
REMARK    3  A    between atoms: C_6  and  O_8 
REMARK    4  A    between atoms: O_8  and  C_9 
REMARK    5  A    between atoms: C_9  and  C_10 
REMARK    6  A    between atoms: C_10  and  C_12 
REMARK    7  A    between atoms: C_24  and  O_25 
REMARK    8  A    between atoms: O_25  and  C_26 
REMARK    9  A    between atoms: C_26  and  C_27 
REMARK       I    between atoms: C_27  and  N_29 
REMARK   10  A    between atoms: N_29  and  C_30 
ROOT
ATOM      1  C   UNL d   1      25.688 -15.486  -2.688  0.00  0.00     0.102 A 
ATOM      2  C   UNL d   1      27.103 -15.430  -2.527  0.00  0.00     0.057 A 
ATOM      3  C   UNL d   1      27.763 -16.020  -1.420  0.00  0.00     0.042 A 
ATOM      4  C   UNL d   1      26.987 -16.564  -0.401  0.00  0.00     0.020 A 
ATOM      5  C   UNL d   1      25.596 -16.634  -0.553  0.00  0.00     0.040 A 
ATOM      6  C   UNL d   1      24.933 -16.152  -1.699  0.00  0.00     0.102 A 
ENDROOT
BRANCH   3   7
ATOM      7  C   UNL d   1      29.272 -16.140  -1.426  0.00  0.00     0.293 C 
ATOM      8  O   UNL d   1      29.941 -16.212  -2.426  0.00  0.00    -0.259 OA
BRANCH   7   9
ATOM      9  O   UNL d   1      29.790 -16.217  -0.163  0.00  0.00    -0.310 OA
BRANCH   9  10
ATOM     10  C   UNL d   1      30.943 -15.377   0.079  0.00  0.00     0.262 C 
BRANCH  10  11
ATOM     11  C   UNL d   1      30.470 -14.064   0.681  0.00  0.00     0.182 C 
ATOM     12  O   UNL d   1      31.233 -13.096   0.692  0.00  0.00    -0.290 OA
BRANCH  11  13
ATOM     13  C   UNL d   1      29.082 -13.919   1.247  0.00  0.00     0.025 A 
ATOM     14  C   UNL d   1      28.945 -14.050   2.590  0.00  0.00     0.002 A 
ATOM     15  C   UNL d   1      29.795 -14.447   3.677  0.00  0.00     0.014 C 
ATOM     16  C   UNL d   1      27.560 -13.653   2.896  0.00  0.00     0.039 A 
ATOM     17  C   UNL d   1      29.266 -14.684   4.885  0.00  0.00     0.001 C 
ATOM     18  C   UNL d   1      27.880 -14.381   5.179  0.00  0.00     0.002 C 
ATOM     19  C   UNL d   1      27.033 -13.877   4.263  0.00  0.00     0.030 C 
ATOM     20  N   UNL d   1      26.971 -13.175   1.873  0.00  0.00    -0.381 N 
ATOM     21  C   UNL d   1      27.838 -13.255   0.653  0.00  0.00     0.115 A 
ATOM     22  H   UNL d   1      25.990 -12.895   1.916  0.00  0.00     0.160 HD
ATOM     23  C   UNL d   1      26.927 -12.810  -0.525  0.00  0.00     0.037 C 
ENDBRANCH  11  13
ENDBRANCH  10  11
ENDBRANCH   9  10
ENDBRANCH   7   9
ENDBRANCH   3   7
BRANCH   1  24
ATOM     24  O   UNL d   1      25.248 -15.108  -3.942  0.00  0.00    -0.353 OA
ATOM     25  C   UNL d   1      26.100 -14.325  -4.782  0.00  0.00     0.210 C 
ENDBRANCH   1  24
BRANCH   6  26
ATOM     26  O   UNL d   1      23.605 -16.524  -1.669  0.00  0.00    -0.339 OA
BRANCH  26  27
ATOM     27  C   UNL d   1      23.270 -17.563  -0.793  0.00  0.00     0.278 C 
BRANCH  27  28
ATOM     28  C   UNL d   1      21.841 -18.002  -0.508  0.00  0.00     0.246 C 
ATOM     29  O   UNL d   1      20.904 -17.481  -1.106  0.00  0.00    -0.271 OA
ATOM     30  N   UNL d   1      21.714 -19.056   0.421  0.00  0.00    -0.325 N 
ATOM     31  H   UNL d   1      22.470 -19.325   1.044  0.00  0.00     0.169 HD
BRANCH  30  32
ATOM     32  C   UNL d   1      20.454 -19.656   0.637  0.00  0.00     0.035 A 
ATOM     33  C   UNL d   1      19.634 -20.063  -0.421  0.00  0.00     0.032 A 
ATOM     34  C   UNL d   1      18.411 -20.688  -0.139  0.00  0.00     0.044 A 
ATOM     35  C   UNL d   1      18.036 -20.919   1.185  0.00  0.00     0.116 A 
ATOM     36  F   UNL d   1      16.903 -21.580   1.451  0.00  0.00    -0.206 F 
ATOM     37  C   UNL d   1      18.828 -20.488   2.235  0.00  0.00     0.044 A 
ATOM     38  C   UNL d   1      20.026 -19.847   1.955  0.00  0.00     0.032 A 
ENDBRANCH  30  32
ENDBRANCH  27  28
ENDBRANCH  26  27
ENDBRANCH   6  26
TORSDOF 10
ENDMDL
