MODEL 1
REMARK VINA RESULT:   -31.818      0.000      0.000
REMARK INTER + INTRA:         -35.660
REMARK INTER:                 -34.503
REMARK INTRA:                  -1.157
REMARK CONF_INDEPENDENT:        2.685
REMARK UNBOUND:                -1.157
REMARK  9 active torsions:
REMARK  status: ('A' for Active; 'I' for Inactive)
REMARK    1  A    between atoms: C_2  and  C_3 
REMARK    2  A    between atoms: C_7  and  C_6 
REMARK    3  A    between atoms: C_10  and  S_11 
REMARK    4  A    between atoms: S_11  and  C_12 
REMARK    5  A    between atoms: C_12  and  C_13 
REMARK       I    between atoms: C_13  and  N_15 
REMARK    6  A    between atoms: CA_16  and  N_15 
REMARK    7  A    between atoms: CA_16  and  C_27 
REMARK    8  A    between atoms: CA_16  and  CB_17 
REMARK    9  A    between atoms: CB_17  and  CG_18 
ROOT
ATOM      1  C   UNK d   0      26.805 -17.152  -0.061  0.00  0.00     0.228 C 
ATOM      2  O   UNK d   0      27.710 -17.974   0.220  0.00  0.00    -0.273 OA
ATOM      3  N   TRP d   1      25.659 -17.569  -0.673  0.00  0.00    -0.346 N 
ATOM      4  H   TRP d   1      25.741 -18.510  -1.082  0.00  0.00     0.163 HD
ENDROOT
BRANCH   1   5
ATOM      5  C   UNK d   0      26.878 -15.676   0.271  0.00  0.00     0.185 C 
BRANCH   5   6
ATOM      6  S   UNK d   0      28.444 -15.162   1.048  0.00  0.00    -0.081 SA
BRANCH   6   7
ATOM      7  C   UNK d   0      27.929 -14.175   2.353  0.00  0.00     0.183 C 
ATOM      8  N   UNK d   0      27.327 -13.028   2.363  0.00  0.00    -0.152 NA
ATOM      9  N   UNK d   0      27.243 -12.709   3.695  0.00  0.00    -0.284 N 
ATOM     10  C   UNK d   0      27.438 -13.828   4.595  0.00  0.00     0.235 C 
ATOM     11  H   UNK d   0      26.773 -11.866   4.003  0.00  0.00     0.185 HD
ATOM     12  N   UNK d   0      28.186 -14.671   3.665  0.00  0.00    -0.342 N 
ATOM     13  H   UNK d   0      28.795 -15.451   3.829  0.00  0.00     0.164 HD
BRANCH  10  14
ATOM     14  C   UNK d   0      28.160 -13.502   5.883  0.00  0.00    -0.015 A 
ATOM     15  C   UNK d   0      29.226 -14.311   6.338  0.00  0.00     0.011 A 
ATOM     16  C   UNK d   0      29.850 -14.075   7.577  0.00  0.00     0.007 A 
ATOM     17  C   UNK d   0      29.485 -12.966   8.341  0.00  0.00    -0.059 A 
ATOM     18  C   UNK d   0      28.515 -12.098   7.831  0.00  0.00     0.007 A 
ATOM     19  C   UNK d   0      27.852 -12.368   6.638  0.00  0.00     0.011 A 
BRANCH  17  20
ATOM     20  C   UNK d   0      30.097 -12.659   9.687  0.00  0.00     0.034 C 
ATOM     21  C   UNK d   0      29.016 -12.531  10.759  0.00  0.00     0.010 C 
ENDBRANCH  17  20
ENDBRANCH  10  14
ENDBRANCH   6   7
ENDBRANCH   5   6
ENDBRANCH   1   5
BRANCH   3  22
ATOM     22  CA  TRP d   1      24.450 -16.730  -1.240  0.00  0.00     0.189 C 
BRANCH  22  23
ATOM     23  C   TRP d   1      25.182 -15.777  -2.382  0.00  0.00     0.197 C 
ATOM     24  O   TRP d   1      24.503 -14.822  -2.831  0.00  0.00    -0.646 OA
ATOM     25  OXT TRP d   1      26.331 -16.193  -2.754  0.00  0.00    -0.646 OA
ENDBRANCH  22  23
BRANCH  22  26
ATOM     26  CB  TRP d   1      23.100 -17.820  -1.595  0.00  0.00     0.073 C 
BRANCH  26  27
ATOM     27  CG  TRP d   1      21.747 -18.325  -0.590  0.00  0.00    -0.046 C 
ATOM     28  CD1 TRP d   1      21.186 -19.325  -1.373  0.00  0.00     0.112 C 
ATOM     29  NE1 TRP d   1      19.900 -18.906  -1.163  0.00  0.00    -0.282 NA
ATOM     30  CE2 TRP d   1      19.678 -19.336   0.107  0.00  0.00     0.019 A 
ATOM     31  HE1 TRP d   1      19.544 -17.995  -1.380  0.00  0.00     0.128 HD
ATOM     32  CZ2 TRP d   1      18.502 -20.026   0.482  0.00  0.00     0.024 A 
ATOM     33  CD2 TRP d   1      20.874 -19.035   0.760  0.00  0.00    -0.011 A 
ATOM     34  CH2 TRP d   1      18.311 -20.615   1.693  0.00  0.00     0.002 A 
ATOM     35  CZ3 TRP d   1      19.375 -20.450   2.538  0.00  0.00     0.001 A 
ATOM     36  CE3 TRP d   1      20.644 -19.633   2.149  0.00  0.00     0.013 A 
ENDBRANCH  26  27
ENDBRANCH  22  26
ENDBRANCH   3  22
TORSDOF 9
ENDMDL
MODEL 2
REMARK VINA RESULT:   -31.672      1.529      2.744
REMARK INTER + INTRA:         -35.502
REMARK INTER:                 -34.356
REMARK INTRA:                  -1.146
REMARK CONF_INDEPENDENT:        2.685
REMARK UNBOUND:                -1.146
REMARK  9 active torsions:
REMARK  status: ('A' for Active; 'I' for Inactive)
REMARK    1  A    between atoms: C_2  and  C_3 
REMARK    2  A    between atoms: C_7  and  C_6 
REMARK    3  A    between atoms: C_10  and  S_11 
REMARK    4  A    between atoms: S_11  and  C_12 
REMARK    5  A    between atoms: C_12  and  C_13 
REMARK       I    between atoms: C_13  and  N_15 
REMARK    6  A    between atoms: CA_16  and  N_15 
REMARK    7  A    between atoms: CA_16  and  C_27 
REMARK    8  A    between atoms: CA_16  and  CB_17 
REMARK    9  A    between atoms: CB_17  and  CG_18 
ROOT
ATOM      1  C   UNK d   0      25.375 -16.021  -2.548  0.00  0.00     0.228 C 
ATOM      2  O   UNK d   0      25.671 -15.580  -3.685  0.00  0.00    -0.273 OA
ATOM      3  N   TRP d   1      24.991 -17.320  -2.390  0.00  0.00    -0.346 N 
ATOM      4  H   TRP d   1      24.736 -17.775  -3.278  0.00  0.00     0.163 HD
ENDROOT
BRANCH   1   5
ATOM      5  C   UNK d   0      25.445 -15.193  -1.282  0.00  0.00     0.185 C 
BRANCH   5   6
ATOM      6  S   UNK d   0      26.693 -13.866  -1.325  0.00  0.00    -0.081 SA
BRANCH   6   7
ATOM      7  C   UNK d   0      27.793 -14.321  -0.090  0.00  0.00     0.183 C 
ATOM      8  N   UNK d   0      28.492 -15.400   0.067  0.00  0.00    -0.152 NA
ATOM      9  N   UNK d   0      29.124 -15.212   1.271  0.00  0.00    -0.284 N 
ATOM     10  C   UNK d   0      29.151 -13.838   1.729  0.00  0.00     0.235 C 
ATOM     11  H   UNK d   0      29.780 -15.896   1.629  0.00  0.00     0.185 HD
ATOM     12  N   UNK d   0      28.001 -13.374   0.956  0.00  0.00    -0.342 N 
ATOM     13  H   UNK d   0      27.409 -12.574   1.075  0.00  0.00     0.164 HD
BRANCH  10  14
ATOM     14  C   UNK d   0      29.030 -13.655   3.225  0.00  0.00    -0.015 A 
ATOM     15  C   UNK d   0      27.882 -13.051   3.789  0.00  0.00     0.011 A 
ATOM     16  C   UNK d   0      27.791 -12.792   5.168  0.00  0.00     0.007 A 
ATOM     17  C   UNK d   0      28.806 -13.218   6.026  0.00  0.00    -0.059 A 
ATOM     18  C   UNK d   0      29.884 -13.923   5.482  0.00  0.00     0.007 A 
ATOM     19  C   UNK d   0      30.006 -14.122   4.110  0.00  0.00     0.011 A 
BRANCH  17  20
ATOM     20  C   UNK d   0      28.787 -12.960   7.513  0.00  0.00     0.034 C 
ATOM     21  C   UNK d   0      29.600 -11.714   7.860  0.00  0.00     0.010 C 
ENDBRANCH  17  20
ENDBRANCH  10  14
ENDBRANCH   6   7
ENDBRANCH   5   6
ENDBRANCH   1   5
BRANCH   3  22
ATOM     22  CA  TRP d   1      24.450 -18.069  -1.111  0.00  0.00     0.189 C 
BRANCH  22  23
ATOM     23  C   TRP d   1      25.739 -17.977  -0.073  0.00  0.00     0.197 C 
ATOM     24  O   TRP d   1      26.852 -17.712  -0.587  0.00  0.00    -0.646 OA
ATOM     25  OXT TRP d   1      25.465 -18.292   1.134  0.00  0.00    -0.646 OA
ENDBRANCH  22  23
BRANCH  22  26
ATOM     26  CB  TRP d   1      22.834 -17.458  -0.720  0.00  0.00     0.073 C 
BRANCH  26  27
ATOM     27  CG  TRP d   1      21.398 -18.308  -0.162  0.00  0.00    -0.046 C 
ATOM     28  CD1 TRP d   1      21.259 -19.280  -1.143  0.00  0.00     0.112 C 
ATOM     29  NE1 TRP d   1      19.905 -19.114  -1.257  0.00  0.00    -0.282 NA
ATOM     30  CE2 TRP d   1      19.460 -19.735  -0.133  0.00  0.00     0.019 A 
ATOM     31  HE1 TRP d   1      19.444 -18.257  -1.491  0.00  0.00     0.128 HD
ATOM     32  CZ2 TRP d   1      18.387 -20.655  -0.146  0.00  0.00     0.024 A 
ATOM     33  CD2 TRP d   1      20.371 -19.322   0.842  0.00  0.00    -0.011 A 
ATOM     34  CH2 TRP d   1      18.017 -21.418   0.917  0.00  0.00     0.002 A 
ATOM     35  CZ3 TRP d   1      18.780 -21.185   2.030  0.00  0.00     0.001 A 
ATOM     36  CE3 TRP d   1      19.921 -20.122   2.064  0.00  0.00     0.013 A 
ENDBRANCH  26  27
ENDBRANCH  22  26
ENDBRANCH   3  22
TORSDOF 9
ENDMDL
MODEL 3
REMARK VINA RESULT:   -31.350      1.351      2.029
REMARK INTER + INTRA:         -35.159
REMARK INTER:                 -34.035
REMARK INTRA:                  -1.124
REMARK CONF_INDEPENDENT:        2.685
REMARK UNBOUND:                -1.124
REMARK  9 active torsions:
REMARK  status: ('A' for Active; 'I' for Inactive)
REMARK    1  A    between atoms: C_2  and  C_3 
REMARK    2  A    between atoms: C_7  and  C_6 
REMARK    3  A    between atoms: C_10  and  S_11 
REMARK    4  A    between atoms: S_11  and  C_12 
REMARK    5  A    between atoms: C_12  and  C_13 
REMARK       I    between atoms: C_13  and  N_15 
REMARK    6  A    between atoms: CA_16  and  N_15 
REMARK    7  A    between atoms: CA_16  and  C_27 
REMARK    8  A    between atoms: CA_16  and  CB_17 
REMARK    9  A    between atoms: CB_17  and  CG_18 
ROOT
ATOM      1  C   UNK d   0      26.351 -17.665   0.209  0.00  0.00     0.228 C 
ATOM      2  O   UNK d   0      26.954 -18.271   1.127  0.00  0.00    -0.273 OA
ATOM      3  N   TRP d   1      25.128 -17.105   0.438  0.00  0.00    -0.346 N 
ATOM      4  H   TRP d   1      24.685 -17.446   1.302  0.00  0.00     0.163 HD
ENDROOT
BRANCH   1   5
ATOM      5  C   UNK d   0      26.914 -17.475  -1.184  0.00  0.00     0.185 C 
BRANCH   5   6
ATOM      6  S   UNK d   0      28.567 -16.708  -1.222  0.00  0.00    -0.081 SA
BRANCH   6   7
ATOM      7  C   UNK d   0      28.397 -15.356  -0.180  0.00  0.00     0.183 C 
ATOM      8  N   UNK d   0      28.501 -14.087  -0.414  0.00  0.00    -0.152 NA
ATOM      9  N   UNK d   0      28.330 -13.508   0.819  0.00  0.00    -0.284 N 
ATOM     10  C   UNK d   0      27.720 -14.371   1.809  0.00  0.00     0.235 C 
ATOM     11  H   UNK d   0      28.322 -12.500   0.927  0.00  0.00     0.185 HD
ATOM     12  N   UNK d   0      28.082 -15.640   1.182  0.00  0.00    -0.342 N 
ATOM     13  H   UNK d   0      28.142 -16.567   1.560  0.00  0.00     0.164 HD
BRANCH  10  14
ATOM     14  C   UNK d   0      28.227 -14.190   3.222  0.00  0.00    -0.015 A 
ATOM     15  C   UNK d   0      29.583 -14.436   3.540  0.00  0.00     0.011 A 
ATOM     16  C   UNK d   0      30.052 -14.359   4.864  0.00  0.00     0.007 A 
ATOM     17  C   UNK d   0      29.196 -13.941   5.884  0.00  0.00    -0.059 A 
ATOM     18  C   UNK d   0      27.888 -13.580   5.548  0.00  0.00     0.007 A 
ATOM     19  C   UNK d   0      27.405 -13.720   4.250  0.00  0.00     0.011 A 
BRANCH  17  20
ATOM     20  C   UNK d   0      29.623 -13.851   7.329  0.00  0.00     0.034 C 
ATOM     21  C   UNK d   0      28.715 -12.901   8.107  0.00  0.00     0.010 C 
ENDBRANCH  17  20
ENDBRANCH  10  14
ENDBRANCH   6   7
ENDBRANCH   5   6
ENDBRANCH   1   5
BRANCH   3  22
ATOM     22  CA  TRP d   1      24.123 -16.418  -0.566  0.00  0.00     0.189 C 
BRANCH  22  23
ATOM     23  C   TRP d   1      25.139 -15.550  -1.548  0.00  0.00     0.197 C 
ATOM     24  O   TRP d   1      25.239 -15.943  -2.735  0.00  0.00    -0.646 OA
ATOM     25  OXT TRP d   1      25.791 -14.630  -0.947  0.00  0.00    -0.646 OA
ENDBRANCH  22  23
BRANCH  22  26
ATOM     26  CB  TRP d   1      22.982 -17.631  -1.169  0.00  0.00     0.073 C 
BRANCH  26  27
ATOM     27  CG  TRP d   1      21.568 -18.345  -0.404  0.00  0.00    -0.046 C 
ATOM     28  CD1 TRP d   1      21.226 -19.325  -1.326  0.00  0.00     0.112 C 
ATOM     29  NE1 TRP d   1      19.886 -19.049  -1.271  0.00  0.00    -0.282 NA
ATOM     30  CE2 TRP d   1      19.543 -19.604  -0.079  0.00  0.00     0.019 A 
ATOM     31  HE1 TRP d   1      19.468 -18.162  -1.473  0.00  0.00     0.128 HD
ATOM     32  CZ2 TRP d   1      18.407 -20.432   0.076  0.00  0.00     0.024 A 
ATOM     33  CD2 TRP d   1      20.603 -19.246   0.757  0.00  0.00    -0.011 A 
ATOM     34  CH2 TRP d   1      18.120 -21.137   1.204  0.00  0.00     0.002 A 
ATOM     35  CZ3 TRP d   1      19.038 -20.942   2.201  0.00  0.00     0.001 A 
ATOM     36  CE3 TRP d   1      20.254 -19.978   2.053  0.00  0.00     0.013 A 
ENDBRANCH  26  27
ENDBRANCH  22  26
ENDBRANCH   3  22
TORSDOF 9
ENDMDL
MODEL 4
REMARK VINA RESULT:   -31.093      5.416      8.061
REMARK INTER + INTRA:         -35.369
REMARK INTER:                 -33.777
REMARK INTRA:                  -1.592
REMARK CONF_INDEPENDENT:        2.685
REMARK UNBOUND:                -1.592
REMARK  9 active torsions:
REMARK  status: ('A' for Active; 'I' for Inactive)
REMARK    1  A    between atoms: C_2  and  C_3 
REMARK    2  A    between atoms: C_7  and  C_6 
REMARK    3  A    between atoms: C_10  and  S_11 
REMARK    4  A    between atoms: S_11  and  C_12 
REMARK    5  A    between atoms: C_12  and  C_13 
REMARK       I    between atoms: C_13  and  N_15 
REMARK    6  A    between atoms: CA_16  and  N_15 
REMARK    7  A    between atoms: CA_16  and  C_27 
REMARK    8  A    between atoms: CA_16  and  CB_17 
REMARK    9  A    between atoms: CB_17  and  CG_18 
ROOT
ATOM      1  C   UNK d   0      26.296 -15.489  -0.873  0.00  0.00     0.228 C 
ATOM      2  O   UNK d   0      26.558 -14.327  -0.479  0.00  0.00    -0.273 OA
ATOM      3  N   TRP d   1      25.053 -16.018  -0.685  0.00  0.00    -0.346 N 
ATOM      4  H   TRP d   1      24.492 -15.493  -0.000  0.00  0.00     0.163 HD
ENDROOT
BRANCH   1   5
ATOM      5  C   UNK d   0      27.288 -16.374  -1.599  0.00  0.00     0.185 C 
BRANCH   5   6
ATOM      6  S   UNK d   0      27.992 -15.627  -3.105  0.00  0.00    -0.081 SA
BRANCH   6   7
ATOM      7  C   UNK d   0      26.723 -14.625  -3.676  0.00  0.00     0.183 C 
ATOM      8  N   UNK d   0      25.643 -14.913  -4.330  0.00  0.00    -0.152 NA
ATOM      9  N   UNK d   0      25.060 -13.693  -4.563  0.00  0.00    -0.284 N 
ATOM     10  C   UNK d   0      25.554 -12.620  -3.723  0.00  0.00     0.235 C 
ATOM     11  H   UNK d   0      24.164 -13.621  -5.030  0.00  0.00     0.185 HD
ATOM     12  N   UNK d   0      26.841 -13.231  -3.399  0.00  0.00    -0.342 N 
ATOM     13  H   UNK d   0      27.694 -12.826  -3.062  0.00  0.00     0.164 HD
BRANCH  10  14
ATOM     14  C   UNK d   0      25.639 -11.266  -4.389  0.00  0.00    -0.015 A 
ATOM     15  C   UNK d   0      25.781 -11.159  -5.792  0.00  0.00     0.011 A 
ATOM     16  C   UNK d   0      25.951  -9.912  -6.420  0.00  0.00     0.007 A 
ATOM     17  C   UNK d   0      25.886  -8.738  -5.668  0.00  0.00    -0.059 A 
ATOM     18  C   UNK d   0      25.624  -8.840  -4.298  0.00  0.00     0.007 A 
ATOM     19  C   UNK d   0      25.521 -10.076  -3.667  0.00  0.00     0.011 A 
BRANCH  17  20
ATOM     20  C   UNK d   0      26.077  -7.366  -6.269  0.00  0.00     0.034 C 
ATOM     21  C   UNK d   0      27.072  -7.413  -7.427  0.00  0.00     0.010 C 
ENDBRANCH  17  20
ENDBRANCH  10  14
ENDBRANCH   6   7
ENDBRANCH   5   6
ENDBRANCH   1   5
BRANCH   3  22
ATOM     22  CA  TRP d   1      24.518 -17.476  -0.964  0.00  0.00     0.189 C 
BRANCH  22  23
ATOM     23  C   TRP d   1      25.193 -18.346   0.275  0.00  0.00     0.197 C 
ATOM     24  O   TRP d   1      24.466 -18.544   1.278  0.00  0.00    -0.646 OA
ATOM     25  OXT TRP d   1      26.427 -18.629   0.107  0.00  0.00    -0.646 OA
ENDBRANCH  22  23
BRANCH  22  26
ATOM     26  CB  TRP d   1      22.776 -17.408  -1.276  0.00  0.00     0.073 C 
BRANCH  26  27
ATOM     27  CG  TRP d   1      21.439 -18.206  -0.459  0.00  0.00    -0.046 C 
ATOM     28  CD1 TRP d   1      21.231 -19.302  -1.285  0.00  0.00     0.112 C 
ATOM     29  NE1 TRP d   1      19.867 -19.181  -1.269  0.00  0.00    -0.282 NA
ATOM     30  CE2 TRP d   1      19.567 -19.656  -0.032  0.00  0.00     0.019 A 
ATOM     31  HE1 TRP d   1      19.354 -18.371  -1.559  0.00  0.00     0.128 HD
ATOM     32  CZ2 TRP d   1      18.531 -20.592   0.193  0.00  0.00     0.024 A 
ATOM     33  CD2 TRP d   1      20.561 -19.099   0.775  0.00  0.00    -0.011 A 
ATOM     34  CH2 TRP d   1      18.304 -21.216   1.380  0.00  0.00     0.002 A 
ATOM     35  CZ3 TRP d   1      19.173 -20.822   2.362  0.00  0.00     0.001 A 
ATOM     36  CE3 TRP d   1      20.273 -19.740   2.133  0.00  0.00     0.013 A 
ENDBRANCH  26  27
ENDBRANCH  22  26
ENDBRANCH   3  22
TORSDOF 9
ENDMDL
MODEL 5
REMARK VINA RESULT:   -30.609      5.754      8.096
REMARK INTER + INTRA:         -35.257
REMARK INTER:                 -33.294
REMARK INTRA:                  -1.963
REMARK CONF_INDEPENDENT:        2.685
REMARK UNBOUND:                -1.963
REMARK  9 active torsions:
REMARK  status: ('A' for Active; 'I' for Inactive)
REMARK    1  A    between atoms: C_2  and  C_3 
REMARK    2  A    between atoms: C_7  and  C_6 
REMARK    3  A    between atoms: C_10  and  S_11 
REMARK    4  A    between atoms: S_11  and  C_12 
REMARK    5  A    between atoms: C_12  and  C_13 
REMARK       I    between atoms: C_13  and  N_15 
REMARK    6  A    between atoms: CA_16  and  N_15 
REMARK    7  A    between atoms: CA_16  and  C_27 
REMARK    8  A    between atoms: CA_16  and  CB_17 
REMARK    9  A    between atoms: CB_17  and  CG_18 
ROOT
ATOM      1  C   UNK d   0      25.341 -16.099  -2.735  0.00  0.00     0.228 C 
ATOM      2  O   UNK d   0      25.549 -15.653  -3.889  0.00  0.00    -0.273 OA
ATOM      3  N   TRP d   1      24.882 -17.372  -2.560  0.00  0.00    -0.346 N 
ATOM      4  H   TRP d   1      24.505 -17.786  -3.424  0.00  0.00     0.163 HD
ENDROOT
BRANCH   1   5
ATOM      5  C   UNK d   0      25.601 -15.310  -1.469  0.00  0.00     0.185 C 
BRANCH   5   6
ATOM      6  S   UNK d   0      26.285 -13.645  -1.754  0.00  0.00    -0.081 SA
BRANCH   6   7
ATOM      7  C   UNK d   0      27.782 -13.962  -2.528  0.00  0.00     0.183 C 
ATOM      8  N   UNK d   0      28.666 -13.158  -3.027  0.00  0.00    -0.152 NA
ATOM      9  N   UNK d   0      29.609 -13.996  -3.568  0.00  0.00    -0.284 N 
ATOM     10  C   UNK d   0      29.549 -15.361  -3.086  0.00  0.00     0.235 C 
ATOM     11  H   UNK d   0      30.451 -13.629  -3.997  0.00  0.00     0.185 HD
ATOM     12  N   UNK d   0      28.151 -15.334  -2.660  0.00  0.00    -0.342 N 
ATOM     13  H   UNK d   0      27.502 -16.078  -2.488  0.00  0.00     0.164 HD
BRANCH  10  14
ATOM     14  C   UNK d   0      29.884 -16.422  -4.109  0.00  0.00    -0.015 A 
ATOM     15  C   UNK d   0      30.028 -17.776  -3.726  0.00  0.00     0.011 A 
ATOM     16  C   UNK d   0      30.426 -18.761  -4.648  0.00  0.00     0.007 A 
ATOM     17  C   UNK d   0      30.595 -18.430  -5.993  0.00  0.00    -0.059 A 
ATOM     18  C   UNK d   0      30.333 -17.116  -6.392  0.00  0.00     0.007 A 
ATOM     19  C   UNK d   0      30.004 -16.127  -5.470  0.00  0.00     0.011 A 
BRANCH  17  20
ATOM     20  C   UNK d   0      31.038 -19.429  -7.035  0.00  0.00     0.034 C 
ATOM     21  C   UNK d   0      31.367 -18.730  -8.353  0.00  0.00     0.010 C 
ENDBRANCH  17  20
ENDBRANCH  10  14
ENDBRANCH   6   7
ENDBRANCH   5   6
ENDBRANCH   1   5
BRANCH   3  22
ATOM     22  CA  TRP d   1      24.423 -18.112  -1.244  0.00  0.00     0.189 C 
BRANCH  22  23
ATOM     23  C   TRP d   1      25.785 -18.039  -0.301  0.00  0.00     0.197 C 
ATOM     24  O   TRP d   1      25.615 -18.170   0.935  0.00  0.00    -0.646 OA
ATOM     25  OXT TRP d   1      26.852 -17.752  -0.942  0.00  0.00    -0.646 OA
ENDBRANCH  22  23
BRANCH  22  26
ATOM     26  CB  TRP d   1      22.849 -17.476  -0.738  0.00  0.00     0.073 C 
BRANCH  26  27
ATOM     27  CG  TRP d   1      21.408 -18.315  -0.178  0.00  0.00    -0.046 C 
ATOM     28  CD1 TRP d   1      21.254 -19.279  -1.165  0.00  0.00     0.112 C 
ATOM     29  NE1 TRP d   1      19.901 -19.099  -1.270  0.00  0.00    -0.282 NA
ATOM     30  CE2 TRP d   1      19.455 -19.721  -0.147  0.00  0.00     0.019 A 
ATOM     31  HE1 TRP d   1      19.447 -18.235  -1.495  0.00  0.00     0.128 HD
ATOM     32  CZ2 TRP d   1      18.372 -20.630  -0.160  0.00  0.00     0.024 A 
ATOM     33  CD2 TRP d   1      20.375 -19.324   0.825  0.00  0.00    -0.011 A 
ATOM     34  CH2 TRP d   1      18.001 -21.396   0.901  0.00  0.00     0.002 A 
ATOM     35  CZ3 TRP d   1      18.773 -21.178   2.010  0.00  0.00     0.001 A 
ATOM     36  CE3 TRP d   1      19.924 -20.128   2.045  0.00  0.00     0.013 A 
ENDBRANCH  26  27
ENDBRANCH  22  26
ENDBRANCH   3  22
TORSDOF 9
ENDMDL
MODEL 6
REMARK VINA RESULT:   -30.486      4.819      7.766
REMARK INTER + INTRA:         -35.438
REMARK INTER:                 -33.170
REMARK INTRA:                  -2.268
REMARK CONF_INDEPENDENT:        2.685
REMARK UNBOUND:                -2.268
REMARK  9 active torsions:
REMARK  status: ('A' for Active; 'I' for Inactive)
REMARK    1  A    between atoms: C_2  and  C_3 
REMARK    2  A    between atoms: C_7  and  C_6 
REMARK    3  A    between atoms: C_10  and  S_11 
REMARK    4  A    between atoms: S_11  and  C_12 
REMARK    5  A    between atoms: C_12  and  C_13 
REMARK       I    between atoms: C_13  and  N_15 
REMARK    6  A    between atoms: CA_16  and  N_15 
REMARK    7  A    between atoms: CA_16  and  C_27 
REMARK    8  A    between atoms: CA_16  and  CB_17 
REMARK    9  A    between atoms: CB_17  and  CG_18 
ROOT
ATOM      1  C   UNK d   0      26.629 -17.849   0.300  0.00  0.00     0.228 C 
ATOM      2  O   UNK d   0      27.281 -18.888   0.561  0.00  0.00    -0.273 OA
ATOM      3  N   TRP d   1      25.333 -17.934  -0.120  0.00  0.00    -0.346 N 
ATOM      4  H   TRP d   1      25.071 -18.881  -0.427  0.00  0.00     0.163 HD
ENDROOT
BRANCH   1   5
ATOM      5  C   UNK d   0      27.184 -16.448   0.451  0.00  0.00     0.185 C 
BRANCH   5   6
ATOM      6  S   UNK d   0      29.003 -16.356   0.401  0.00  0.00    -0.081 SA
BRANCH   6   7
ATOM      7  C   UNK d   0      29.353 -16.414  -1.278  0.00  0.00     0.183 C 
ATOM      8  N   UNK d   0      30.400 -16.838  -1.911  0.00  0.00    -0.152 NA
ATOM      9  N   UNK d   0      30.123 -16.564  -3.228  0.00  0.00    -0.284 N 
ATOM     10  C   UNK d   0      28.724 -16.314  -3.510  0.00  0.00     0.235 C 
ATOM     11  H   UNK d   0      30.766 -16.832  -3.964  0.00  0.00     0.185 HD
ATOM     12  N   UNK d   0      28.340 -15.925  -2.155  0.00  0.00    -0.342 N 
ATOM     13  H   UNK d   0      27.552 -15.404  -1.819  0.00  0.00     0.164 HD
BRANCH  10  14
ATOM     14  C   UNK d   0      28.457 -15.273  -4.573  0.00  0.00    -0.015 A 
ATOM     15  C   UNK d   0      29.196 -15.266  -5.779  0.00  0.00     0.011 A 
ATOM     16  C   UNK d   0      29.023 -14.253  -6.740  0.00  0.00     0.007 A 
ATOM     17  C   UNK d   0      28.039 -13.280  -6.559  0.00  0.00    -0.059 A 
ATOM     18  C   UNK d   0      27.227 -13.361  -5.423  0.00  0.00     0.007 A 
ATOM     19  C   UNK d   0      27.441 -14.323  -4.440  0.00  0.00     0.011 A 
BRANCH  17  20
ATOM     20  C   UNK d   0      27.807 -12.154  -7.537  0.00  0.00     0.034 C 
ATOM     21  C   UNK d   0      28.866 -12.164  -8.638  0.00  0.00     0.010 C 
ENDBRANCH  17  20
ENDBRANCH  10  14
ENDBRANCH   6   7
ENDBRANCH   5   6
ENDBRANCH   1   5
BRANCH   3  22
ATOM     22  CA  TRP d   1      24.357 -16.805  -0.630  0.00  0.00     0.189 C 
BRANCH  22  23
ATOM     23  C   TRP d   1      25.366 -15.836  -1.519  0.00  0.00     0.197 C 
ATOM     24  O   TRP d   1      25.627 -14.708  -1.034  0.00  0.00    -0.646 OA
ATOM     25  OXT TRP d   1      25.684 -16.315  -2.660  0.00  0.00    -0.646 OA
ENDBRANCH  22  23
BRANCH  22  26
ATOM     26  CB  TRP d   1      22.892 -17.554  -1.286  0.00  0.00     0.073 C 
BRANCH  26  27
ATOM     27  CG  TRP d   1      21.513 -18.272  -0.464  0.00  0.00    -0.046 C 
ATOM     28  CD1 TRP d   1      21.207 -19.326  -1.315  0.00  0.00     0.112 C 
ATOM     29  NE1 TRP d   1      19.857 -19.103  -1.270  0.00  0.00    -0.282 NA
ATOM     30  CE2 TRP d   1      19.543 -19.588  -0.040  0.00  0.00     0.019 A 
ATOM     31  HE1 TRP d   1      19.402 -18.249  -1.528  0.00  0.00     0.128 HD
ATOM     32  CZ2 TRP d   1      18.443 -20.449   0.179  0.00  0.00     0.024 A 
ATOM     33  CD2 TRP d   1      20.590 -19.130   0.762  0.00  0.00    -0.011 A 
ATOM     34  CH2 TRP d   1      18.190 -21.086   1.354  0.00  0.00     0.002 A 
ATOM     35  CZ3 TRP d   1      19.103 -20.787   2.329  0.00  0.00     0.001 A 
ATOM     36  CE3 TRP d   1      20.277 -19.785   2.108  0.00  0.00     0.013 A 
ENDBRANCH  26  27
ENDBRANCH  22  26
ENDBRANCH   3  22
TORSDOF 9
ENDMDL
MODEL 7
REMARK VINA RESULT:   -30.465      5.431      9.076
REMARK INTER + INTRA:         -34.586
REMARK INTER:                 -33.150
REMARK INTRA:                  -1.436
REMARK CONF_INDEPENDENT:        2.685
REMARK UNBOUND:                -1.436
REMARK  9 active torsions:
REMARK  status: ('A' for Active; 'I' for Inactive)
REMARK    1  A    between atoms: C_2  and  C_3 
REMARK    2  A    between atoms: C_7  and  C_6 
REMARK    3  A    between atoms: C_10  and  S_11 
REMARK    4  A    between atoms: S_11  and  C_12 
REMARK    5  A    between atoms: C_12  and  C_13 
REMARK       I    between atoms: C_13  and  N_15 
REMARK    6  A    between atoms: CA_16  and  N_15 
REMARK    7  A    between atoms: CA_16  and  C_27 
REMARK    8  A    between atoms: CA_16  and  CB_17 
REMARK    9  A    between atoms: CB_17  and  CG_18 
ROOT
ATOM      1  C   UNK d   0      25.980 -15.173  -0.830  0.00  0.00     0.228 C 
ATOM      2  O   UNK d   0      26.225 -14.093  -0.242  0.00  0.00    -0.273 OA
ATOM      3  N   TRP d   1      24.978 -15.988  -0.389  0.00  0.00    -0.346 N 
ATOM      4  H   TRP d   1      24.660 -15.755   0.562  0.00  0.00     0.163 HD
ENDROOT
BRANCH   1   5
ATOM      5  C   UNK d   0      26.722 -15.646  -2.063  0.00  0.00     0.185 C 
BRANCH   5   6
ATOM      6  S   UNK d   0      25.682 -15.786  -3.553  0.00  0.00    -0.081 SA
BRANCH   6   7
ATOM      7  C   UNK d   0      25.782 -14.222  -4.250  0.00  0.00     0.183 C 
ATOM      8  N   UNK d   0      24.883 -13.301  -4.399  0.00  0.00    -0.152 NA
ATOM      9  N   UNK d   0      25.538 -12.308  -5.083  0.00  0.00    -0.284 N 
ATOM     10  C   UNK d   0      26.983 -12.403  -5.046  0.00  0.00     0.235 C 
ATOM     11  H   UNK d   0      25.077 -11.432  -5.303  0.00  0.00     0.185 HD
ATOM     12  N   UNK d   0      27.056 -13.833  -4.758  0.00  0.00    -0.342 N 
ATOM     13  H   UNK d   0      27.804 -14.491  -4.879  0.00  0.00     0.164 HD
BRANCH  10  14
ATOM     14  C   UNK d   0      27.691 -11.968  -6.309  0.00  0.00    -0.015 A 
ATOM     15  C   UNK d   0      26.967 -11.405  -7.385  0.00  0.00     0.011 A 
ATOM     16  C   UNK d   0      27.595 -11.078  -8.601  0.00  0.00     0.007 A 
ATOM     17  C   UNK d   0      28.977 -11.218  -8.732  0.00  0.00    -0.059 A 
ATOM     18  C   UNK d   0      29.708 -11.661  -7.625  0.00  0.00     0.007 A 
ATOM     19  C   UNK d   0      29.079 -12.047  -6.445  0.00  0.00     0.011 A 
BRANCH  17  20
ATOM     20  C   UNK d   0      29.717 -10.905 -10.010  0.00  0.00     0.034 C 
ATOM     21  C   UNK d   0      31.107 -11.537 -10.003  0.00  0.00     0.010 C 
ENDBRANCH  17  20
ENDBRANCH  10  14
ENDBRANCH   6   7
ENDBRANCH   5   6
ENDBRANCH   1   5
BRANCH   3  22
ATOM     22  CA  TRP d   1      24.564 -17.434  -0.865  0.00  0.00     0.189 C 
BRANCH  22  23
ATOM     23  C   TRP d   1      25.238 -18.399   0.302  0.00  0.00     0.197 C 
ATOM     24  O   TRP d   1      24.564 -18.564   1.348  0.00  0.00    -0.646 OA
ATOM     25  OXT TRP d   1      26.427 -18.786   0.042  0.00  0.00    -0.646 OA
ENDBRANCH  22  23
BRANCH  22  26
ATOM     26  CB  TRP d   1      22.839 -17.443  -1.266  0.00  0.00     0.073 C 
BRANCH  26  27
ATOM     27  CG  TRP d   1      21.484 -18.215  -0.453  0.00  0.00    -0.046 C 
ATOM     28  CD1 TRP d   1      21.251 -19.302  -1.285  0.00  0.00     0.112 C 
ATOM     29  NE1 TRP d   1      19.891 -19.151  -1.270  0.00  0.00    -0.282 NA
ATOM     30  CE2 TRP d   1      19.578 -19.625  -0.035  0.00  0.00     0.019 A 
ATOM     31  HE1 TRP d   1      19.396 -18.328  -1.556  0.00  0.00     0.128 HD
ATOM     32  CZ2 TRP d   1      18.522 -20.539   0.183  0.00  0.00     0.024 A 
ATOM     33  CD2 TRP d   1      20.584 -19.094   0.775  0.00  0.00    -0.011 A 
ATOM     34  CH2 TRP d   1      18.280 -21.163   1.368  0.00  0.00     0.002 A 
ATOM     35  CZ3 TRP d   1      19.156 -20.793   2.352  0.00  0.00     0.001 A 
ATOM     36  CE3 TRP d   1      20.280 -19.736   2.129  0.00  0.00     0.013 A 
ENDBRANCH  26  27
ENDBRANCH  22  26
ENDBRANCH   3  22
TORSDOF 9
ENDMDL
MODEL 8
REMARK VINA RESULT:   -30.423      5.276      7.716
REMARK INTER + INTRA:         -35.198
REMARK INTER:                 -33.108
REMARK INTRA:                  -2.090
REMARK CONF_INDEPENDENT:        2.685
REMARK UNBOUND:                -2.090
REMARK  9 active torsions:
REMARK  status: ('A' for Active; 'I' for Inactive)
REMARK    1  A    between atoms: C_2  and  C_3 
REMARK    2  A    between atoms: C_7  and  C_6 
REMARK    3  A    between atoms: C_10  and  S_11 
REMARK    4  A    between atoms: S_11  and  C_12 
REMARK    5  A    between atoms: C_12  and  C_13 
REMARK       I    between atoms: C_13  and  N_15 
REMARK    6  A    between atoms: CA_16  and  N_15 
REMARK    7  A    between atoms: CA_16  and  C_27 
REMARK    8  A    between atoms: CA_16  and  CB_17 
REMARK    9  A    between atoms: CB_17  and  CG_18 
ROOT
ATOM      1  C   UNK d   0      26.414 -17.678   0.179  0.00  0.00     0.228 C 
ATOM      2  O   UNK d   0      27.085 -18.275   1.055  0.00  0.00    -0.273 OA
ATOM      3  N   TRP d   1      25.210 -17.118   0.493  0.00  0.00    -0.346 N 
ATOM      4  H   TRP d   1      24.833 -17.452   1.390  0.00  0.00     0.163 HD
ENDROOT
BRANCH   1   5
ATOM      5  C   UNK d   0      26.873 -17.499  -1.254  0.00  0.00     0.185 C 
BRANCH   5   6
ATOM      6  S   UNK d   0      28.484 -16.664  -1.423  0.00  0.00    -0.081 SA
BRANCH   6   7
ATOM      7  C   UNK d   0      28.391 -15.942  -2.976  0.00  0.00     0.183 C 
ATOM      8  N   UNK d   0      29.140 -16.084  -4.023  0.00  0.00    -0.152 NA
ATOM      9  N   UNK d   0      28.611 -15.201  -4.931  0.00  0.00    -0.284 N 
ATOM     10  C   UNK d   0      27.268 -14.754  -4.623  0.00  0.00     0.235 C 
ATOM     11  H   UNK d   0      28.984 -15.131  -5.871  0.00  0.00     0.185 HD
ATOM     12  N   UNK d   0      27.317 -15.029  -3.189  0.00  0.00    -0.342 N 
ATOM     13  H   UNK d   0      26.760 -14.677  -2.433  0.00  0.00     0.164 HD
BRANCH  10  14
ATOM     14  C   UNK d   0      26.967 -13.317  -4.989  0.00  0.00    -0.015 A 
ATOM     15  C   UNK d   0      26.258 -12.479  -4.098  0.00  0.00     0.011 A 
ATOM     16  C   UNK d   0      25.892 -11.169  -4.456  0.00  0.00     0.007 A 
ATOM     17  C   UNK d   0      26.311 -10.637  -5.677  0.00  0.00    -0.059 A 
ATOM     18  C   UNK d   0      27.116 -11.427  -6.504  0.00  0.00     0.007 A 
ATOM     19  C   UNK d   0      27.422 -12.745  -6.179  0.00  0.00     0.011 A 
BRANCH  17  20
ATOM     20  C   UNK d   0      25.942  -9.248  -6.137  0.00  0.00     0.034 C 
ATOM     21  C   UNK d   0      24.591  -8.825  -5.563  0.00  0.00     0.010 C 
ENDBRANCH  17  20
ENDBRANCH  10  14
ENDBRANCH   6   7
ENDBRANCH   5   6
ENDBRANCH   1   5
BRANCH   3  22
ATOM     22  CA  TRP d   1      24.133 -16.441  -0.440  0.00  0.00     0.189 C 
BRANCH  22  23
ATOM     23  C   TRP d   1      25.062 -15.474  -1.415  0.00  0.00     0.197 C 
ATOM     24  O   TRP d   1      25.871 -14.711  -0.835  0.00  0.00    -0.646 OA
ATOM     25  OXT TRP d   1      24.770 -15.545  -2.656  0.00  0.00    -0.646 OA
ENDBRANCH  22  23
BRANCH  22  26
ATOM     26  CB  TRP d   1      23.034 -17.685  -1.058  0.00  0.00     0.073 C 
BRANCH  26  27
ATOM     27  CG  TRP d   1      21.587 -18.384  -0.344  0.00  0.00    -0.046 C 
ATOM     28  CD1 TRP d   1      21.238 -19.326  -1.304  0.00  0.00     0.112 C 
ATOM     29  NE1 TRP d   1      19.905 -19.016  -1.267  0.00  0.00    -0.282 NA
ATOM     30  CE2 TRP d   1      19.523 -19.598  -0.100  0.00  0.00     0.019 A 
ATOM     31  HE1 TRP d   1      19.515 -18.112  -1.449  0.00  0.00     0.128 HD
ATOM     32  CZ2 TRP d   1      18.363 -20.400   0.006  0.00  0.00     0.024 A 
ATOM     33  CD2 TRP d   1      20.574 -19.295   0.767  0.00  0.00    -0.011 A 
ATOM     34  CH2 TRP d   1      18.034 -21.131   1.104  0.00  0.00     0.002 A 
ATOM     35  CZ3 TRP d   1      18.935 -20.992   2.125  0.00  0.00     0.001 A 
ATOM     36  CE3 TRP d   1      20.179 -20.057   2.033  0.00  0.00     0.013 A 
ENDBRANCH  26  27
ENDBRANCH  22  26
ENDBRANCH   3  22
TORSDOF 9
ENDMDL
MODEL 9
REMARK VINA RESULT:   -30.024      4.667      8.082
REMARK INTER + INTRA:         -35.023
REMARK INTER:                 -32.708
REMARK INTRA:                  -2.314
REMARK CONF_INDEPENDENT:        2.685
REMARK UNBOUND:                -2.314
REMARK  9 active torsions:
REMARK  status: ('A' for Active; 'I' for Inactive)
REMARK    1  A    between atoms: C_2  and  C_3 
REMARK    2  A    between atoms: C_7  and  C_6 
REMARK    3  A    between atoms: C_10  and  S_11 
REMARK    4  A    between atoms: S_11  and  C_12 
REMARK    5  A    between atoms: C_12  and  C_13 
REMARK       I    between atoms: C_13  and  N_15 
REMARK    6  A    between atoms: CA_16  and  N_15 
REMARK    7  A    between atoms: CA_16  and  C_27 
REMARK    8  A    between atoms: CA_16  and  CB_17 
REMARK    9  A    between atoms: CB_17  and  CG_18 
ROOT
ATOM      1  C   UNK d   0      26.822 -17.107  -0.128  0.00  0.00     0.228 C 
ATOM      2  O   UNK d   0      27.780 -17.898   0.051  0.00  0.00    -0.273 OA
ATOM      3  N   TRP d   1      25.695 -17.523  -0.774  0.00  0.00    -0.346 N 
ATOM      4  H   TRP d   1      25.828 -18.405  -1.287  0.00  0.00     0.163 HD
ENDROOT
BRANCH   1   5
ATOM      5  C   UNK d   0      26.811 -15.675   0.367  0.00  0.00     0.185 C 
BRANCH   5   6
ATOM      6  S   UNK d   0      27.675 -14.501  -0.725  0.00  0.00    -0.081 SA
BRANCH   6   7
ATOM      7  C   UNK d   0      29.009 -15.412  -1.304  0.00  0.00     0.183 C 
ATOM      8  N   UNK d   0      30.248 -15.432  -0.929  0.00  0.00    -0.152 NA
ATOM      9  N   UNK d   0      30.845 -16.302  -1.807  0.00  0.00    -0.284 N 
ATOM     10  C   UNK d   0      29.925 -17.162  -2.522  0.00  0.00     0.235 C 
ATOM     11  H   UNK d   0      31.826 -16.542  -1.719  0.00  0.00     0.185 HD
ATOM     12  N   UNK d   0      28.744 -16.313  -2.377  0.00  0.00    -0.342 N 
ATOM     13  H   UNK d   0      27.886 -16.288  -2.894  0.00  0.00     0.164 HD
BRANCH  10  14
ATOM     14  C   UNK d   0      30.313 -17.479  -3.948  0.00  0.00    -0.015 A 
ATOM     15  C   UNK d   0      30.016 -16.575  -4.995  0.00  0.00     0.011 A 
ATOM     16  C   UNK d   0      30.289 -16.892  -6.338  0.00  0.00     0.007 A 
ATOM     17  C   UNK d   0      30.953 -18.078  -6.654  0.00  0.00    -0.059 A 
ATOM     18  C   UNK d   0      31.354 -18.914  -5.607  0.00  0.00     0.007 A 
ATOM     19  C   UNK d   0      31.025 -18.633  -4.284  0.00  0.00     0.011 A 
BRANCH  17  20
ATOM     20  C   UNK d   0      31.263 -18.493  -8.071  0.00  0.00     0.034 C 
ATOM     21  C   UNK d   0      31.379 -20.013  -8.180  0.00  0.00     0.010 C 
ENDBRANCH  17  20
ENDBRANCH  10  14
ENDBRANCH   6   7
ENDBRANCH   5   6
ENDBRANCH   1   5
BRANCH   3  22
ATOM     22  CA  TRP d   1      24.428 -16.701  -1.233  0.00  0.00     0.189 C 
BRANCH  22  23
ATOM     23  C   TRP d   1      25.064 -15.671  -2.365  0.00  0.00     0.197 C 
ATOM     24  O   TRP d   1      24.347 -14.695  -2.696  0.00  0.00    -0.646 OA
ATOM     25  OXT TRP d   1      26.181 -16.051  -2.853  0.00  0.00    -0.646 OA
ENDBRANCH  22  23
BRANCH  22  26
ATOM     26  CB  TRP d   1      23.098 -17.821  -1.567  0.00  0.00     0.073 C 
BRANCH  26  27
ATOM     27  CG  TRP d   1      21.748 -18.323  -0.557  0.00  0.00    -0.046 C 
ATOM     28  CD1 TRP d   1      21.184 -19.326  -1.334  0.00  0.00     0.112 C 
ATOM     29  NE1 TRP d   1      19.899 -18.906  -1.122  0.00  0.00    -0.282 NA
ATOM     30  CE2 TRP d   1      19.680 -19.331   0.150  0.00  0.00     0.019 A 
ATOM     31  HE1 TRP d   1      19.543 -17.996  -1.342  0.00  0.00     0.128 HD
ATOM     32  CZ2 TRP d   1      18.505 -20.020   0.530  0.00  0.00     0.024 A 
ATOM     33  CD2 TRP d   1      20.879 -19.028   0.799  0.00  0.00    -0.011 A 
ATOM     34  CH2 TRP d   1      18.318 -20.605   1.743  0.00  0.00     0.002 A 
ATOM     35  CZ3 TRP d   1      19.384 -20.437   2.586  0.00  0.00     0.001 A 
ATOM     36  CE3 TRP d   1      20.653 -19.621   2.190  0.00  0.00     0.013 A 
ENDBRANCH  26  27
ENDBRANCH  22  26
ENDBRANCH   3  22
TORSDOF 9
ENDMDL
