MODEL 1
REMARK VINA RESULT:    -9.850      0.000      0.000
REMARK INTER + INTRA:         -15.881
REMARK INTER:                 -13.131
REMARK INTRA:                  -2.750
REMARK CONF_INDEPENDENT:        3.281
REMARK UNBOUND:                -2.750
REMARK  11 active torsions:
REMARK  status: ('A' for Active; 'I' for Inactive)
REMARK    1  A    between atoms: C_2  and  C_3 
REMARK    2  A    between atoms: C_4  and  C_3 
REMARK    3  A    between atoms: N_16  and  C_4 
REMARK    4  A    between atoms: C_4  and  C_5 
REMARK    5  A    between atoms: N_9  and  C_10 
REMARK    6  A    between atoms: C_10  and  C_11 
REMARK    7  A    between atoms: C_11  and  O_13 
REMARK    8  A    between atoms: O_13  and  C_14 
REMARK    9  A    between atoms: N_16  and  C_30 
REMARK   10  A    between atoms: N_16  and  C_17 
REMARK   11  A    between atoms: C_17  and  C_18 
ROOT
ATOM      1  N   UNL d   1      27.456 -14.642  -1.105  0.00  0.00    -0.052 N 
ATOM      2  H   UNL d   1      28.422 -14.399  -0.845  0.00  0.00     0.281 HD
ENDROOT
BRANCH   1   3
ATOM      3  C   UNL d   1      27.036 -14.226  -2.419  0.00  0.00     0.189 C 
ATOM      4  C   UNL d   1      26.546 -15.367  -3.237  0.00  0.00     0.033 C 
ATOM      5  C   UNL d   1      26.057 -14.959  -4.558  0.00  0.00     0.002 C 
ATOM      6  C   UNL d   1      24.985 -13.938  -4.310  0.00  0.00     0.000 C 
ATOM      7  C   UNL d   1      25.515 -12.747  -3.520  0.00  0.00     0.002 C 
ATOM      8  C   UNL d   1      26.042 -13.156  -2.174  0.00  0.00     0.033 C 
ENDBRANCH   1   3
BRANCH   1   9
ATOM      9  C   UNL d   1      26.628 -14.056   0.164  0.00  0.00     0.276 C 
BRANCH   9  10
ATOM     10  C   UNL d   1      27.552 -13.588   1.443  0.00  0.00     0.018 C 
ATOM     11  C   UNL d   1      28.170 -14.590   2.929  0.00  0.00     0.069 C 
ATOM     12  C   UNL d   1      27.855 -14.087   4.596  0.00  0.00    -0.027 C 
ATOM     13  C   UNL d   1      28.079 -15.199   5.323  0.00  0.00     0.010 C 
ATOM     14  C   UNL d   1      27.790 -12.323   4.810  0.00  0.00     0.022 C 
ATOM     15  C   UNL d   1      28.909 -14.648   6.188  0.00  0.00     0.007 C 
ATOM     16  C   UNL d   1      28.931 -13.136   6.459  0.00  0.00    -0.060 C 
ATOM     17  C   UNL d   1      29.355 -12.739   7.785  0.00  0.00     0.048 C 
ATOM     18  C   UNL d   1      28.426 -11.965   5.838  0.00  0.00     0.031 C 
ATOM     19  N   UNL d   1      27.276 -11.131   3.429  0.00  0.00    -0.225 NA
ATOM     20  C   UNL d   1      26.882 -11.773   1.766  0.00  0.00     0.230 C 
ATOM     21  H   UNL d   1      27.944 -10.377   3.318  0.00  0.00     0.137 HD
ATOM     22  O   UNL d   1      26.811 -11.158   0.702  0.00  0.00    -0.274 OA
ENDBRANCH   9  10
ENDBRANCH   1   9
BRANCH   1  23
ATOM     23  C   UNL d   1      27.600 -16.107  -1.242  0.00  0.00     0.260 C 
BRANCH  23  24
ATOM     24  C   UNL d   1      26.892 -17.204  -0.351  0.00  0.00     0.168 C 
ATOM     25  N   UNL d   1      27.378 -18.012   0.601  0.00  0.00    -0.145 NA
ATOM     26  N   UNL d   1      26.325 -18.572   1.261  0.00  0.00     0.018 NA
ATOM     27  N   UNL d   1      25.194 -18.177   0.696  0.00  0.00    -0.003 NA
ATOM     28  N   UNL d   1      25.556 -17.471  -0.408  0.00  0.00    -0.252 N 
BRANCH  28  29
ATOM     29  C   UNL d   1      24.561 -16.903  -1.319  0.00  0.00     0.259 C 
BRANCH  29  30
ATOM     30  C   UNL d   1      23.109 -17.226  -0.979  0.00  0.00     0.278 C 
ATOM     31  O   UNL d   1      22.331 -16.415  -0.503  0.00  0.00    -0.263 OA
BRANCH  30  32
ATOM     32  O   UNL d   1      22.676 -18.482  -1.201  0.00  0.00    -0.321 OA
BRANCH  32  33
ATOM     33  C   UNL d   1      21.731 -18.945  -0.184  0.00  0.00     0.174 C 
ATOM     34  C   UNL d   1      20.433 -19.295  -0.863  0.00  0.00     0.034 C 
ENDBRANCH  32  33
ENDBRANCH  30  32
ENDBRANCH  29  30
ENDBRANCH  28  29
ENDBRANCH  23  24
BRANCH  23  35
ATOM     35  C   UNL d   1      28.908 -15.966  -0.876  0.00  0.00     0.041 C 
BRANCH  35  36
ATOM     36  C   UNL d   1      29.777 -16.990  -2.550  0.00  0.00    -0.002 C 
ATOM     37  C   UNL d   1      29.974 -15.235  -3.720  0.00  0.00     0.005 C 
ENDBRANCH  35  36
ENDBRANCH  23  35
ENDBRANCH   1  23
TORSDOF 11
ENDMDL
MODEL 2
REMARK VINA RESULT:    -9.551      2.779      5.038
REMARK INTER + INTRA:         -15.931
REMARK INTER:                 -12.832
REMARK INTRA:                  -3.099
REMARK CONF_INDEPENDENT:        3.281
REMARK UNBOUND:                -3.099
REMARK  11 active torsions:
REMARK  status: ('A' for Active; 'I' for Inactive)
REMARK    1  A    between atoms: C_2  and  C_3 
REMARK    2  A    between atoms: C_4  and  C_3 
REMARK    3  A    between atoms: N_16  and  C_4 
REMARK    4  A    between atoms: C_4  and  C_5 
REMARK    5  A    between atoms: N_9  and  C_10 
REMARK    6  A    between atoms: C_10  and  C_11 
REMARK    7  A    between atoms: C_11  and  O_13 
REMARK    8  A    between atoms: O_13  and  C_14 
REMARK    9  A    between atoms: N_16  and  C_30 
REMARK   10  A    between atoms: N_16  and  C_17 
REMARK   11  A    between atoms: C_17  and  C_18 
ROOT
ATOM      1  N   UNL d   1      27.067 -14.571  -0.606  0.00  0.00    -0.052 N 
ATOM      2  H   UNL d   1      26.585 -14.009   0.109  0.00  0.00     0.281 HD
ENDROOT
BRANCH   1   3
ATOM      3  C   UNL d   1      26.640 -15.943  -0.718  0.00  0.00     0.189 C 
ATOM      4  C   UNL d   1      27.375 -16.836   0.217  0.00  0.00     0.033 C 
ATOM      5  C   UNL d   1      26.915 -18.228   0.163  0.00  0.00     0.002 C 
ATOM      6  C   UNL d   1      25.443 -18.194   0.453  0.00  0.00     0.000 C 
ATOM      7  C   UNL d   1      24.693 -17.320  -0.548  0.00  0.00     0.002 C 
ATOM      8  C   UNL d   1      25.173 -15.897  -0.520  0.00  0.00     0.033 C 
ENDBRANCH   1   3
BRANCH   1   9
ATOM      9  C   UNL d   1      28.624 -14.303  -0.224  0.00  0.00     0.276 C 
BRANCH   9  10
ATOM     10  C   UNL d   1      28.870 -13.597   1.241  0.00  0.00     0.018 C 
ATOM     11  C   UNL d   1      29.664 -14.301   2.813  0.00  0.00     0.069 C 
ATOM     12  C   UNL d   1      28.824 -14.300   4.370  0.00  0.00    -0.027 C 
ATOM     13  C   UNL d   1      29.501 -15.200   5.109  0.00  0.00     0.010 C 
ATOM     14  C   UNL d   1      27.735 -12.912   4.593  0.00  0.00     0.022 C 
ATOM     15  C   UNL d   1      29.700 -14.418   6.153  0.00  0.00     0.007 C 
ATOM     16  C   UNL d   1      28.814 -13.198   6.447  0.00  0.00    -0.060 C 
ATOM     17  C   UNL d   1      28.690 -12.831   7.843  0.00  0.00     0.048 C 
ATOM     18  C   UNL d   1      27.858 -12.418   5.747  0.00  0.00     0.031 C 
ATOM     19  N   UNL d   1      26.898 -12.011   3.152  0.00  0.00    -0.225 NA
ATOM     20  C   UNL d   1      27.247 -12.515   1.432  0.00  0.00     0.230 C 
ATOM     21  H   UNL d   1      27.029 -11.007   3.212  0.00  0.00     0.137 HD
ATOM     22  O   UNL d   1      27.034 -11.892   0.392  0.00  0.00    -0.274 OA
ENDBRANCH   9  10
ENDBRANCH   1   9
BRANCH   1  23
ATOM     23  C   UNL d   1      26.517 -13.943  -1.826  0.00  0.00     0.260 C 
BRANCH  23  24
ATOM     24  C   UNL d   1      26.110 -14.687  -3.159  0.00  0.00     0.168 C 
ATOM     25  N   UNL d   1      24.931 -14.781  -3.789  0.00  0.00    -0.145 NA
ATOM     26  N   UNL d   1      25.155 -15.291  -5.034  0.00  0.00     0.018 NA
ATOM     27  N   UNL d   1      26.442 -15.575  -5.166  0.00  0.00    -0.003 NA
ATOM     28  N   UNL d   1      26.997 -15.364  -3.944  0.00  0.00    -0.252 N 
BRANCH  28  29
ATOM     29  C   UNL d   1      28.416 -15.615  -3.689  0.00  0.00     0.259 C 
BRANCH  29  30
ATOM     30  C   UNL d   1      29.221 -16.085  -4.898  0.00  0.00     0.278 C 
ATOM     31  O   UNL d   1      30.145 -16.879  -4.826  0.00  0.00    -0.263 OA
BRANCH  30  32
ATOM     32  O   UNL d   1      28.901 -15.575  -6.103  0.00  0.00    -0.321 OA
BRANCH  32  33
ATOM     33  C   UNL d   1      29.510 -14.267  -6.346  0.00  0.00     0.174 C 
ATOM     34  C   UNL d   1      28.797 -13.616  -7.501  0.00  0.00     0.034 C 
ENDBRANCH  32  33
ENDBRANCH  30  32
ENDBRANCH  29  30
ENDBRANCH  28  29
ENDBRANCH  23  24
BRANCH  23  35
ATOM     35  C   UNL d   1      27.714 -13.306  -1.981  0.00  0.00     0.041 C 
BRANCH  35  36
ATOM     36  C   UNL d   1      26.939 -11.404  -2.605  0.00  0.00    -0.002 C 
ATOM     37  C   UNL d   1      26.783 -11.960  -4.643  0.00  0.00     0.005 C 
ENDBRANCH  35  36
ENDBRANCH  23  35
ENDBRANCH   1  23
TORSDOF 11
ENDMDL
MODEL 3
REMARK VINA RESULT:    -9.435      2.902      5.170
REMARK INTER + INTRA:         -15.548
REMARK INTER:                 -12.716
REMARK INTRA:                  -2.832
REMARK CONF_INDEPENDENT:        3.281
REMARK UNBOUND:                -2.832
REMARK  11 active torsions:
REMARK  status: ('A' for Active; 'I' for Inactive)
REMARK    1  A    between atoms: C_2  and  C_3 
REMARK    2  A    between atoms: C_4  and  C_3 
REMARK    3  A    between atoms: N_16  and  C_4 
REMARK    4  A    between atoms: C_4  and  C_5 
REMARK    5  A    between atoms: N_9  and  C_10 
REMARK    6  A    between atoms: C_10  and  C_11 
REMARK    7  A    between atoms: C_11  and  O_13 
REMARK    8  A    between atoms: O_13  and  C_14 
REMARK    9  A    between atoms: N_16  and  C_30 
REMARK   10  A    between atoms: N_16  and  C_17 
REMARK   11  A    between atoms: C_17  and  C_18 
ROOT
ATOM      1  N   UNL d   1      26.431 -14.667  -0.974  0.00  0.00    -0.052 N 
ATOM      2  H   UNL d   1      25.845 -14.069  -0.376  0.00  0.00     0.281 HD
ENDROOT
BRANCH   1   3
ATOM      3  C   UNL d   1      26.063 -16.060  -1.019  0.00  0.00     0.189 C 
ATOM      4  C   UNL d   1      26.492 -16.791   0.203  0.00  0.00     0.033 C 
ATOM      5  C   UNL d   1      26.076 -18.197   0.207  0.00  0.00     0.002 C 
ATOM      6  C   UNL d   1      24.584 -18.193   0.045  0.00  0.00     0.000 C 
ATOM      7  C   UNL d   1      24.161 -17.490  -1.241  0.00  0.00     0.002 C 
ATOM      8  C   UNL d   1      24.603 -16.056  -1.268  0.00  0.00     0.033 C 
ENDBRANCH   1   3
BRANCH   1   9
ATOM      9  C   UNL d   1      27.918 -14.305  -0.428  0.00  0.00     0.276 C 
BRANCH   9  10
ATOM     10  C   UNL d   1      28.190 -14.679   1.151  0.00  0.00     0.018 C 
ATOM     11  C   UNL d   1      27.413 -13.960   2.724  0.00  0.00     0.069 C 
ATOM     12  C   UNL d   1      28.395 -13.282   4.031  0.00  0.00    -0.027 C 
ATOM     13  C   UNL d   1      27.526 -12.543   4.745  0.00  0.00     0.010 C 
ATOM     14  C   UNL d   1      29.972 -14.080   4.226  0.00  0.00     0.022 C 
ATOM     15  C   UNL d   1      27.811 -13.070   5.921  0.00  0.00     0.007 C 
ATOM     16  C   UNL d   1      29.148 -13.773   6.203  0.00  0.00    -0.060 C 
ATOM     17  C   UNL d   1      29.608 -13.725   7.576  0.00  0.00     0.048 C 
ATOM     18  C   UNL d   1      30.226 -14.294   5.442  0.00  0.00     0.031 C 
ATOM     19  N   UNL d   1      30.886 -14.930   2.801  0.00  0.00    -0.225 NA
ATOM     20  C   UNL d   1      30.122 -15.015   1.145  0.00  0.00     0.230 C 
ATOM     21  H   UNL d   1      31.183 -15.867   3.052  0.00  0.00     0.137 HD
ATOM     22  O   UNL d   1      30.417 -15.747   0.200  0.00  0.00    -0.274 OA
ENDBRANCH   9  10
ENDBRANCH   1   9
BRANCH   1  23
ATOM     23  C   UNL d   1      26.021 -14.164  -2.302  0.00  0.00     0.260 C 
BRANCH  23  24
ATOM     24  C   UNL d   1      26.265 -14.881  -3.690  0.00  0.00     0.168 C 
ATOM     25  N   UNL d   1      25.416 -15.200  -4.676  0.00  0.00    -0.145 NA
ATOM     26  N   UNL d   1      26.149 -15.549  -5.771  0.00  0.00     0.018 NA
ATOM     27  N   UNL d   1      27.438 -15.515  -5.465  0.00  0.00    -0.003 NA
ATOM     28  N   UNL d   1      27.496 -15.272  -4.129  0.00  0.00    -0.252 N 
BRANCH  28  29
ATOM     29  C   UNL d   1      28.771 -15.204  -3.414  0.00  0.00     0.259 C 
BRANCH  29  30
ATOM     30  C   UNL d   1      29.272 -16.531  -2.850  0.00  0.00     0.278 C 
ATOM     31  O   UNL d   1      28.793 -17.069  -1.864  0.00  0.00    -0.263 OA
BRANCH  30  32
ATOM     32  O   UNL d   1      30.312 -17.124  -3.468  0.00  0.00    -0.321 OA
BRANCH  32  33
ATOM     33  C   UNL d   1      30.638 -16.503  -4.752  0.00  0.00     0.174 C 
ATOM     34  C   UNL d   1      30.394 -17.510  -5.845  0.00  0.00     0.034 C 
ENDBRANCH  32  33
ENDBRANCH  30  32
ENDBRANCH  29  30
ENDBRANCH  28  29
ENDBRANCH  23  24
BRANCH  23  35
ATOM     35  C   UNL d   1      26.904 -13.137  -2.135  0.00  0.00     0.041 C 
BRANCH  35  36
ATOM     36  C   UNL d   1      25.859 -11.677  -3.311  0.00  0.00    -0.002 C 
ATOM     37  C   UNL d   1      27.111 -11.914  -5.002  0.00  0.00     0.005 C 
ENDBRANCH  35  36
ENDBRANCH  23  35
ENDBRANCH   1  23
TORSDOF 11
ENDMDL
MODEL 4
REMARK VINA RESULT:    -9.393      2.457      4.966
REMARK INTER + INTRA:         -15.647
REMARK INTER:                 -12.675
REMARK INTRA:                  -2.973
REMARK CONF_INDEPENDENT:        3.281
REMARK UNBOUND:                -2.973
REMARK  11 active torsions:
REMARK  status: ('A' for Active; 'I' for Inactive)
REMARK    1  A    between atoms: C_2  and  C_3 
REMARK    2  A    between atoms: C_4  and  C_3 
REMARK    3  A    between atoms: N_16  and  C_4 
REMARK    4  A    between atoms: C_4  and  C_5 
REMARK    5  A    between atoms: N_9  and  C_10 
REMARK    6  A    between atoms: C_10  and  C_11 
REMARK    7  A    between atoms: C_11  and  O_13 
REMARK    8  A    between atoms: O_13  and  C_14 
REMARK    9  A    between atoms: N_16  and  C_30 
REMARK   10  A    between atoms: N_16  and  C_17 
REMARK   11  A    between atoms: C_17  and  C_18 
ROOT
ATOM      1  N   UNL d   1      26.964 -15.532  -0.534  0.00  0.00    -0.052 N 
ATOM      2  H   UNL d   1      26.678 -15.962   0.356  0.00  0.00     0.281 HD
ENDROOT
BRANCH   1   3
ATOM      3  C   UNL d   1      28.196 -16.021  -1.100  0.00  0.00     0.189 C 
ATOM      4  C   UNL d   1      29.299 -15.031  -0.976  0.00  0.00     0.033 C 
ATOM      5  C   UNL d   1      30.579 -15.530  -1.491  0.00  0.00     0.002 C 
ATOM      6  C   UNL d   1      30.868 -16.796  -0.739  0.00  0.00     0.000 C 
ATOM      7  C   UNL d   1      29.756 -17.824  -0.922  0.00  0.00     0.002 C 
ATOM      8  C   UNL d   1      28.434 -17.315  -0.421  0.00  0.00     0.033 C 
ENDBRANCH   1   3
BRANCH   1   9
ATOM      9  C   UNL d   1      26.887 -13.952  -0.163  0.00  0.00     0.276 C 
BRANCH   9  10
ATOM     10  C   UNL d   1      27.736 -13.509   1.175  0.00  0.00     0.018 C 
ATOM     11  C   UNL d   1      28.272 -14.541   2.673  0.00  0.00     0.069 C 
ATOM     12  C   UNL d   1      27.863 -14.073   4.329  0.00  0.00    -0.027 C 
ATOM     13  C   UNL d   1      28.048 -15.199   5.044  0.00  0.00     0.010 C 
ATOM     14  C   UNL d   1      27.780 -12.314   4.575  0.00  0.00     0.022 C 
ATOM     15  C   UNL d   1      28.826 -14.665   5.966  0.00  0.00     0.007 C 
ATOM     16  C   UNL d   1      28.828 -13.159   6.269  0.00  0.00    -0.060 C 
ATOM     17  C   UNL d   1      29.176 -12.789   7.625  0.00  0.00     0.048 C 
ATOM     18  C   UNL d   1      28.355 -11.976   5.644  0.00  0.00     0.031 C 
ATOM     19  N   UNL d   1      27.340 -11.095   3.192  0.00  0.00    -0.225 NA
ATOM     20  C   UNL d   1      27.044 -11.703   1.496  0.00  0.00     0.230 C 
ATOM     21  H   UNL d   1      28.011 -10.337   3.135  0.00  0.00     0.137 HD
ATOM     22  O   UNL d   1      27.030 -11.066   0.444  0.00  0.00    -0.274 OA
ENDBRANCH   9  10
ENDBRANCH   1   9
BRANCH   1  23
ATOM     23  C   UNL d   1      25.931 -16.102  -1.425  0.00  0.00     0.260 C 
BRANCH  23  24
ATOM     24  C   UNL d   1      25.235 -15.369  -2.640  0.00  0.00     0.168 C 
ATOM     25  N   UNL d   1      24.016 -14.825  -2.757  0.00  0.00    -0.145 NA
ATOM     26  N   UNL d   1      23.994 -14.074  -3.895  0.00  0.00     0.018 NA
ATOM     27  N   UNL d   1      25.156 -14.191  -4.520  0.00  0.00    -0.003 NA
ATOM     28  N   UNL d   1      25.856 -15.131  -3.831  0.00  0.00    -0.252 N 
BRANCH  28  29
ATOM     29  C   UNL d   1      27.189 -15.562  -4.254  0.00  0.00     0.259 C 
BRANCH  29  30
ATOM     30  C   UNL d   1      27.807 -14.746  -5.386  0.00  0.00     0.278 C 
ATOM     31  O   UNL d   1      28.040 -15.200  -6.495  0.00  0.00    -0.263 OA
BRANCH  30  32
ATOM     32  O   UNL d   1      28.129 -13.463  -5.133  0.00  0.00    -0.321 OA
BRANCH  32  33
ATOM     33  C   UNL d   1      28.475 -13.230  -3.731  0.00  0.00     0.174 C 
ATOM     34  C   UNL d   1      27.421 -12.346  -3.119  0.00  0.00     0.034 C 
ENDBRANCH  32  33
ENDBRANCH  30  32
ENDBRANCH  29  30
ENDBRANCH  28  29
ENDBRANCH  23  24
BRANCH  23  35
ATOM     35  C   UNL d   1      25.092 -16.145  -0.350  0.00  0.00     0.041 C 
BRANCH  35  36
ATOM     36  C   UNL d   1      24.532 -18.211  -0.516  0.00  0.00    -0.002 C 
ATOM     37  C   UNL d   1      22.453 -17.807  -0.528  0.00  0.00     0.005 C 
ENDBRANCH  35  36
ENDBRANCH  23  35
ENDBRANCH   1  23
TORSDOF 11
ENDMDL
MODEL 5
REMARK VINA RESULT:    -9.010      2.521      4.727
REMARK INTER + INTRA:         -15.942
REMARK INTER:                 -12.292
REMARK INTRA:                  -3.651
REMARK CONF_INDEPENDENT:        3.281
REMARK UNBOUND:                -3.651
REMARK  11 active torsions:
REMARK  status: ('A' for Active; 'I' for Inactive)
REMARK    1  A    between atoms: C_2  and  C_3 
REMARK    2  A    between atoms: C_4  and  C_3 
REMARK    3  A    between atoms: N_16  and  C_4 
REMARK    4  A    between atoms: C_4  and  C_5 
REMARK    5  A    between atoms: N_9  and  C_10 
REMARK    6  A    between atoms: C_10  and  C_11 
REMARK    7  A    between atoms: C_11  and  O_13 
REMARK    8  A    between atoms: O_13  and  C_14 
REMARK    9  A    between atoms: N_16  and  C_30 
REMARK   10  A    between atoms: N_16  and  C_17 
REMARK   11  A    between atoms: C_17  and  C_18 
ROOT
ATOM      1  N   UNL d   1      27.028 -14.595  -0.825  0.00  0.00    -0.052 N 
ATOM      2  H   UNL d   1      26.535 -14.006  -0.140  0.00  0.00     0.281 HD
ENDROOT
BRANCH   1   3
ATOM      3  C   UNL d   1      26.627 -15.979  -0.866  0.00  0.00     0.189 C 
ATOM      4  C   UNL d   1      27.261 -16.777   0.216  0.00  0.00     0.033 C 
ATOM      5  C   UNL d   1      26.821 -18.176   0.231  0.00  0.00     0.002 C 
ATOM      6  C   UNL d   1      25.325 -18.143   0.355  0.00  0.00     0.000 C 
ATOM      7  C   UNL d   1      24.684 -17.370  -0.793  0.00  0.00     0.002 C 
ATOM      8  C   UNL d   1      25.146 -15.941  -0.834  0.00  0.00     0.033 C 
ENDBRANCH   1   3
BRANCH   1   9
ATOM      9  C   UNL d   1      28.579 -14.278  -0.460  0.00  0.00     0.276 C 
BRANCH   9  10
ATOM     10  C   UNL d   1      28.820 -13.579   1.010  0.00  0.00     0.018 C 
ATOM     11  C   UNL d   1      29.592 -14.297   2.587  0.00  0.00     0.069 C 
ATOM     12  C   UNL d   1      28.738 -14.291   4.136  0.00  0.00    -0.027 C 
ATOM     13  C   UNL d   1      29.397 -15.200   4.879  0.00  0.00     0.010 C 
ATOM     14  C   UNL d   1      27.662 -12.891   4.353  0.00  0.00     0.022 C 
ATOM     15  C   UNL d   1      29.596 -14.423   5.926  0.00  0.00     0.007 C 
ATOM     16  C   UNL d   1      28.720 -13.194   6.216  0.00  0.00    -0.060 C 
ATOM     17  C   UNL d   1      28.588 -12.830   7.612  0.00  0.00     0.048 C 
ATOM     18  C   UNL d   1      27.780 -12.402   5.509  0.00  0.00     0.031 C 
ATOM     19  N   UNL d   1      26.849 -11.976   2.907  0.00  0.00    -0.225 NA
ATOM     20  C   UNL d   1      27.208 -12.479   1.189  0.00  0.00     0.230 C 
ATOM     21  H   UNL d   1      26.991 -10.974   2.971  0.00  0.00     0.137 HD
ATOM     22  O   UNL d   1      27.011 -11.851   0.148  0.00  0.00    -0.274 OA
ENDBRANCH   9  10
ENDBRANCH   1   9
BRANCH   1  23
ATOM     23  C   UNL d   1      26.466 -14.040  -2.075  0.00  0.00     0.260 C 
BRANCH  23  24
ATOM     24  C   UNL d   1      26.269 -14.817  -3.437  0.00  0.00     0.168 C 
ATOM     25  N   UNL d   1      25.159 -15.123  -4.123  0.00  0.00    -0.145 NA
ATOM     26  N   UNL d   1      25.531 -15.549  -5.364  0.00  0.00     0.018 NA
ATOM     27  N   UNL d   1      26.853 -15.575  -5.441  0.00  0.00    -0.003 NA
ATOM     28  N   UNL d   1      27.304 -15.290  -4.190  0.00  0.00    -0.252 N 
BRANCH  28  29
ATOM     29  C   UNL d   1      28.733 -15.267  -3.874  0.00  0.00     0.259 C 
BRANCH  29  30
ATOM     30  C   UNL d   1      29.311 -16.591  -3.382  0.00  0.00     0.278 C 
ATOM     31  O   UNL d   1      29.807 -17.426  -4.121  0.00  0.00    -0.263 OA
BRANCH  30  32
ATOM     32  O   UNL d   1      29.248 -16.853  -2.062  0.00  0.00    -0.321 OA
BRANCH  32  33
ATOM     33  C   UNL d   1      30.445 -17.527  -1.559  0.00  0.00     0.174 C 
ATOM     34  C   UNL d   1      30.690 -17.071  -0.145  0.00  0.00     0.034 C 
ENDBRANCH  32  33
ENDBRANCH  30  32
ENDBRANCH  29  30
ENDBRANCH  28  29
ENDBRANCH  23  24
BRANCH  23  35
ATOM     35  C   UNL d   1      27.555 -13.221  -2.147  0.00  0.00     0.041 C 
BRANCH  35  36
ATOM     36  C   UNL d   1      26.551 -11.492  -2.927  0.00  0.00    -0.002 C 
ATOM     37  C   UNL d   1      27.017 -11.937  -4.944  0.00  0.00     0.005 C 
ENDBRANCH  35  36
ENDBRANCH  23  35
ENDBRANCH   1  23
TORSDOF 11
ENDMDL
MODEL 6
REMARK VINA RESULT:    -8.496      2.306      4.628
REMARK INTER + INTRA:         -15.737
REMARK INTER:                 -11.777
REMARK INTRA:                  -3.960
REMARK CONF_INDEPENDENT:        3.281
REMARK UNBOUND:                -3.960
REMARK  11 active torsions:
REMARK  status: ('A' for Active; 'I' for Inactive)
REMARK    1  A    between atoms: C_2  and  C_3 
REMARK    2  A    between atoms: C_4  and  C_3 
REMARK    3  A    between atoms: N_16  and  C_4 
REMARK    4  A    between atoms: C_4  and  C_5 
REMARK    5  A    between atoms: N_9  and  C_10 
REMARK    6  A    between atoms: C_10  and  C_11 
REMARK    7  A    between atoms: C_11  and  O_13 
REMARK    8  A    between atoms: O_13  and  C_14 
REMARK    9  A    between atoms: N_16  and  C_30 
REMARK   10  A    between atoms: N_16  and  C_17 
REMARK   11  A    between atoms: C_17  and  C_18 
ROOT
ATOM      1  N   UNL d   1      27.514 -15.369  -1.070  0.00  0.00    -0.052 N 
ATOM      2  H   UNL d   1      27.177 -14.436  -0.796  0.00  0.00     0.281 HD
ENDROOT
BRANCH   1   3
ATOM      3  C   UNL d   1      26.508 -16.396  -1.168  0.00  0.00     0.189 C 
ATOM      4  C   UNL d   1      26.606 -17.382  -0.060  0.00  0.00     0.033 C 
ATOM      5  C   UNL d   1      25.554 -18.403  -0.105  0.00  0.00     0.002 C 
ATOM      6  C   UNL d   1      24.249 -17.662  -0.089  0.00  0.00     0.000 C 
ATOM      7  C   UNL d   1      24.138 -16.695  -1.264  0.00  0.00     0.002 C 
ATOM      8  C   UNL d   1      25.225 -15.659  -1.242  0.00  0.00     0.033 C 
ENDBRANCH   1   3
BRANCH   1   9
ATOM      9  C   UNL d   1      28.714 -15.599   0.001  0.00  0.00     0.276 C 
BRANCH   9  10
ATOM     10  C   UNL d   1      28.780 -14.497   1.221  0.00  0.00     0.018 C 
ATOM     11  C   UNL d   1      29.928 -14.418   2.729  0.00  0.00     0.069 C 
ATOM     12  C   UNL d   1      29.303 -14.326   4.381  0.00  0.00    -0.027 C 
ATOM     13  C   UNL d   1      30.349 -14.682   5.149  0.00  0.00     0.010 C 
ATOM     14  C   UNL d   1      27.767 -13.439   4.514  0.00  0.00     0.022 C 
ATOM     15  C   UNL d   1      30.304 -13.639   5.957  0.00  0.00     0.007 C 
ATOM     16  C   UNL d   1      29.028 -12.808   6.156  0.00  0.00    -0.060 C 
ATOM     17  C   UNL d   1      28.889 -12.164   7.446  0.00  0.00     0.048 C 
ATOM     18  C   UNL d   1      27.779 -12.653   5.500  0.00  0.00     0.031 C 
ATOM     19  N   UNL d   1      26.511 -13.325   3.100  0.00  0.00    -0.225 NA
ATOM     20  C   UNL d   1      26.881 -14.090   1.484  0.00  0.00     0.230 C 
ATOM     21  H   UNL d   1      26.226 -12.366   2.929  0.00  0.00     0.137 HD
ATOM     22  O   UNL d   1      26.341 -13.886   0.397  0.00  0.00    -0.274 OA
ENDBRANCH   9  10
ENDBRANCH   1   9
BRANCH   1  23
ATOM     23  C   UNL d   1      27.865 -15.100  -2.481  0.00  0.00     0.260 C 
BRANCH  23  24
ATOM     24  C   UNL d   1      26.850 -14.920  -3.679  0.00  0.00     0.168 C 
ATOM     25  N   UNL d   1      26.721 -15.593  -4.831  0.00  0.00    -0.145 NA
ATOM     26  N   UNL d   1      25.531 -15.243  -5.396  0.00  0.00     0.018 NA
ATOM     27  N   UNL d   1      24.946 -14.318  -4.649  0.00  0.00    -0.003 NA
ATOM     28  N   UNL d   1      25.847 -13.996  -3.683  0.00  0.00    -0.252 N 
BRANCH  28  29
ATOM     29  C   UNL d   1      25.567 -12.966  -2.682  0.00  0.00     0.259 C 
BRANCH  29  30
ATOM     30  C   UNL d   1      26.761 -12.099  -2.289  0.00  0.00     0.278 C 
ATOM     31  O   UNL d   1      27.508 -12.363  -1.361  0.00  0.00    -0.263 OA
BRANCH  30  32
ATOM     32  O   UNL d   1      26.981 -10.975  -2.997  0.00  0.00    -0.321 OA
BRANCH  32  33
ATOM     33  C   UNL d   1      25.904 -10.678  -3.942  0.00  0.00     0.174 C 
ATOM     34  C   UNL d   1      26.347 -11.102  -5.318  0.00  0.00     0.034 C 
ENDBRANCH  32  33
ENDBRANCH  30  32
ENDBRANCH  29  30
ENDBRANCH  28  29
ENDBRANCH  23  24
BRANCH  23  35
ATOM     35  C   UNL d   1      28.442 -16.336  -2.525  0.00  0.00     0.041 C 
BRANCH  35  36
ATOM     36  C   UNL d   1      30.369 -15.719  -3.242  0.00  0.00    -0.002 C 
ATOM     37  C   UNL d   1      29.770 -15.665  -5.272  0.00  0.00     0.005 C 
ENDBRANCH  35  36
ENDBRANCH  23  35
ENDBRANCH   1  23
TORSDOF 11
ENDMDL
MODEL 7
REMARK VINA RESULT:    -8.186      4.047      7.099
REMARK INTER + INTRA:         -15.578
REMARK INTER:                 -11.467
REMARK INTRA:                  -4.111
REMARK CONF_INDEPENDENT:        3.281
REMARK UNBOUND:                -4.111
REMARK  11 active torsions:
REMARK  status: ('A' for Active; 'I' for Inactive)
REMARK    1  A    between atoms: C_2  and  C_3 
REMARK    2  A    between atoms: C_4  and  C_3 
REMARK    3  A    between atoms: N_16  and  C_4 
REMARK    4  A    between atoms: C_4  and  C_5 
REMARK    5  A    between atoms: N_9  and  C_10 
REMARK    6  A    between atoms: C_10  and  C_11 
REMARK    7  A    between atoms: C_11  and  O_13 
REMARK    8  A    between atoms: O_13  and  C_14 
REMARK    9  A    between atoms: N_16  and  C_30 
REMARK   10  A    between atoms: N_16  and  C_17 
REMARK   11  A    between atoms: C_17  and  C_18 
ROOT
ATOM      1  N   UNL d   1      28.944 -14.502  -2.210  0.00  0.00    -0.052 N 
ATOM      2  H   UNL d   1      29.349 -15.430  -2.026  0.00  0.00     0.281 HD
ENDROOT
BRANCH   1   3
ATOM      3  C   UNL d   1      29.856 -13.390  -2.110  0.00  0.00     0.189 C 
ATOM      4  C   UNL d   1      30.232 -12.854  -3.446  0.00  0.00     0.033 C 
ATOM      5  C   UNL d   1      31.112 -11.684  -3.367  0.00  0.00     0.002 C 
ATOM      6  C   UNL d   1      30.385 -10.668  -2.535  0.00  0.00     0.000 C 
ATOM      7  C   UNL d   1      30.056 -11.211  -1.149  0.00  0.00     0.002 C 
ATOM      8  C   UNL d   1      29.175 -12.425  -1.216  0.00  0.00     0.033 C 
ENDBRANCH   1   3
BRANCH   1   9
ATOM      9  C   UNL d   1      27.663 -14.509  -1.211  0.00  0.00     0.276 C 
BRANCH   9  10
ATOM     10  C   UNL d   1      26.604 -15.746  -1.445  0.00  0.00     0.018 C 
ATOM     11  C   UNL d   1      24.711 -15.725  -1.553  0.00  0.00     0.069 C 
ATOM     12  C   UNL d   1      23.700 -16.734  -0.509  0.00  0.00    -0.027 C 
ATOM     13  C   UNL d   1      22.479 -16.171  -0.590  0.00  0.00     0.010 C 
ATOM     14  C   UNL d   1      24.445 -18.291  -0.082  0.00  0.00     0.022 C 
ATOM     15  C   UNL d   1      21.825 -17.275  -0.894  0.00  0.00     0.007 C 
ATOM     16  C   UNL d   1      22.370 -18.672  -0.563  0.00  0.00    -0.060 C 
ATOM     17  C   UNL d   1      21.376 -19.701  -0.339  0.00  0.00     0.048 C 
ATOM     18  C   UNL d   1      23.615 -19.234  -0.176  0.00  0.00     0.031 C 
ATOM     19  N   UNL d   1      26.320 -18.551   0.006  0.00  0.00    -0.225 NA
ATOM     20  C   UNL d   1      27.455 -17.187  -0.422  0.00  0.00     0.230 C 
ATOM     21  H   UNL d   1      26.609 -19.369  -0.519  0.00  0.00     0.137 HD
ATOM     22  O   UNL d   1      28.654 -17.242  -0.694  0.00  0.00    -0.274 OA
ENDBRANCH   9  10
ENDBRANCH   1   9
BRANCH   1  23
ATOM     23  C   UNL d   1      28.710 -14.621  -3.665  0.00  0.00     0.260 C 
BRANCH  23  24
ATOM     24  C   UNL d   1      27.305 -14.722  -4.381  0.00  0.00     0.168 C 
ATOM     25  N   UNL d   1      26.850 -15.575  -5.309  0.00  0.00    -0.145 NA
ATOM     26  N   UNL d   1      25.498 -15.425  -5.397  0.00  0.00     0.018 NA
ATOM     27  N   UNL d   1      25.111 -14.451  -4.587  0.00  0.00    -0.003 NA
ATOM     28  N   UNL d   1      26.253 -13.903  -4.093  0.00  0.00    -0.252 N 
BRANCH  28  29
ATOM     29  C   UNL d   1      26.226 -12.758  -3.181  0.00  0.00     0.259 C 
BRANCH  29  30
ATOM     30  C   UNL d   1      26.801 -11.462  -3.748  0.00  0.00     0.278 C 
ATOM     31  O   UNL d   1      26.440 -10.352  -3.390  0.00  0.00    -0.263 OA
BRANCH  30  32
ATOM     32  O   UNL d   1      27.740 -11.558  -4.707  0.00  0.00    -0.321 OA
BRANCH  32  33
ATOM     33  C   UNL d   1      27.176 -11.556  -6.057  0.00  0.00     0.174 C 
ATOM     34  C   UNL d   1      27.903 -12.587  -6.880  0.00  0.00     0.034 C 
ENDBRANCH  32  33
ENDBRANCH  30  32
ENDBRANCH  29  30
ENDBRANCH  28  29
ENDBRANCH  23  24
BRANCH  23  35
ATOM     35  C   UNL d   1      29.310 -15.846  -3.615  0.00  0.00     0.041 C 
BRANCH  35  36
ATOM     36  C   UNL d   1      30.065 -15.868  -5.624  0.00  0.00    -0.002 C 
ATOM     37  C   UNL d   1      30.618 -17.911  -5.560  0.00  0.00     0.005 C 
ENDBRANCH  35  36
ENDBRANCH  23  35
ENDBRANCH   1  23
TORSDOF 11
ENDMDL
MODEL 8
REMARK VINA RESULT:    -8.150      3.620      6.967
REMARK INTER + INTRA:         -15.536
REMARK INTER:                 -11.432
REMARK INTRA:                  -4.104
REMARK CONF_INDEPENDENT:        3.281
REMARK UNBOUND:                -4.104
REMARK  11 active torsions:
REMARK  status: ('A' for Active; 'I' for Inactive)
REMARK    1  A    between atoms: C_2  and  C_3 
REMARK    2  A    between atoms: C_4  and  C_3 
REMARK    3  A    between atoms: N_16  and  C_4 
REMARK    4  A    between atoms: C_4  and  C_5 
REMARK    5  A    between atoms: N_9  and  C_10 
REMARK    6  A    between atoms: C_10  and  C_11 
REMARK    7  A    between atoms: C_11  and  O_13 
REMARK    8  A    between atoms: O_13  and  C_14 
REMARK    9  A    between atoms: N_16  and  C_30 
REMARK   10  A    between atoms: N_16  and  C_17 
REMARK   11  A    between atoms: C_17  and  C_18 
ROOT
ATOM      1  N   UNL d   1      29.012 -13.972  -2.623  0.00  0.00    -0.052 N 
ATOM      2  H   UNL d   1      29.936 -13.531  -2.725  0.00  0.00     0.281 HD
ENDROOT
BRANCH   1   3
ATOM      3  C   UNL d   1      28.099 -13.315  -1.721  0.00  0.00     0.189 C 
ATOM      4  C   UNL d   1      28.047 -13.983  -0.393  0.00  0.00     0.033 C 
ATOM      5  C   UNL d   1      27.171 -13.296   0.561  0.00  0.00     0.002 C 
ATOM      6  C   UNL d   1      27.678 -11.887   0.657  0.00  0.00     0.000 C 
ATOM      7  C   UNL d   1      27.672 -11.195  -0.703  0.00  0.00     0.002 C 
ATOM      8  C   UNL d   1      28.547 -11.903  -1.697  0.00  0.00     0.033 C 
ENDBRANCH   1   3
BRANCH   1   9
ATOM      9  C   UNL d   1      29.427 -15.505  -2.279  0.00  0.00     0.276 C 
BRANCH   9  10
ATOM     10  C   UNL d   1      28.164 -16.531  -2.038  0.00  0.00     0.018 C 
ATOM     11  C   UNL d   1      26.306 -16.256  -2.298  0.00  0.00     0.069 C 
ATOM     12  C   UNL d   1      25.127 -16.526  -1.007  0.00  0.00    -0.027 C 
ATOM     13  C   UNL d   1      24.028 -15.869  -1.422  0.00  0.00     0.010 C 
ATOM     14  C   UNL d   1      25.580 -17.832   0.112  0.00  0.00     0.022 C 
ATOM     15  C   UNL d   1      23.186 -16.874  -1.270  0.00  0.00     0.007 C 
ATOM     16  C   UNL d   1      23.472 -18.049  -0.323  0.00  0.00    -0.060 C 
ATOM     17  C   UNL d   1      22.308 -18.700   0.242  0.00  0.00     0.048 C 
ATOM     18  C   UNL d   1      24.594 -18.574   0.368  0.00  0.00     0.031 C 
ATOM     19  N   UNL d   1      27.378 -18.324   0.456  0.00  0.00    -0.225 NA
ATOM     20  C   UNL d   1      28.740 -17.489  -0.427  0.00  0.00     0.230 C 
ATOM     21  H   UNL d   1      27.516 -19.324   0.362  0.00  0.00     0.137 HD
ATOM     22  O   UNL d   1      29.910 -17.850  -0.550  0.00  0.00    -0.274 OA
ENDBRANCH   9  10
ENDBRANCH   1   9
BRANCH   1  23
ATOM     23  C   UNL d   1      28.448 -13.672  -3.956  0.00  0.00     0.260 C 
BRANCH  23  24
ATOM     24  C   UNL d   1      27.111 -14.260  -4.560  0.00  0.00     0.168 C 
ATOM     25  N   UNL d   1      26.900 -15.295  -5.385  0.00  0.00    -0.145 NA
ATOM     26  N   UNL d   1      25.564 -15.570  -5.387  0.00  0.00     0.018 NA
ATOM     27  N   UNL d   1      24.933 -14.686  -4.629  0.00  0.00    -0.003 NA
ATOM     28  N   UNL d   1      25.872 -13.774  -4.261  0.00  0.00    -0.252 N 
BRANCH  28  29
ATOM     29  C   UNL d   1      25.535 -12.610  -3.440  0.00  0.00     0.259 C 
BRANCH  29  30
ATOM     30  C   UNL d   1      25.918 -11.259  -4.039  0.00  0.00     0.278 C 
ATOM     31  O   UNL d   1      25.157 -10.307  -4.096  0.00  0.00    -0.263 OA
BRANCH  30  32
ATOM     32  O   UNL d   1      27.158 -11.126  -4.548  0.00  0.00    -0.321 OA
BRANCH  32  33
ATOM     33  C   UNL d   1      27.218 -10.171  -5.655  0.00  0.00     0.174 C 
ATOM     34  C   UNL d   1      26.508 -10.769  -6.841  0.00  0.00     0.034 C 
ENDBRANCH  32  33
ENDBRANCH  30  32
ENDBRANCH  29  30
ENDBRANCH  28  29
ENDBRANCH  23  24
BRANCH  23  35
ATOM     35  C   UNL d   1      29.533 -14.292  -4.504  0.00  0.00     0.041 C 
BRANCH  35  36
ATOM     36  C   UNL d   1      30.148 -12.689  -5.792  0.00  0.00    -0.002 C 
ATOM     37  C   UNL d   1      29.137 -13.454  -7.487  0.00  0.00     0.005 C 
ENDBRANCH  35  36
ENDBRANCH  23  35
ENDBRANCH   1  23
TORSDOF 11
ENDMDL
MODEL 9
REMARK VINA RESULT:    -8.141      2.798      4.962
REMARK INTER + INTRA:         -15.735
REMARK INTER:                 -11.422
REMARK INTRA:                  -4.313
REMARK CONF_INDEPENDENT:        3.281
REMARK UNBOUND:                -4.313
REMARK  11 active torsions:
REMARK  status: ('A' for Active; 'I' for Inactive)
REMARK    1  A    between atoms: C_2  and  C_3 
REMARK    2  A    between atoms: C_4  and  C_3 
REMARK    3  A    between atoms: N_16  and  C_4 
REMARK    4  A    between atoms: C_4  and  C_5 
REMARK    5  A    between atoms: N_9  and  C_10 
REMARK    6  A    between atoms: C_10  and  C_11 
REMARK    7  A    between atoms: C_11  and  O_13 
REMARK    8  A    between atoms: O_13  and  C_14 
REMARK    9  A    between atoms: N_16  and  C_30 
REMARK   10  A    between atoms: N_16  and  C_17 
REMARK   11  A    between atoms: C_17  and  C_18 
ROOT
ATOM      1  N   UNL d   1      28.237 -15.023  -1.437  0.00  0.00    -0.052 N 
ATOM      2  H   UNL d   1      27.884 -14.137  -1.049  0.00  0.00     0.281 HD
ENDROOT
BRANCH   1   3
ATOM      3  C   UNL d   1      27.350 -16.154  -1.328  0.00  0.00     0.189 C 
ATOM      4  C   UNL d   1      27.821 -17.138  -0.317  0.00  0.00     0.033 C 
ATOM      5  C   UNL d   1      26.903 -18.268  -0.146  0.00  0.00     0.002 C 
ATOM      6  C   UNL d   1      25.572 -17.676   0.218  0.00  0.00     0.000 C 
ATOM      7  C   UNL d   1      25.075 -16.712  -0.855  0.00  0.00     0.002 C 
ATOM      8  C   UNL d   1      26.020 -15.562  -1.057  0.00  0.00     0.033 C 
ENDBRANCH   1   3
BRANCH   1   9
ATOM      9  C   UNL d   1      29.684 -15.135  -0.706  0.00  0.00     0.276 C 
BRANCH   9  10
ATOM     10  C   UNL d   1      29.630 -15.221   0.936  0.00  0.00     0.018 C 
ATOM     11  C   UNL d   1      28.193 -14.879   2.126  0.00  0.00     0.069 C 
ATOM     12  C   UNL d   1      28.332 -13.719   3.455  0.00  0.00    -0.027 C 
ATOM     13  C   UNL d   1      27.056 -13.462   3.801  0.00  0.00     0.010 C 
ATOM     14  C   UNL d   1      29.967 -13.618   4.147  0.00  0.00     0.022 C 
ATOM     15  C   UNL d   1      27.199 -13.700   5.091  0.00  0.00     0.007 C 
ATOM     16  C   UNL d   1      28.563 -13.629   5.794  0.00  0.00    -0.060 C 
ATOM     17  C   UNL d   1      28.532 -13.269   7.196  0.00  0.00     0.048 C 
ATOM     18  C   UNL d   1      29.928 -13.597   5.407  0.00  0.00     0.031 C 
ATOM     19  N   UNL d   1      31.536 -13.996   3.154  0.00  0.00    -0.225 NA
ATOM     20  C   UNL d   1      31.410 -14.557   1.421  0.00  0.00     0.230 C 
ATOM     21  H   UNL d   1      32.142 -14.644   3.645  0.00  0.00     0.137 HD
ATOM     22  O   UNL d   1      32.265 -15.107   0.728  0.00  0.00    -0.274 OA
ENDBRANCH   9  10
ENDBRANCH   1   9
BRANCH   1  23
ATOM     23  C   UNL d   1      28.194 -14.694  -2.878  0.00  0.00     0.260 C 
BRANCH  23  24
ATOM     24  C   UNL d   1      26.907 -14.673  -3.794  0.00  0.00     0.168 C 
ATOM     25  N   UNL d   1      26.430 -15.576  -4.661  0.00  0.00    -0.145 NA
ATOM     26  N   UNL d   1      25.155 -15.217  -4.989  0.00  0.00     0.018 NA
ATOM     27  N   UNL d   1      24.854 -14.075  -4.390  0.00  0.00    -0.003 NA
ATOM     28  N   UNL d   1      26.001 -13.653  -3.794  0.00  0.00    -0.252 N 
BRANCH  28  29
ATOM     29  C   UNL d   1      26.067 -12.388  -3.061  0.00  0.00     0.259 C 
BRANCH  29  30
ATOM     30  C   UNL d   1      26.808 -12.448  -1.728  0.00  0.00     0.278 C 
ATOM     31  O   UNL d   1      26.280 -12.781  -0.678  0.00  0.00    -0.263 OA
BRANCH  30  32
ATOM     32  O   UNL d   1      28.106 -12.092  -1.713  0.00  0.00    -0.321 OA
BRANCH  32  33
ATOM     33  C   UNL d   1      28.416 -11.113  -0.671  0.00  0.00     0.174 C 
ATOM     34  C   UNL d   1      29.060 -11.834   0.484  0.00  0.00     0.034 C 
ENDBRANCH  32  33
ENDBRANCH  30  32
ENDBRANCH  29  30
ENDBRANCH  28  29
ENDBRANCH  23  24
BRANCH  23  35
ATOM     35  C   UNL d   1      28.927 -15.822  -3.110  0.00  0.00     0.041 C 
BRANCH  35  36
ATOM     36  C   UNL d   1      29.933 -15.142  -4.879  0.00  0.00    -0.002 C 
ATOM     37  C   UNL d   1      30.066 -17.074  -5.736  0.00  0.00     0.005 C 
ENDBRANCH  35  36
ENDBRANCH  23  35
ENDBRANCH   1  23
TORSDOF 11
ENDMDL
