MODEL 1
REMARK VINA RESULT:    -7.819      0.000      0.000
REMARK INTER + INTRA:         -11.811
REMARK INTER:                 -11.100
REMARK INTRA:                  -0.711
REMARK CONF_INDEPENDENT:        3.281
REMARK UNBOUND:                -0.711
REMARK  11 active torsions:
REMARK  status: ('A' for Active; 'I' for Inactive)
REMARK    1  A    between atoms: N_2  and  C_4 
REMARK    2  A    between atoms: C_7  and  C_8 
REMARK    3  A    between atoms: N_9  and  C_10 
REMARK    4  A    between atoms: C_10  and  C_11 
REMARK    5  A    between atoms: C_11  and  C_12 
REMARK    6  A    between atoms: C_12  and  C_13 
REMARK    7  A    between atoms: C_13  and  C_14 
REMARK    8  A    between atoms: C_14  and  C_15 
REMARK    9  A    between atoms: C_15  and  N_16 
REMARK   10  A    between atoms: C_17  and  C_18 
REMARK   11  A    between atoms: C_22  and  N_23 
ROOT
ATOM      1  C   UNL d   1      25.881 -15.707  -2.597  0.00  0.00     0.002 C 
ENDROOT
BRANCH   1   2
ATOM      2  C   UNL d   1      24.773 -16.110  -1.632  0.00  0.00     0.020 C 
BRANCH   2   3
ATOM      3  C   UNL d   1      25.054 -17.502  -1.084  0.00  0.00     0.119 C 
BRANCH   3   4
ATOM      4  N   UNL d   1      23.781 -18.227  -0.925  0.00  0.00    -0.398 N 
ATOM      5  C   UNL d   1      22.731 -17.761  -0.345  0.00  0.00     0.094 C 
ATOM      6  H   UNL d   1      23.761 -19.179  -1.295  0.00  0.00     0.158 HD
BRANCH   5   7
ATOM      7  C   UNL d   1      21.486 -18.530  -0.162  0.00  0.00    -0.021 A 
ATOM      8  C   UNL d   1      21.160 -18.950   1.136  0.00  0.00     0.015 A 
ATOM      9  C   UNL d   1      20.058 -19.790   1.341  0.00  0.00     0.037 A 
ATOM     10  C   UNL d   1      19.251 -20.137   0.252  0.00  0.00     0.102 A 
ATOM     11  C   UNL d   1      19.552 -19.700  -1.039  0.00  0.00     0.037 A 
ATOM     12  C   UNL d   1      20.669 -18.893  -1.245  0.00  0.00     0.015 A 
BRANCH  10  13
ATOM     13  N   UNL d   1      18.023 -20.894   0.463  0.00  0.00    -0.116 N 
ATOM     14  O   UNL d   1      17.835 -21.353   1.595  0.00  0.00    -0.532 OA
ATOM     15  O   UNL d   1      17.292 -21.054  -0.521  0.00  0.00    -0.532 OA
ENDBRANCH  10  13
ENDBRANCH   5   7
ENDBRANCH   3   4
ENDBRANCH   2   3
ENDBRANCH   1   2
BRANCH   1  16
ATOM     16  C   UNL d   1      25.362 -14.735  -3.646  0.00  0.00     0.002 C 
BRANCH  16  17
ATOM     17  C   UNL d   1      25.545 -13.295  -3.183  0.00  0.00     0.020 C 
BRANCH  17  18
ATOM     18  C   UNL d   1      26.924 -13.129  -2.569  0.00  0.00     0.119 C 
BRANCH  18  19
ATOM     19  N   UNL d   1      26.800 -12.455  -1.267  0.00  0.00    -0.398 N 
ATOM     20  C   UNL d   1      27.744 -12.400  -0.396  0.00  0.00     0.094 C 
ATOM     21  H   UNL d   1      25.910 -11.993  -1.049  0.00  0.00     0.158 HD
BRANCH  20  22
ATOM     22  C   UNL d   1      27.572 -11.781   0.918  0.00  0.00    -0.019 A 
ATOM     23  C   UNL d   1      27.844 -12.533   2.062  0.00  0.00     0.013 A 
ATOM     24  C   UNL d   1      27.547 -12.000   3.320  0.00  0.00     0.003 A 
ATOM     25  C   UNL d   1      27.030 -10.705   3.437  0.00  0.00     0.036 A 
ATOM     26  C   UNL d   1      26.769  -9.961   2.281  0.00  0.00     0.103 A 
ATOM     27  C   UNL d   1      27.041 -10.493   1.016  0.00  0.00     0.048 A 
BRANCH  26  28
ATOM     28  N   UNL d   1      26.150  -8.634   2.375  0.00  0.00    -0.116 N 
ATOM     29  O   UNL d   1      26.686  -7.793   3.095  0.00  0.00    -0.532 OA
ATOM     30  O   UNL d   1      25.114  -8.458   1.709  0.00  0.00    -0.532 OA
ENDBRANCH  26  28
ENDBRANCH  20  22
ENDBRANCH  18  19
ENDBRANCH  17  18
ENDBRANCH  16  17
ENDBRANCH   1  16
TORSDOF 11
ENDMDL
MODEL 2
REMARK VINA RESULT:    -7.516      2.959     10.149
REMARK INTER + INTRA:         -11.500
REMARK INTER:                 -10.797
REMARK INTRA:                  -0.703
REMARK CONF_INDEPENDENT:        3.281
REMARK UNBOUND:                -0.703
REMARK  11 active torsions:
REMARK  status: ('A' for Active; 'I' for Inactive)
REMARK    1  A    between atoms: N_2  and  C_4 
REMARK    2  A    between atoms: C_7  and  C_8 
REMARK    3  A    between atoms: N_9  and  C_10 
REMARK    4  A    between atoms: C_10  and  C_11 
REMARK    5  A    between atoms: C_11  and  C_12 
REMARK    6  A    between atoms: C_12  and  C_13 
REMARK    7  A    between atoms: C_13  and  C_14 
REMARK    8  A    between atoms: C_14  and  C_15 
REMARK    9  A    between atoms: C_15  and  N_16 
REMARK   10  A    between atoms: C_17  and  C_18 
REMARK   11  A    between atoms: C_22  and  N_23 
ROOT
ATOM      1  C   UNL d   1      25.932 -10.610  -4.755  0.00  0.00     0.002 C 
ENDROOT
BRANCH   1   2
ATOM      2  C   UNL d   1      25.243  -9.707  -5.770  0.00  0.00     0.020 C 
BRANCH   2   3
ATOM      3  C   UNL d   1      25.182  -8.285  -5.230  0.00  0.00     0.119 C 
BRANCH   3   4
ATOM      4  N   UNL d   1      25.178  -8.325  -3.757  0.00  0.00    -0.398 N 
ATOM      5  C   UNL d   1      26.137  -7.915  -3.003  0.00  0.00     0.094 C 
ATOM      6  H   UNL d   1      24.347  -8.732  -3.324  0.00  0.00     0.158 HD
BRANCH   5   7
ATOM      7  C   UNL d   1      26.121  -8.011  -1.531  0.00  0.00    -0.021 A 
ATOM      8  C   UNL d   1      26.993  -8.927  -0.924  0.00  0.00     0.015 A 
ATOM      9  C   UNL d   1      26.924  -9.146   0.457  0.00  0.00     0.037 A 
ATOM     10  C   UNL d   1      26.034  -8.389   1.226  0.00  0.00     0.102 A 
ATOM     11  C   UNL d   1      25.182  -7.455   0.634  0.00  0.00     0.037 A 
ATOM     12  C   UNL d   1      25.228  -7.264  -0.746  0.00  0.00     0.015 A 
BRANCH  10  13
ATOM     13  N   UNL d   1      26.043  -8.501   2.679  0.00  0.00    -0.116 N 
ATOM     14  O   UNL d   1      25.275  -9.329   3.182  0.00  0.00    -0.532 OA
ATOM     15  O   UNL d   1      26.785  -7.725   3.292  0.00  0.00    -0.532 OA
ENDBRANCH  10  13
ENDBRANCH   5   7
ENDBRANCH   3   4
ENDBRANCH   2   3
ENDBRANCH   1   2
BRANCH   1  16
ATOM     16  C   UNL d   1      25.757 -12.076  -5.125  0.00  0.00     0.002 C 
BRANCH  16  17
ATOM     17  C   UNL d   1      25.590 -12.931  -3.875  0.00  0.00     0.020 C 
BRANCH  17  18
ATOM     18  C   UNL d   1      26.458 -14.172  -3.989  0.00  0.00     0.119 C 
BRANCH  18  19
ATOM     19  N   UNL d   1      25.826 -15.278  -3.250  0.00  0.00    -0.398 N 
ATOM     20  C   UNL d   1      25.353 -15.166  -2.061  0.00  0.00     0.094 C 
ATOM     21  H   UNL d   1      25.753 -16.188  -3.720  0.00  0.00     0.158 HD
BRANCH  20  22
ATOM     22  C   UNL d   1      24.791 -16.298  -1.324  0.00  0.00    -0.019 A 
ATOM     23  C   UNL d   1      25.639 -17.091  -0.549  0.00  0.00     0.013 A 
ATOM     24  C   UNL d   1      25.140 -18.255   0.042  0.00  0.00     0.003 A 
ATOM     25  C   UNL d   1      23.791 -18.599  -0.098  0.00  0.00     0.036 A 
ATOM     26  C   UNL d   1      22.952 -17.791  -0.873  0.00  0.00     0.103 A 
ATOM     27  C   UNL d   1      23.445 -16.635  -1.488  0.00  0.00     0.048 A 
BRANCH  26  28
ATOM     28  N   UNL d   1      21.554 -18.175  -1.102  0.00  0.00    -0.116 N 
ATOM     29  O   UNL d   1      21.275 -19.373  -1.114  0.00  0.00    -0.532 OA
ATOM     30  O   UNL d   1      20.745 -17.245  -1.271  0.00  0.00    -0.532 OA
ENDBRANCH  26  28
ENDBRANCH  20  22
ENDBRANCH  18  19
ENDBRANCH  17  18
ENDBRANCH  16  17
ENDBRANCH   1  16
TORSDOF 11
ENDMDL
MODEL 3
REMARK VINA RESULT:    -7.363      2.568      4.178
REMARK INTER + INTRA:         -11.335
REMARK INTER:                 -10.645
REMARK INTRA:                  -0.690
REMARK CONF_INDEPENDENT:        3.281
REMARK UNBOUND:                -0.690
REMARK  11 active torsions:
REMARK  status: ('A' for Active; 'I' for Inactive)
REMARK    1  A    between atoms: N_2  and  C_4 
REMARK    2  A    between atoms: C_7  and  C_8 
REMARK    3  A    between atoms: N_9  and  C_10 
REMARK    4  A    between atoms: C_10  and  C_11 
REMARK    5  A    between atoms: C_11  and  C_12 
REMARK    6  A    between atoms: C_12  and  C_13 
REMARK    7  A    between atoms: C_13  and  C_14 
REMARK    8  A    between atoms: C_14  and  C_15 
REMARK    9  A    between atoms: C_15  and  N_16 
REMARK   10  A    between atoms: C_17  and  C_18 
REMARK   11  A    between atoms: C_22  and  N_23 
ROOT
ATOM      1  C   UNL d   1      28.521 -14.844   1.732  0.00  0.00     0.002 C 
ENDROOT
BRANCH   1   2
ATOM      2  C   UNL d   1      27.747 -14.946   0.424  0.00  0.00     0.020 C 
BRANCH   2   3
ATOM      3  C   UNL d   1      27.916 -16.339  -0.164  0.00  0.00     0.119 C 
BRANCH   3   4
ATOM      4  N   UNL d   1      26.605 -17.007  -0.214  0.00  0.00    -0.398 N 
ATOM      5  C   UNL d   1      25.518 -16.473  -0.648  0.00  0.00     0.094 C 
ATOM      6  H   UNL d   1      26.576 -17.963   0.146  0.00  0.00     0.158 HD
BRANCH   5   7
ATOM      7  C   UNL d   1      24.209 -17.155  -0.642  0.00  0.00    -0.021 A 
ATOM      8  C   UNL d   1      24.198 -18.552  -0.520  0.00  0.00     0.015 A 
ATOM      9  C   UNL d   1      22.991 -19.253  -0.637  0.00  0.00     0.037 A 
ATOM     10  C   UNL d   1      21.799 -18.539  -0.800  0.00  0.00     0.102 A 
ATOM     11  C   UNL d   1      21.798 -17.146  -0.895  0.00  0.00     0.037 A 
ATOM     12  C   UNL d   1      23.005 -16.454  -0.813  0.00  0.00     0.015 A 
BRANCH  10  13
ATOM     13  N   UNL d   1      20.520 -19.238  -0.786  0.00  0.00    -0.116 N 
ATOM     14  O   UNL d   1      20.281 -19.988  -1.739  0.00  0.00    -0.532 OA
ATOM     15  O   UNL d   1      19.760 -18.987   0.155  0.00  0.00    -0.532 OA
ENDBRANCH  10  13
ENDBRANCH   5   7
ENDBRANCH   3   4
ENDBRANCH   2   3
ENDBRANCH   1   2
BRANCH   1  16
ATOM     16  C   UNL d   1      27.759 -14.012   2.753  0.00  0.00     0.002 C 
BRANCH  16  17
ATOM     17  C   UNL d   1      28.036 -14.508   4.167  0.00  0.00     0.020 C 
BRANCH  17  18
ATOM     18  C   UNL d   1      28.144 -13.322   5.109  0.00  0.00     0.119 C 
BRANCH  18  19
ATOM     19  N   UNL d   1      28.280 -12.085   4.323  0.00  0.00    -0.398 N 
ATOM     20  C   UNL d   1      27.746 -10.964   4.654  0.00  0.00     0.094 C 
ATOM     21  H   UNL d   1      28.843 -12.122   3.466  0.00  0.00     0.158 HD
BRANCH  20  22
ATOM     22  C   UNL d   1      27.841  -9.766   3.820  0.00  0.00    -0.019 A 
ATOM     23  C   UNL d   1      29.039  -9.049   3.796  0.00  0.00     0.013 A 
ATOM     24  C   UNL d   1      29.095  -7.829   3.117  0.00  0.00     0.003 A 
ATOM     25  C   UNL d   1      27.977  -7.352   2.424  0.00  0.00     0.036 A 
ATOM     26  C   UNL d   1      26.786  -8.084   2.451  0.00  0.00     0.103 A 
ATOM     27  C   UNL d   1      26.711  -9.296   3.146  0.00  0.00     0.048 A 
BRANCH  26  28
ATOM     28  N   UNL d   1      25.578  -7.564   1.800  0.00  0.00    -0.116 N 
ATOM     29  O   UNL d   1      25.430  -6.344   1.741  0.00  0.00    -0.532 OA
ATOM     30  O   UNL d   1      24.782  -8.410   1.352  0.00  0.00    -0.532 OA
ENDBRANCH  26  28
ENDBRANCH  20  22
ENDBRANCH  18  19
ENDBRANCH  17  18
ENDBRANCH  16  17
ENDBRANCH   1  16
TORSDOF 11
ENDMDL
MODEL 4
REMARK VINA RESULT:    -7.313      1.597      2.102
REMARK INTER + INTRA:         -11.211
REMARK INTER:                 -10.594
REMARK INTRA:                  -0.617
REMARK CONF_INDEPENDENT:        3.281
REMARK UNBOUND:                -0.617
REMARK  11 active torsions:
REMARK  status: ('A' for Active; 'I' for Inactive)
REMARK    1  A    between atoms: N_2  and  C_4 
REMARK    2  A    between atoms: C_7  and  C_8 
REMARK    3  A    between atoms: N_9  and  C_10 
REMARK    4  A    between atoms: C_10  and  C_11 
REMARK    5  A    between atoms: C_11  and  C_12 
REMARK    6  A    between atoms: C_12  and  C_13 
REMARK    7  A    between atoms: C_13  and  C_14 
REMARK    8  A    between atoms: C_14  and  C_15 
REMARK    9  A    between atoms: C_15  and  N_16 
REMARK   10  A    between atoms: C_17  and  C_18 
REMARK   11  A    between atoms: C_22  and  N_23 
ROOT
ATOM      1  C   UNL d   1      26.071 -15.403  -1.774  0.00  0.00     0.002 C 
ENDROOT
BRANCH   1   2
ATOM      2  C   UNL d   1      25.016 -16.197  -1.014  0.00  0.00     0.020 C 
BRANCH   2   3
ATOM      3  C   UNL d   1      24.771 -17.525  -1.716  0.00  0.00     0.119 C 
BRANCH   3   4
ATOM      4  N   UNL d   1      23.654 -18.223  -1.056  0.00  0.00    -0.398 N 
ATOM      5  C   UNL d   1      22.407 -17.996  -1.274  0.00  0.00     0.094 C 
ATOM      6  H   UNL d   1      23.915 -18.925  -0.360  0.00  0.00     0.158 HD
BRANCH   5   7
ATOM      7  C   UNL d   1      21.312 -18.682  -0.562  0.00  0.00    -0.021 A 
ATOM      8  C   UNL d   1      21.479 -18.940   0.806  0.00  0.00     0.015 A 
ATOM      9  C   UNL d   1      20.525 -19.700   1.495  0.00  0.00     0.037 A 
ATOM     10  C   UNL d   1      19.376 -20.127   0.821  0.00  0.00     0.102 A 
ATOM     11  C   UNL d   1      19.187 -19.851  -0.534  0.00  0.00     0.037 A 
ATOM     12  C   UNL d   1      20.156 -19.124  -1.225  0.00  0.00     0.015 A 
BRANCH  10  13
ATOM     13  N   UNL d   1      18.307 -20.798   1.551  0.00  0.00    -0.116 N 
ATOM     14  O   UNL d   1      17.977 -21.922   1.154  0.00  0.00    -0.532 OA
ATOM     15  O   UNL d   1      17.787 -20.169   2.479  0.00  0.00    -0.532 OA
ENDBRANCH  10  13
ENDBRANCH   5   7
ENDBRANCH   3   4
ENDBRANCH   2   3
ENDBRANCH   1   2
BRANCH   1  16
ATOM     16  C   UNL d   1      26.858 -14.503  -0.833  0.00  0.00     0.002 C 
BRANCH  16  17
ATOM     17  C   UNL d   1      28.171 -15.162  -0.430  0.00  0.00     0.020 C 
BRANCH  17  18
ATOM     18  C   UNL d   1      28.012 -15.827   0.926  0.00  0.00     0.119 C 
BRANCH  18  19
ATOM     19  N   UNL d   1      28.144 -14.813   1.985  0.00  0.00    -0.398 N 
ATOM     20  C   UNL d   1      27.416 -13.756   2.058  0.00  0.00     0.094 C 
ATOM     21  H   UNL d   1      28.853 -14.968   2.711  0.00  0.00     0.158 HD
BRANCH  20  22
ATOM     22  C   UNL d   1      27.612 -12.731   3.083  0.00  0.00    -0.019 A 
ATOM     23  C   UNL d   1      28.126 -13.105   4.326  0.00  0.00     0.013 A 
ATOM     24  C   UNL d   1      28.183 -12.162   5.356  0.00  0.00     0.003 A 
ATOM     25  C   UNL d   1      27.777 -10.842   5.132  0.00  0.00     0.036 A 
ATOM     26  C   UNL d   1      27.271 -10.481   3.879  0.00  0.00     0.103 A 
ATOM     27  C   UNL d   1      27.188 -11.421   2.846  0.00  0.00     0.048 A 
BRANCH  26  28
ATOM     28  N   UNL d   1      26.763  -9.124   3.645  0.00  0.00    -0.116 N 
ATOM     29  O   UNL d   1      27.292  -8.193   4.252  0.00  0.00    -0.532 OA
ATOM     30  O   UNL d   1      25.821  -9.017   2.839  0.00  0.00    -0.532 OA
ENDBRANCH  26  28
ENDBRANCH  20  22
ENDBRANCH  18  19
ENDBRANCH  17  18
ENDBRANCH  16  17
ENDBRANCH   1  16
TORSDOF 11
ENDMDL
MODEL 5
REMARK VINA RESULT:    -7.271      2.877      4.826
REMARK INTER + INTRA:         -11.269
REMARK INTER:                 -10.552
REMARK INTRA:                  -0.717
REMARK CONF_INDEPENDENT:        3.281
REMARK UNBOUND:                -0.717
REMARK  11 active torsions:
REMARK  status: ('A' for Active; 'I' for Inactive)
REMARK    1  A    between atoms: N_2  and  C_4 
REMARK    2  A    between atoms: C_7  and  C_8 
REMARK    3  A    between atoms: N_9  and  C_10 
REMARK    4  A    between atoms: C_10  and  C_11 
REMARK    5  A    between atoms: C_11  and  C_12 
REMARK    6  A    between atoms: C_12  and  C_13 
REMARK    7  A    between atoms: C_13  and  C_14 
REMARK    8  A    between atoms: C_14  and  C_15 
REMARK    9  A    between atoms: C_15  and  N_16 
REMARK   10  A    between atoms: C_17  and  C_18 
REMARK   11  A    between atoms: C_22  and  N_23 
ROOT
ATOM      1  C   UNL d   1      28.137 -13.788   2.293  0.00  0.00     0.002 C 
ENDROOT
BRANCH   1   2
ATOM      2  C   UNL d   1      27.312 -13.836   1.014  0.00  0.00     0.020 C 
BRANCH   2   3
ATOM      3  C   UNL d   1      27.432 -15.214   0.380  0.00  0.00     0.119 C 
BRANCH   3   4
ATOM      4  N   UNL d   1      26.088 -15.799   0.234  0.00  0.00    -0.398 N 
ATOM      5  C   UNL d   1      25.798 -16.815  -0.501  0.00  0.00     0.094 C 
ATOM      6  H   UNL d   1      25.340 -15.334   0.751  0.00  0.00     0.158 HD
BRANCH   5   7
ATOM      7  C   UNL d   1      24.432 -17.349  -0.662  0.00  0.00    -0.021 A 
ATOM      8  C   UNL d   1      23.390 -16.432  -0.865  0.00  0.00     0.015 A 
ATOM      9  C   UNL d   1      22.063 -16.880  -0.895  0.00  0.00     0.037 A 
ATOM     10  C   UNL d   1      21.802 -18.251  -0.798  0.00  0.00     0.102 A 
ATOM     11  C   UNL d   1      22.836 -19.174  -0.624  0.00  0.00     0.037 A 
ATOM     12  C   UNL d   1      24.153 -18.721  -0.559  0.00  0.00     0.015 A 
BRANCH  10  13
ATOM     13  N   UNL d   1      20.444 -18.752  -0.965  0.00  0.00    -0.116 N 
ATOM     14  O   UNL d   1      20.316 -19.957  -1.210  0.00  0.00    -0.532 OA
ATOM     15  O   UNL d   1      19.532 -17.920  -0.894  0.00  0.00    -0.532 OA
ENDBRANCH  10  13
ENDBRANCH   5   7
ENDBRANCH   3   4
ENDBRANCH   2   3
ENDBRANCH   1   2
BRANCH   1  16
ATOM     16  C   UNL d   1      27.245 -13.577   3.508  0.00  0.00     0.002 C 
BRANCH  16  17
ATOM     17  C   UNL d   1      27.707 -14.444   4.673  0.00  0.00     0.020 C 
BRANCH  17  18
ATOM     18  C   UNL d   1      28.805 -13.725   5.438  0.00  0.00     0.119 C 
BRANCH  18  19
ATOM     19  N   UNL d   1      28.528 -12.279   5.444  0.00  0.00    -0.398 N 
ATOM     20  C   UNL d   1      29.393 -11.386   5.771  0.00  0.00     0.094 C 
ATOM     21  H   UNL d   1      27.592 -11.969   5.161  0.00  0.00     0.158 HD
BRANCH  20  22
ATOM     22  C   UNL d   1      29.073  -9.961   5.833  0.00  0.00    -0.019 A 
ATOM     23  C   UNL d   1      29.457  -9.228   6.957  0.00  0.00     0.013 A 
ATOM     24  C   UNL d   1      29.031  -7.903   7.091  0.00  0.00     0.003 A 
ATOM     25  C   UNL d   1      28.270  -7.298   6.085  0.00  0.00     0.036 A 
ATOM     26  C   UNL d   1      27.899  -8.043   4.961  0.00  0.00     0.103 A 
ATOM     27  C   UNL d   1      28.299  -9.377   4.826  0.00  0.00     0.048 A 
BRANCH  26  28
ATOM     28  N   UNL d   1      27.032  -7.456   3.932  0.00  0.00    -0.116 N 
ATOM     29  O   UNL d   1      26.925  -6.231   3.894  0.00  0.00    -0.532 OA
ATOM     30  O   UNL d   1      26.463  -8.254   3.166  0.00  0.00    -0.532 OA
ENDBRANCH  26  28
ENDBRANCH  20  22
ENDBRANCH  18  19
ENDBRANCH  17  18
ENDBRANCH  16  17
ENDBRANCH   1  16
TORSDOF 11
ENDMDL
MODEL 6
REMARK VINA RESULT:    -6.942      3.132      5.359
REMARK INTER + INTRA:         -11.650
REMARK INTER:                 -10.224
REMARK INTRA:                  -1.426
REMARK CONF_INDEPENDENT:        3.281
REMARK UNBOUND:                -1.426
REMARK  11 active torsions:
REMARK  status: ('A' for Active; 'I' for Inactive)
REMARK    1  A    between atoms: N_2  and  C_4 
REMARK    2  A    between atoms: C_7  and  C_8 
REMARK    3  A    between atoms: N_9  and  C_10 
REMARK    4  A    between atoms: C_10  and  C_11 
REMARK    5  A    between atoms: C_11  and  C_12 
REMARK    6  A    between atoms: C_12  and  C_13 
REMARK    7  A    between atoms: C_13  and  C_14 
REMARK    8  A    between atoms: C_14  and  C_15 
REMARK    9  A    between atoms: C_15  and  N_16 
REMARK   10  A    between atoms: C_17  and  C_18 
REMARK   11  A    between atoms: C_22  and  N_23 
ROOT
ATOM      1  C   UNL d   1      30.729 -14.469   2.972  0.00  0.00     0.002 C 
ENDROOT
BRANCH   1   2
ATOM      2  C   UNL d   1      29.941 -14.067   1.731  0.00  0.00     0.020 C 
BRANCH   2   3
ATOM      3  C   UNL d   1      30.112 -15.125   0.651  0.00  0.00     0.119 C 
BRANCH   3   4
ATOM      4  N   UNL d   1      28.855 -15.879   0.506  0.00  0.00    -0.398 N 
ATOM      5  C   UNL d   1      27.945 -15.639  -0.371  0.00  0.00     0.094 C 
ATOM      6  H   UNL d   1      28.707 -16.633   1.179  0.00  0.00     0.158 HD
BRANCH   5   7
ATOM      7  C   UNL d   1      26.675 -16.384  -0.461  0.00  0.00    -0.021 A 
ATOM      8  C   UNL d   1      25.644 -15.832  -1.235  0.00  0.00     0.015 A 
ATOM      9  C   UNL d   1      24.380 -16.436  -1.247  0.00  0.00     0.037 A 
ATOM     10  C   UNL d   1      24.186 -17.629  -0.542  0.00  0.00     0.102 A 
ATOM     11  C   UNL d   1      25.215 -18.200   0.209  0.00  0.00     0.037 A 
ATOM     12  C   UNL d   1      26.461 -17.578   0.246  0.00  0.00     0.015 A 
BRANCH  10  13
ATOM     13  N   UNL d   1      22.922 -18.346  -0.652  0.00  0.00    -0.116 N 
ATOM     14  O   UNL d   1      22.771 -19.067  -1.645  0.00  0.00    -0.532 OA
ATOM     15  O   UNL d   1      22.086 -18.139   0.235  0.00  0.00    -0.532 OA
ENDBRANCH  10  13
ENDBRANCH   5   7
ENDBRANCH   3   4
ENDBRANCH   2   3
ENDBRANCH   1   2
BRANCH   1  16
ATOM     16  C   UNL d   1      30.138 -13.833   4.221  0.00  0.00     0.002 C 
BRANCH  16  17
ATOM     17  C   UNL d   1      29.246 -14.825   4.959  0.00  0.00     0.020 C 
BRANCH  17  18
ATOM     18  C   UNL d   1      27.789 -14.448   4.756  0.00  0.00     0.119 C 
BRANCH  18  19
ATOM     19  N   UNL d   1      27.710 -13.250   3.904  0.00  0.00    -0.398 N 
ATOM     20  C   UNL d   1      26.980 -13.169   2.849  0.00  0.00     0.094 C 
ATOM     21  H   UNL d   1      28.263 -12.430   4.177  0.00  0.00     0.158 HD
BRANCH  20  22
ATOM     22  C   UNL d   1      26.971 -11.990   1.983  0.00  0.00    -0.019 A 
ATOM     23  C   UNL d   1      27.515 -12.086   0.701  0.00  0.00     0.013 A 
ATOM     24  C   UNL d   1      27.641 -10.934  -0.079  0.00  0.00     0.003 A 
ATOM     25  C   UNL d   1      27.180  -9.702   0.397  0.00  0.00     0.036 A 
ATOM     26  C   UNL d   1      26.631  -9.622   1.681  0.00  0.00     0.103 A 
ATOM     27  C   UNL d   1      26.520 -10.765   2.481  0.00  0.00     0.048 A 
BRANCH  26  28
ATOM     28  N   UNL d   1      26.216  -8.327   2.234  0.00  0.00    -0.116 N 
ATOM     29  O   UNL d   1      26.655  -8.000   3.336  0.00  0.00    -0.532 OA
ATOM     30  O   UNL d   1      25.441  -7.650   1.537  0.00  0.00    -0.532 OA
ENDBRANCH  26  28
ENDBRANCH  20  22
ENDBRANCH  18  19
ENDBRANCH  17  18
ENDBRANCH  16  17
ENDBRANCH   1  16
TORSDOF 11
ENDMDL
MODEL 7
REMARK VINA RESULT:    -6.833      2.150      9.312
REMARK INTER + INTRA:         -11.341
REMARK INTER:                 -10.115
REMARK INTRA:                  -1.226
REMARK CONF_INDEPENDENT:        3.281
REMARK UNBOUND:                -1.226
REMARK  11 active torsions:
REMARK  status: ('A' for Active; 'I' for Inactive)
REMARK    1  A    between atoms: N_2  and  C_4 
REMARK    2  A    between atoms: C_7  and  C_8 
REMARK    3  A    between atoms: N_9  and  C_10 
REMARK    4  A    between atoms: C_10  and  C_11 
REMARK    5  A    between atoms: C_11  and  C_12 
REMARK    6  A    between atoms: C_12  and  C_13 
REMARK    7  A    between atoms: C_13  and  C_14 
REMARK    8  A    between atoms: C_14  and  C_15 
REMARK    9  A    between atoms: C_15  and  N_16 
REMARK   10  A    between atoms: C_17  and  C_18 
REMARK   11  A    between atoms: C_22  and  N_23 
ROOT
ATOM      1  C   UNL d   1      28.720 -16.110  -2.425  0.00  0.00     0.002 C 
ENDROOT
BRANCH   1   2
ATOM      2  C   UNL d   1      29.160 -15.923  -0.979  0.00  0.00     0.020 C 
BRANCH   2   3
ATOM      3  C   UNL d   1      27.937 -15.890  -0.073  0.00  0.00     0.119 C 
BRANCH   3   4
ATOM      4  N   UNL d   1      27.563 -14.489   0.186  0.00  0.00    -0.398 N 
ATOM      5  C   UNL d   1      28.092 -13.735   1.084  0.00  0.00     0.094 C 
ATOM      6  H   UNL d   1      26.808 -14.114  -0.393  0.00  0.00     0.158 HD
BRANCH   5   7
ATOM      7  C   UNL d   1      27.662 -12.348   1.349  0.00  0.00    -0.021 A 
ATOM      8  C   UNL d   1      27.312 -12.010   2.664  0.00  0.00     0.015 A 
ATOM      9  C   UNL d   1      26.777 -10.745   2.940  0.00  0.00     0.037 A 
ATOM     10  C   UNL d   1      26.671  -9.808   1.907  0.00  0.00     0.102 A 
ATOM     11  C   UNL d   1      27.044 -10.126   0.600  0.00  0.00     0.037 A 
ATOM     12  C   UNL d   1      27.543 -11.398   0.322  0.00  0.00     0.015 A 
BRANCH  10  13
ATOM     13  N   UNL d   1      26.248  -8.444   2.198  0.00  0.00    -0.116 N 
ATOM     14  O   UNL d   1      26.657  -7.942   3.251  0.00  0.00    -0.532 OA
ATOM     15  O   UNL d   1      25.475  -7.916   1.390  0.00  0.00    -0.532 OA
ENDBRANCH  10  13
ENDBRANCH   5   7
ENDBRANCH   3   4
ENDBRANCH   2   3
ENDBRANCH   1   2
BRANCH   1  16
ATOM     16  C   UNL d   1      28.082 -14.840  -2.968  0.00  0.00     0.002 C 
BRANCH  16  17
ATOM     17  C   UNL d   1      27.425 -15.101  -4.318  0.00  0.00     0.020 C 
BRANCH  17  18
ATOM     18  C   UNL d   1      25.923 -14.917  -4.198  0.00  0.00     0.119 C 
BRANCH  18  19
ATOM     19  N   UNL d   1      25.389 -15.886  -3.227  0.00  0.00    -0.398 N 
ATOM     20  C   UNL d   1      24.689 -15.559  -2.200  0.00  0.00     0.094 C 
ATOM     21  H   UNL d   1      25.580 -16.882  -3.389  0.00  0.00     0.158 HD
BRANCH  20  22
ATOM     22  C   UNL d   1      24.227 -16.537  -1.215  0.00  0.00    -0.019 A 
ATOM     23  C   UNL d   1      25.139 -17.052  -0.292  0.00  0.00     0.013 A 
ATOM     24  C   UNL d   1      24.744 -18.089   0.557  0.00  0.00     0.003 A 
ATOM     25  C   UNL d   1      23.432 -18.574   0.522  0.00  0.00     0.036 A 
ATOM     26  C   UNL d   1      22.527 -18.043  -0.404  0.00  0.00     0.103 A 
ATOM     27  C   UNL d   1      22.917 -17.020  -1.275  0.00  0.00     0.048 A 
BRANCH  26  28
ATOM     28  N   UNL d   1      21.170 -18.591  -0.517  0.00  0.00    -0.116 N 
ATOM     29  O   UNL d   1      20.271 -17.841  -0.895  0.00  0.00    -0.532 OA
ATOM     30  O   UNL d   1      21.030 -19.790  -0.215  0.00  0.00    -0.532 OA
ENDBRANCH  26  28
ENDBRANCH  20  22
ENDBRANCH  18  19
ENDBRANCH  17  18
ENDBRANCH  16  17
ENDBRANCH   1  16
TORSDOF 11
ENDMDL
MODEL 8
REMARK VINA RESULT:    -6.768      4.538      9.265
REMARK INTER + INTRA:         -11.759
REMARK INTER:                 -10.050
REMARK INTRA:                  -1.709
REMARK CONF_INDEPENDENT:        3.281
REMARK UNBOUND:                -1.709
REMARK  11 active torsions:
REMARK  status: ('A' for Active; 'I' for Inactive)
REMARK    1  A    between atoms: N_2  and  C_4 
REMARK    2  A    between atoms: C_7  and  C_8 
REMARK    3  A    between atoms: N_9  and  C_10 
REMARK    4  A    between atoms: C_10  and  C_11 
REMARK    5  A    between atoms: C_11  and  C_12 
REMARK    6  A    between atoms: C_12  and  C_13 
REMARK    7  A    between atoms: C_13  and  C_14 
REMARK    8  A    between atoms: C_14  and  C_15 
REMARK    9  A    between atoms: C_15  and  N_16 
REMARK   10  A    between atoms: C_17  and  C_18 
REMARK   11  A    between atoms: C_22  and  N_23 
ROOT
ATOM      1  C   UNL d   1      27.185 -17.081   0.616  0.00  0.00     0.002 C 
ENDROOT
BRANCH   1   2
ATOM      2  C   UNL d   1      28.465 -16.739  -0.136  0.00  0.00     0.020 C 
BRANCH   2   3
ATOM      3  C   UNL d   1      28.179 -15.656  -1.166  0.00  0.00     0.119 C 
BRANCH   3   4
ATOM      4  N   UNL d   1      27.626 -14.472  -0.485  0.00  0.00    -0.398 N 
ATOM      5  C   UNL d   1      27.986 -13.257  -0.704  0.00  0.00     0.094 C 
ATOM      6  H   UNL d   1      26.916 -14.658   0.226  0.00  0.00     0.158 HD
BRANCH   5   7
ATOM      7  C   UNL d   1      27.444 -12.096   0.029  0.00  0.00    -0.021 A 
ATOM      8  C   UNL d   1      27.412 -10.860  -0.632  0.00  0.00     0.015 A 
ATOM      9  C   UNL d   1      27.026  -9.707   0.063  0.00  0.00     0.037 A 
ATOM     10  C   UNL d   1      26.606  -9.819   1.393  0.00  0.00     0.102 A 
ATOM     11  C   UNL d   1      26.608 -11.050   2.051  0.00  0.00     0.037 A 
ATOM     12  C   UNL d   1      27.025 -12.190   1.366  0.00  0.00     0.015 A 
BRANCH  10  13
ATOM     13  N   UNL d   1      26.071  -8.657   2.091  0.00  0.00    -0.116 N 
ATOM     14  O   UNL d   1      25.290  -7.935   1.462  0.00  0.00    -0.532 OA
ATOM     15  O   UNL d   1      26.478  -8.463   3.242  0.00  0.00    -0.532 OA
ENDBRANCH  10  13
ENDBRANCH   5   7
ENDBRANCH   3   4
ENDBRANCH   2   3
ENDBRANCH   1   2
BRANCH   1  16
ATOM     16  C   UNL d   1      26.406 -18.171  -0.104  0.00  0.00     0.002 C 
BRANCH  16  17
ATOM     17  C   UNL d   1      24.957 -18.200   0.368  0.00  0.00     0.020 C 
BRANCH  17  18
ATOM     18  C   UNL d   1      24.052 -17.680  -0.735  0.00  0.00     0.119 C 
BRANCH  18  19
ATOM     19  N   UNL d   1      24.837 -16.836  -1.652  0.00  0.00    -0.398 N 
ATOM     20  C   UNL d   1      24.483 -15.656  -2.018  0.00  0.00     0.094 C 
ATOM     21  H   UNL d   1      25.722 -17.212  -2.010  0.00  0.00     0.158 HD
BRANCH  20  22
ATOM     22  C   UNL d   1      25.247 -14.865  -2.982  0.00  0.00    -0.019 A 
ATOM     23  C   UNL d   1      24.849 -13.555  -3.252  0.00  0.00     0.013 A 
ATOM     24  C   UNL d   1      25.483 -12.841  -4.273  0.00  0.00     0.003 A 
ATOM     25  C   UNL d   1      26.541 -13.414  -4.987  0.00  0.00     0.036 A 
ATOM     26  C   UNL d   1      26.933 -14.726  -4.701  0.00  0.00     0.103 A 
ATOM     27  C   UNL d   1      26.291 -15.459  -3.696  0.00  0.00     0.048 A 
BRANCH  26  28
ATOM     28  N   UNL d   1      27.985 -15.377  -5.491  0.00  0.00    -0.116 N 
ATOM     29  O   UNL d   1      27.991 -15.199  -6.708  0.00  0.00    -0.532 OA
ATOM     30  O   UNL d   1      28.802 -16.072  -4.860  0.00  0.00    -0.532 OA
ENDBRANCH  26  28
ENDBRANCH  20  22
ENDBRANCH  18  19
ENDBRANCH  17  18
ENDBRANCH  16  17
ENDBRANCH   1  16
TORSDOF 11
ENDMDL
MODEL 9
REMARK VINA RESULT:    -6.304      4.381      6.397
REMARK INTER + INTRA:         -11.779
REMARK INTER:                  -9.585
REMARK INTRA:                  -2.195
REMARK CONF_INDEPENDENT:        3.281
REMARK UNBOUND:                -2.195
REMARK  11 active torsions:
REMARK  status: ('A' for Active; 'I' for Inactive)
REMARK    1  A    between atoms: N_2  and  C_4 
REMARK    2  A    between atoms: C_7  and  C_8 
REMARK    3  A    between atoms: N_9  and  C_10 
REMARK    4  A    between atoms: C_10  and  C_11 
REMARK    5  A    between atoms: C_11  and  C_12 
REMARK    6  A    between atoms: C_12  and  C_13 
REMARK    7  A    between atoms: C_13  and  C_14 
REMARK    8  A    between atoms: C_14  and  C_15 
REMARK    9  A    between atoms: C_15  and  N_16 
REMARK   10  A    between atoms: C_17  and  C_18 
REMARK   11  A    between atoms: C_22  and  N_23 
ROOT
ATOM      1  C   UNL d   1      30.166 -16.419  -0.156  0.00  0.00     0.002 C 
ENDROOT
BRANCH   1   2
ATOM      2  C   UNL d   1      28.842 -15.767   0.222  0.00  0.00     0.020 C 
BRANCH   2   3
ATOM      3  C   UNL d   1      28.165 -15.224  -1.028  0.00  0.00     0.119 C 
BRANCH   3   4
ATOM      4  N   UNL d   1      26.793 -15.755  -1.106  0.00  0.00    -0.398 N 
ATOM      5  C   UNL d   1      26.316 -16.686  -0.357  0.00  0.00     0.094 C 
ATOM      6  H   UNL d   1      26.198 -15.351  -1.832  0.00  0.00     0.158 HD
BRANCH   5   7
ATOM      7  C   UNL d   1      24.950 -17.228  -0.491  0.00  0.00    -0.021 A 
ATOM      8  C   UNL d   1      23.895 -16.316  -0.644  0.00  0.00     0.015 A 
ATOM      9  C   UNL d   1      22.572 -16.775  -0.647  0.00  0.00     0.037 A 
ATOM     10  C   UNL d   1      22.325 -18.150  -0.572  0.00  0.00     0.102 A 
ATOM     11  C   UNL d   1      23.371 -19.067  -0.448  0.00  0.00     0.037 A 
ATOM     12  C   UNL d   1      24.685 -18.604  -0.410  0.00  0.00     0.015 A 
BRANCH  10  13
ATOM     13  N   UNL d   1      20.966 -18.659  -0.713  0.00  0.00    -0.116 N 
ATOM     14  O   UNL d   1      20.072 -17.825  -0.896  0.00  0.00    -0.532 OA
ATOM     15  O   UNL d   1      20.813 -19.879  -0.590  0.00  0.00    -0.532 OA
ENDBRANCH  10  13
ENDBRANCH   5   7
ENDBRANCH   3   4
ENDBRANCH   2   3
ENDBRANCH   1   2
BRANCH   1  16
ATOM     16  C   UNL d   1      29.979 -17.406  -1.299  0.00  0.00     0.002 C 
BRANCH  16  17
ATOM     17  C   UNL d   1      31.324 -17.945  -1.771  0.00  0.00     0.020 C 
BRANCH  17  18
ATOM     18  C   UNL d   1      31.344 -18.003  -3.289  0.00  0.00     0.119 C 
BRANCH  18  19
ATOM     19  N   UNL d   1      30.215 -17.223  -3.822  0.00  0.00    -0.398 N 
ATOM     20  C   UNL d   1      30.349 -16.119  -4.466  0.00  0.00     0.094 C 
ATOM     21  H   UNL d   1      29.268 -17.591  -3.677  0.00  0.00     0.158 HD
BRANCH  20  22
ATOM     22  C   UNL d   1      29.207 -15.329  -4.927  0.00  0.00    -0.019 A 
ATOM     23  C   UNL d   1      29.427 -14.269  -5.808  0.00  0.00     0.013 A 
ATOM     24  C   UNL d   1      28.366 -13.422  -6.140  0.00  0.00     0.003 A 
ATOM     25  C   UNL d   1      27.083 -13.662  -5.637  0.00  0.00     0.036 A 
ATOM     26  C   UNL d   1      26.877 -14.732  -4.760  0.00  0.00     0.103 A 
ATOM     27  C   UNL d   1      27.935 -15.574  -4.402  0.00  0.00     0.048 A 
BRANCH  26  28
ATOM     28  N   UNL d   1      25.558 -14.955  -4.155  0.00  0.00    -0.116 N 
ATOM     29  O   UNL d   1      24.698 -14.088  -4.303  0.00  0.00    -0.532 OA
ATOM     30  O   UNL d   1      25.409 -16.019  -3.527  0.00  0.00    -0.532 OA
ENDBRANCH  26  28
ENDBRANCH  20  22
ENDBRANCH  18  19
ENDBRANCH  17  18
ENDBRANCH  16  17
ENDBRANCH   1  16
TORSDOF 11
ENDMDL
