MODEL 1
REMARK VINA RESULT:    -9.133      0.000      0.000
REMARK INTER + INTRA:         -14.125
REMARK INTER:                 -12.116
REMARK INTRA:                  -2.009
REMARK CONF_INDEPENDENT:        2.983
REMARK UNBOUND:                -2.009
REMARK  10 active torsions:
REMARK  status: ('A' for Active; 'I' for Inactive)
REMARK    1  A    between atoms: C_2  and  O_3 
REMARK    2  A    between atoms: O_3  and  C_4 
REMARK    3  A    between atoms: C_7  and  N_8 
REMARK       I    between atoms: N_8  and  C_9 
REMARK    4  A    between atoms: C_9  and  C_11 
REMARK    5  A    between atoms: C_11  and  C_12 
REMARK    6  A    between atoms: C_12  and  C_13 
REMARK       I    between atoms: C_13  and  N_15 
REMARK    7  A    between atoms: N_15  and  N_16 
REMARK    8  A    between atoms: N_16  and  C_17 
REMARK    9  A    between atoms: C_17  and  N_19 
REMARK       I    between atoms: N_19  and  C_20 
REMARK   10  A    between atoms: C_20  and  C_22 
ROOT
ATOM      1  C   UNL d   1      24.992 -14.219  -3.511  0.00  0.00     0.236 C 
ATOM      2  O   UNL d   1      23.795 -14.034  -3.732  0.00  0.00    -0.272 OA
ATOM      3  N   UNL d   1      25.431 -15.058  -2.495  0.00  0.00    -0.268 N 
ATOM      4  H   UNL d   1      26.419 -15.225  -2.295  0.00  0.00     0.190 HD
ENDROOT
BRANCH   3   5
ATOM      5  N   UNL d   1      24.489 -15.769  -1.637  0.00  0.00    -0.273 N 
ATOM      6  H   UNL d   1      23.590 -15.303  -1.523  0.00  0.00     0.189 HD
BRANCH   5   7
ATOM      7  C   UNL d   1      24.877 -16.983  -1.038  0.00  0.00     0.193 C 
ATOM      8  S   UNL d   1      26.512 -17.273  -0.738  0.00  0.00    -0.039 SA
BRANCH   7   9
ATOM      9  N   UNL d   1      23.822 -17.883  -0.737  0.00  0.00    -0.298 N 
ATOM     10  C   UNL d   1      22.452 -17.560  -0.607  0.00  0.00     0.257 C 
ATOM     11  O   UNL d   1      21.981 -16.423  -0.734  0.00  0.00    -0.267 OA
ATOM     12  H   UNL d   1      24.058 -18.863  -0.655  0.00  0.00     0.171 HD
BRANCH  10  13
ATOM     13  C   UNL d   1      21.427 -18.597  -0.284  0.00  0.00     0.033 A 
ATOM     14  C   UNL d   1      20.472 -18.919  -1.270  0.00  0.00     0.017 A 
ATOM     15  C   UNL d   1      19.346 -19.700  -0.970  0.00  0.00     0.009 A 
ATOM     16  C   UNL d   1      19.178 -20.235   0.312  0.00  0.00    -0.045 A 
ATOM     17  C   UNL d   1      18.046 -21.195   0.566  0.00  0.00     0.049 C 
ATOM     18  C   UNL d   1      20.115 -19.884   1.301  0.00  0.00     0.017 A 
ATOM     19 BR   UNL d   1      19.895 -20.450   3.104  0.00  0.00    -0.051 Br
ATOM     20  C   UNL d   1      21.230 -19.070   1.012  0.00  0.00     0.036 A 
ENDBRANCH  10  13
ENDBRANCH   7   9
ENDBRANCH   5   7
ENDBRANCH   3   5
BRANCH   1  21
ATOM     21  C   UNL d   1      26.093 -13.539  -4.336  0.00  0.00     0.114 C 
BRANCH  21  22
ATOM     22  C   UNL d   1      27.534 -13.967  -3.925  0.00  0.00     0.112 C 
BRANCH  22  23
ATOM     23  C   UNL d   1      28.022 -15.105  -4.817  0.00  0.00     0.222 C 
ATOM     24  N   UNL d   1      29.257 -15.687  -4.506  0.00  0.00    -0.327 N 
ATOM     25  H   UNL d   1      29.796 -15.312  -3.733  0.00  0.00     0.169 HD
ATOM     26  O   UNL d   1      27.306 -15.436  -5.762  0.00  0.00    -0.273 OA
BRANCH  24  27
ATOM     27  C   UNL d   1      29.882 -16.722  -5.282  0.00  0.00     0.034 A 
ATOM     28  C   UNL d   1      30.349 -16.485  -6.584  0.00  0.00     0.032 A 
ATOM     29  C   UNL d   1      30.856 -17.550  -7.370  0.00  0.00     0.039 A 
ATOM     30  C   UNL d   1      30.956 -18.846  -6.853  0.00  0.00     0.068 A 
ATOM     31  C   UNL d   1      30.551 -19.065  -5.549  0.00  0.00     0.039 A 
ATOM     32  C   UNL d   1      30.030 -18.020  -4.787  0.00  0.00     0.032 A 
BRANCH  30  33
ATOM     33  O   UNL d   1      31.545 -19.803  -7.637  0.00  0.00    -0.352 OA
BRANCH  33  34
ATOM     34  C   UNL d   1      32.148 -19.326  -8.847  0.00  0.00     0.171 C 
ATOM     35  C   UNL d   1      33.638 -19.144  -8.612  0.00  0.00     0.034 C 
ENDBRANCH  33  34
ENDBRANCH  30  33
ENDBRANCH  24  27
ENDBRANCH  22  23
ENDBRANCH  21  22
ENDBRANCH   1  21
TORSDOF 10
ENDMDL
MODEL 2
REMARK VINA RESULT:    -8.593      3.702      9.881
REMARK INTER + INTRA:         -13.740
REMARK INTER:                 -11.576
REMARK INTRA:                  -2.165
REMARK CONF_INDEPENDENT:        2.983
REMARK UNBOUND:                -2.165
REMARK  10 active torsions:
REMARK  status: ('A' for Active; 'I' for Inactive)
REMARK    1  A    between atoms: C_2  and  O_3 
REMARK    2  A    between atoms: O_3  and  C_4 
REMARK    3  A    between atoms: C_7  and  N_8 
REMARK       I    between atoms: N_8  and  C_9 
REMARK    4  A    between atoms: C_9  and  C_11 
REMARK    5  A    between atoms: C_11  and  C_12 
REMARK    6  A    between atoms: C_12  and  C_13 
REMARK       I    between atoms: C_13  and  N_15 
REMARK    7  A    between atoms: N_15  and  N_16 
REMARK    8  A    between atoms: N_16  and  C_17 
REMARK    9  A    between atoms: C_17  and  N_19 
REMARK       I    between atoms: N_19  and  C_20 
REMARK   10  A    between atoms: C_20  and  C_22 
ROOT
ATOM      1  C   UNL d   1      26.432 -12.692  -2.622  0.00  0.00     0.236 C 
ATOM      2  O   UNL d   1      26.930 -11.626  -2.981  0.00  0.00    -0.272 OA
ATOM      3  N   UNL d   1      25.589 -13.426  -3.446  0.00  0.00    -0.268 N 
ATOM      4  H   UNL d   1      25.166 -14.313  -3.168  0.00  0.00     0.190 HD
ENDROOT
BRANCH   3   5
ATOM      5  N   UNL d   1      25.253 -12.966  -4.790  0.00  0.00    -0.273 N 
ATOM      6  H   UNL d   1      24.307 -13.195  -5.089  0.00  0.00     0.189 HD
BRANCH   5   7
ATOM      7  C   UNL d   1      26.222 -12.286  -5.553  0.00  0.00     0.193 C 
ATOM      8  S   UNL d   1      25.858 -10.765  -6.189  0.00  0.00    -0.039 SA
BRANCH   7   9
ATOM      9  N   UNL d   1      27.454 -12.967  -5.728  0.00  0.00    -0.298 N 
ATOM     10  C   UNL d   1      27.642 -14.368  -5.763  0.00  0.00     0.257 C 
ATOM     11  O   UNL d   1      26.740 -15.204  -5.636  0.00  0.00    -0.267 OA
ATOM     12  H   UNL d   1      28.277 -12.403  -5.894  0.00  0.00     0.171 HD
BRANCH  10  13
ATOM     13  C   UNL d   1      28.995 -14.974  -5.951  0.00  0.00     0.033 A 
ATOM     14  C   UNL d   1      29.931 -14.280  -6.746  0.00  0.00     0.017 A 
ATOM     15  C   UNL d   1      31.126 -14.883  -7.162  0.00  0.00     0.009 A 
ATOM     16  C   UNL d   1      31.448 -16.178  -6.741  0.00  0.00    -0.045 A 
ATOM     17  C   UNL d   1      32.804 -16.743  -7.073  0.00  0.00     0.049 C 
ATOM     18  C   UNL d   1      30.498 -16.879  -5.976  0.00  0.00     0.017 A 
ATOM     19 BR   UNL d   1      30.788 -18.691  -5.473  0.00  0.00    -0.051 Br
ATOM     20  C   UNL d   1      29.279 -16.288  -5.585  0.00  0.00     0.036 A 
ENDBRANCH  10  13
ENDBRANCH   7   9
ENDBRANCH   5   7
ENDBRANCH   3   5
BRANCH   1  21
ATOM     21  C   UNL d   1      26.701 -13.297  -1.237  0.00  0.00     0.114 C 
BRANCH  21  22
ATOM     22  C   UNL d   1      27.234 -14.761  -1.289  0.00  0.00     0.112 C 
BRANCH  22  23
ATOM     23  C   UNL d   1      26.101 -15.724  -1.634  0.00  0.00     0.222 C 
ATOM     24  N   UNL d   1      25.180 -16.027  -0.624  0.00  0.00    -0.327 N 
ATOM     25  H   UNL d   1      25.318 -15.632   0.300  0.00  0.00     0.169 HD
ATOM     26  O   UNL d   1      26.072 -16.185  -2.775  0.00  0.00    -0.273 OA
BRANCH  24  27
ATOM     27  C   UNL d   1      24.098 -16.959  -0.769  0.00  0.00     0.034 A 
ATOM     28  C   UNL d   1      22.765 -16.530  -0.870  0.00  0.00     0.032 A 
ATOM     29  C   UNL d   1      21.707 -17.473  -0.895  0.00  0.00     0.039 A 
ATOM     30  C   UNL d   1      21.963 -18.848  -0.877  0.00  0.00     0.068 A 
ATOM     31  C   UNL d   1      23.280 -19.270  -0.839  0.00  0.00     0.039 A 
ATOM     32  C   UNL d   1      24.317 -18.339  -0.790  0.00  0.00     0.032 A 
BRANCH  30  33
ATOM     33  O   UNL d   1      20.897 -19.699  -1.002  0.00  0.00    -0.352 OA
BRANCH  33  34
ATOM     34  C   UNL d   1      19.756 -19.384  -0.192  0.00  0.00     0.171 C 
ATOM     35  C   UNL d   1      19.957 -19.985   1.189  0.00  0.00     0.034 C 
ENDBRANCH  33  34
ENDBRANCH  30  33
ENDBRANCH  24  27
ENDBRANCH  22  23
ENDBRANCH  21  22
ENDBRANCH   1  21
TORSDOF 10
ENDMDL
MODEL 3
REMARK VINA RESULT:    -8.468      7.026     10.330
REMARK INTER + INTRA:         -14.102
REMARK INTER:                 -11.451
REMARK INTRA:                  -2.651
REMARK CONF_INDEPENDENT:        2.983
REMARK UNBOUND:                -2.651
REMARK  10 active torsions:
REMARK  status: ('A' for Active; 'I' for Inactive)
REMARK    1  A    between atoms: C_2  and  O_3 
REMARK    2  A    between atoms: O_3  and  C_4 
REMARK    3  A    between atoms: C_7  and  N_8 
REMARK       I    between atoms: N_8  and  C_9 
REMARK    4  A    between atoms: C_9  and  C_11 
REMARK    5  A    between atoms: C_11  and  C_12 
REMARK    6  A    between atoms: C_12  and  C_13 
REMARK       I    between atoms: C_13  and  N_15 
REMARK    7  A    between atoms: N_15  and  N_16 
REMARK    8  A    between atoms: N_16  and  C_17 
REMARK    9  A    between atoms: C_17  and  N_19 
REMARK       I    between atoms: N_19  and  C_20 
REMARK   10  A    between atoms: C_20  and  C_22 
ROOT
ATOM      1  C   UNL d   1      27.857 -14.564   0.235  0.00  0.00     0.236 C 
ATOM      2  O   UNL d   1      26.777 -14.220   0.716  0.00  0.00    -0.272 OA
ATOM      3  N   UNL d   1      29.015 -14.631   0.998  0.00  0.00    -0.268 N 
ATOM      4  H   UNL d   1      29.920 -14.913   0.619  0.00  0.00     0.190 HD
ENDROOT
BRANCH   3   5
ATOM      5  N   UNL d   1      29.008 -14.298   2.419  0.00  0.00    -0.273 N 
ATOM      6  H   UNL d   1      28.105 -13.989   2.774  0.00  0.00     0.189 HD
BRANCH   5   7
ATOM      7  C   UNL d   1      30.200 -14.405   3.162  0.00  0.00     0.193 C 
ATOM      8  S   UNL d   1      31.641 -14.775   2.366  0.00  0.00    -0.039 SA
BRANCH   7   9
ATOM      9  N   UNL d   1      30.073 -14.190   4.559  0.00  0.00    -0.298 N 
ATOM     10  C   UNL d   1      28.878 -13.917   5.263  0.00  0.00     0.257 C 
ATOM     11  O   UNL d   1      27.760 -13.819   4.742  0.00  0.00    -0.267 OA
ATOM     12  H   UNL d   1      30.908 -14.289   5.121  0.00  0.00     0.171 HD
BRANCH  10  13
ATOM     13  C   UNL d   1      28.868 -13.704   6.741  0.00  0.00     0.033 A 
ATOM     14  C   UNL d   1      28.164 -12.592   7.249  0.00  0.00     0.017 A 
ATOM     15  C   UNL d   1      28.298 -12.191   8.586  0.00  0.00     0.009 A 
ATOM     16  C   UNL d   1      29.092 -12.930   9.470  0.00  0.00    -0.045 A 
ATOM     17  C   UNL d   1      29.096 -12.570  10.932  0.00  0.00     0.049 C 
ATOM     18  C   UNL d   1      29.818 -14.018   8.952  0.00  0.00     0.017 A 
ATOM     19 BR   UNL d   1      31.029 -14.998  10.045  0.00  0.00    -0.051 Br
ATOM     20  C   UNL d   1      29.713 -14.404   7.600  0.00  0.00     0.036 A 
ENDBRANCH  10  13
ENDBRANCH   7   9
ENDBRANCH   5   7
ENDBRANCH   3   5
BRANCH   1  21
ATOM     21  C   UNL d   1      28.011 -14.944  -1.244  0.00  0.00     0.114 C 
BRANCH  21  22
ATOM     22  C   UNL d   1      26.877 -14.382  -2.154  0.00  0.00     0.112 C 
BRANCH  22  23
ATOM     23  C   UNL d   1      25.703 -15.356  -2.197  0.00  0.00     0.222 C 
ATOM     24  N   UNL d   1      25.226 -15.849  -0.977  0.00  0.00    -0.327 N 
ATOM     25  H   UNL d   1      25.695 -15.576  -0.120  0.00  0.00     0.169 HD
ATOM     26  O   UNL d   1      25.254 -15.659  -3.303  0.00  0.00    -0.273 OA
BRANCH  24  27
ATOM     27  C   UNL d   1      24.173 -16.818  -0.851  0.00  0.00     0.034 A 
ATOM     28  C   UNL d   1      24.447 -18.187  -0.711  0.00  0.00     0.032 A 
ATOM     29  C   UNL d   1      23.391 -19.134  -0.706  0.00  0.00     0.039 A 
ATOM     30  C   UNL d   1      22.056 -18.727  -0.783  0.00  0.00     0.068 A 
ATOM     31  C   UNL d   1      21.785 -17.373  -0.860  0.00  0.00     0.039 A 
ATOM     32  C   UNL d   1      22.827 -16.446  -0.890  0.00  0.00     0.032 A 
BRANCH  30  33
ATOM     33  O   UNL d   1      21.087 -19.690  -0.674  0.00  0.00    -0.352 OA
BRANCH  33  34
ATOM     34  C   UNL d   1      20.196 -19.548   0.440  0.00  0.00     0.171 C 
ATOM     35  C   UNL d   1      19.196 -20.692   0.415  0.00  0.00     0.034 C 
ENDBRANCH  33  34
ENDBRANCH  30  33
ENDBRANCH  24  27
ENDBRANCH  22  23
ENDBRANCH  21  22
ENDBRANCH   1  21
TORSDOF 10
ENDMDL
MODEL 4
REMARK VINA RESULT:    -8.272      5.651      8.867
REMARK INTER + INTRA:         -13.953
REMARK INTER:                 -11.255
REMARK INTRA:                  -2.698
REMARK CONF_INDEPENDENT:        2.983
REMARK UNBOUND:                -2.698
REMARK  10 active torsions:
REMARK  status: ('A' for Active; 'I' for Inactive)
REMARK    1  A    between atoms: C_2  and  O_3 
REMARK    2  A    between atoms: O_3  and  C_4 
REMARK    3  A    between atoms: C_7  and  N_8 
REMARK       I    between atoms: N_8  and  C_9 
REMARK    4  A    between atoms: C_9  and  C_11 
REMARK    5  A    between atoms: C_11  and  C_12 
REMARK    6  A    between atoms: C_12  and  C_13 
REMARK       I    between atoms: C_13  and  N_15 
REMARK    7  A    between atoms: N_15  and  N_16 
REMARK    8  A    between atoms: N_16  and  C_17 
REMARK    9  A    between atoms: C_17  and  N_19 
REMARK       I    between atoms: N_19  and  C_20 
REMARK   10  A    between atoms: C_20  and  C_22 
ROOT
ATOM      1  C   UNL d   1      26.713  -9.833  -2.179  0.00  0.00     0.236 C 
ATOM      2  O   UNL d   1      26.849 -10.948  -1.676  0.00  0.00    -0.272 OA
ATOM      3  N   UNL d   1      26.063  -9.647  -3.393  0.00  0.00    -0.268 N 
ATOM      4  H   UNL d   1      25.940  -8.732  -3.827  0.00  0.00     0.190 HD
ENDROOT
BRANCH   3   5
ATOM      5  N   UNL d   1      25.502 -10.773  -4.133  0.00  0.00    -0.273 N 
ATOM      6  H   UNL d   1      24.531 -10.651  -4.412  0.00  0.00     0.189 HD
BRANCH   5   7
ATOM      7  C   UNL d   1      26.301 -11.906  -4.383  0.00  0.00     0.193 C 
ATOM      8  S   UNL d   1      27.172 -12.004  -5.826  0.00  0.00    -0.039 SA
BRANCH   7   9
ATOM      9  N   UNL d   1      26.295 -12.897  -3.367  0.00  0.00    -0.298 N 
ATOM     10  C   UNL d   1      25.551 -14.099  -3.370  0.00  0.00     0.257 C 
ATOM     11  O   UNL d   1      24.785 -14.452  -4.275  0.00  0.00    -0.267 OA
ATOM     12  H   UNL d   1      26.919 -12.760  -2.583  0.00  0.00     0.171 HD
BRANCH  10  13
ATOM     13  C   UNL d   1      25.623 -15.070  -2.237  0.00  0.00     0.033 A 
ATOM     14  C   UNL d   1      26.879 -15.299  -1.636  0.00  0.00     0.017 A 
ATOM     15  C   UNL d   1      27.076 -16.355  -0.734  0.00  0.00     0.009 A 
ATOM     16  C   UNL d   1      26.004 -17.174  -0.360  0.00  0.00    -0.045 A 
ATOM     17  C   UNL d   1      26.207 -18.200   0.724  0.00  0.00     0.049 C 
ATOM     18  C   UNL d   1      24.763 -16.963  -0.987  0.00  0.00     0.017 A 
ATOM     19 BR   UNL d   1      23.285 -18.112  -0.645  0.00  0.00    -0.051 Br
ATOM     20  C   UNL d   1      24.569 -15.924  -1.920  0.00  0.00     0.036 A 
ENDBRANCH  10  13
ENDBRANCH   7   9
ENDBRANCH   5   7
ENDBRANCH   3   5
BRANCH   1  21
ATOM     21  C   UNL d   1      27.250  -8.561  -1.510  0.00  0.00     0.114 C 
BRANCH  21  22
ATOM     22  C   UNL d   1      26.282  -7.961  -0.445  0.00  0.00     0.112 C 
BRANCH  22  23
ATOM     23  C   UNL d   1      26.281  -8.824   0.813  0.00  0.00     0.222 C 
ATOM     24  N   UNL d   1      27.125  -9.940   0.833  0.00  0.00    -0.327 N 
ATOM     25  H   UNL d   1      27.672 -10.156   0.006  0.00  0.00     0.169 HD
ATOM     26  O   UNL d   1      25.530  -8.493   1.731  0.00  0.00    -0.273 OA
BRANCH  24  27
ATOM     27  C   UNL d   1      27.194 -10.884   1.913  0.00  0.00     0.034 A 
ATOM     28  C   UNL d   1      27.608 -10.502   3.198  0.00  0.00     0.032 A 
ATOM     29  C   UNL d   1      27.779 -11.474   4.216  0.00  0.00     0.039 A 
ATOM     30  C   UNL d   1      27.488 -12.822   3.985  0.00  0.00     0.068 A 
ATOM     31  C   UNL d   1      27.022 -13.187   2.735  0.00  0.00     0.039 A 
ATOM     32  C   UNL d   1      26.878 -12.232   1.729  0.00  0.00     0.032 A 
BRANCH  30  33
ATOM     33  O   UNL d   1      27.584 -13.687   5.042  0.00  0.00    -0.352 OA
BRANCH  33  34
ATOM     34  C   UNL d   1      28.430 -14.826   4.835  0.00  0.00     0.171 C 
ATOM     35  C   UNL d   1      29.829 -14.340   4.495  0.00  0.00     0.034 C 
ENDBRANCH  33  34
ENDBRANCH  30  33
ENDBRANCH  24  27
ENDBRANCH  22  23
ENDBRANCH  21  22
ENDBRANCH   1  21
TORSDOF 10
ENDMDL
MODEL 5
REMARK VINA RESULT:    -8.262      3.835      5.121
REMARK INTER + INTRA:         -13.916
REMARK INTER:                 -11.245
REMARK INTRA:                  -2.671
REMARK CONF_INDEPENDENT:        2.983
REMARK UNBOUND:                -2.671
REMARK  10 active torsions:
REMARK  status: ('A' for Active; 'I' for Inactive)
REMARK    1  A    between atoms: C_2  and  O_3 
REMARK    2  A    between atoms: O_3  and  C_4 
REMARK    3  A    between atoms: C_7  and  N_8 
REMARK       I    between atoms: N_8  and  C_9 
REMARK    4  A    between atoms: C_9  and  C_11 
REMARK    5  A    between atoms: C_11  and  C_12 
REMARK    6  A    between atoms: C_12  and  C_13 
REMARK       I    between atoms: C_13  and  N_15 
REMARK    7  A    between atoms: N_15  and  N_16 
REMARK    8  A    between atoms: N_16  and  C_17 
REMARK    9  A    between atoms: C_17  and  N_19 
REMARK       I    between atoms: N_19  and  C_20 
REMARK   10  A    between atoms: C_20  and  C_22 
ROOT
ATOM      1  C   UNL d   1      27.333 -12.029  -6.849  0.00  0.00     0.236 C 
ATOM      2  O   UNL d   1      27.076 -10.871  -7.178  0.00  0.00    -0.272 OA
ATOM      3  N   UNL d   1      26.643 -12.676  -5.832  0.00  0.00    -0.268 N 
ATOM      4  H   UNL d   1      26.840 -13.636  -5.545  0.00  0.00     0.190 HD
ENDROOT
BRANCH   3   5
ATOM      5  N   UNL d   1      25.569 -12.010  -5.101  0.00  0.00    -0.273 N 
ATOM      6  H   UNL d   1      24.734 -11.828  -5.654  0.00  0.00     0.189 HD
BRANCH   5   7
ATOM      7  C   UNL d   1      25.762 -11.664  -3.749  0.00  0.00     0.193 C 
ATOM      8  S   UNL d   1      25.905 -10.037  -3.323  0.00  0.00    -0.039 SA
BRANCH   7   9
ATOM      9  N   UNL d   1      25.826 -12.753  -2.841  0.00  0.00    -0.298 N 
ATOM     10  C   UNL d   1      25.603 -14.115  -3.144  0.00  0.00     0.257 C 
ATOM     11  O   UNL d   1      25.308 -14.549  -4.265  0.00  0.00    -0.267 OA
ATOM     12  H   UNL d   1      26.108 -12.548  -1.892  0.00  0.00     0.171 HD
BRANCH  10  13
ATOM     13  C   UNL d   1      25.696 -15.178  -2.099  0.00  0.00     0.033 A 
ATOM     14  C   UNL d   1      26.977 -15.548  -1.639  0.00  0.00     0.017 A 
ATOM     15  C   UNL d   1      27.167 -16.686  -0.842  0.00  0.00     0.009 A 
ATOM     16  C   UNL d   1      26.070 -17.451  -0.429  0.00  0.00    -0.045 A 
ATOM     17  C   UNL d   1      26.284 -18.574   0.551  0.00  0.00     0.049 C 
ATOM     18  C   UNL d   1      24.799 -17.098  -0.917  0.00  0.00     0.017 A 
ATOM     19 BR   UNL d   1      23.269 -18.158  -0.523  0.00  0.00    -0.051 Br
ATOM     20  C   UNL d   1      24.608 -15.975  -1.748  0.00  0.00     0.036 A 
ENDBRANCH  10  13
ENDBRANCH   7   9
ENDBRANCH   5   7
ENDBRANCH   3   5
BRANCH   1  21
ATOM     21  C   UNL d   1      28.434 -12.850  -7.534  0.00  0.00     0.114 C 
BRANCH  21  22
ATOM     22  C   UNL d   1      29.552 -13.330  -6.558  0.00  0.00     0.112 C 
BRANCH  22  23
ATOM     23  C   UNL d   1      29.380 -14.815  -6.248  0.00  0.00     0.222 C 
ATOM     24  N   UNL d   1      30.525 -15.619  -6.283  0.00  0.00    -0.327 N 
ATOM     25  H   UNL d   1      31.411 -15.201  -6.548  0.00  0.00     0.169 HD
ATOM     26  O   UNL d   1      28.244 -15.217  -5.998  0.00  0.00    -0.273 OA
BRANCH  24  27
ATOM     27  C   UNL d   1      30.522 -17.040  -6.078  0.00  0.00     0.034 A 
ATOM     28  C   UNL d   1      30.288 -17.600  -4.812  0.00  0.00     0.032 A 
ATOM     29  C   UNL d   1      30.406 -18.999  -4.613  0.00  0.00     0.039 A 
ATOM     30  C   UNL d   1      30.701 -19.858  -5.675  0.00  0.00     0.068 A 
ATOM     31  C   UNL d   1      30.872 -19.311  -6.934  0.00  0.00     0.039 A 
ATOM     32  C   UNL d   1      30.780 -17.932  -7.122  0.00  0.00     0.032 A 
BRANCH  30  33
ATOM     33  O   UNL d   1      30.703 -21.205  -5.427  0.00  0.00    -0.352 OA
BRANCH  33  34
ATOM     34  C   UNL d   1      30.499 -21.582  -4.058  0.00  0.00     0.171 C 
ATOM     35  C   UNL d   1      30.893 -23.040  -3.890  0.00  0.00     0.034 C 
ENDBRANCH  33  34
ENDBRANCH  30  33
ENDBRANCH  24  27
ENDBRANCH  22  23
ENDBRANCH  21  22
ENDBRANCH   1  21
TORSDOF 10
ENDMDL
MODEL 6
REMARK VINA RESULT:    -8.160      4.153      9.679
REMARK INTER + INTRA:         -13.755
REMARK INTER:                 -11.143
REMARK INTRA:                  -2.612
REMARK CONF_INDEPENDENT:        2.983
REMARK UNBOUND:                -2.612
REMARK  10 active torsions:
REMARK  status: ('A' for Active; 'I' for Inactive)
REMARK    1  A    between atoms: C_2  and  O_3 
REMARK    2  A    between atoms: O_3  and  C_4 
REMARK    3  A    between atoms: C_7  and  N_8 
REMARK       I    between atoms: N_8  and  C_9 
REMARK    4  A    between atoms: C_9  and  C_11 
REMARK    5  A    between atoms: C_11  and  C_12 
REMARK    6  A    between atoms: C_12  and  C_13 
REMARK       I    between atoms: C_13  and  N_15 
REMARK    7  A    between atoms: N_15  and  N_16 
REMARK    8  A    between atoms: N_16  and  C_17 
REMARK    9  A    between atoms: C_17  and  N_19 
REMARK       I    between atoms: N_19  and  C_20 
REMARK   10  A    between atoms: C_20  and  C_22 
ROOT
ATOM      1  C   UNL d   1      29.022 -15.296  -1.884  0.00  0.00     0.236 C 
ATOM      2  O   UNL d   1      29.933 -14.564  -2.271  0.00  0.00    -0.272 OA
ATOM      3  N   UNL d   1      28.793 -16.546  -2.443  0.00  0.00    -0.268 N 
ATOM      4  H   UNL d   1      28.044 -17.168  -2.137  0.00  0.00     0.190 HD
ENDROOT
BRANCH   3   5
ATOM      5  N   UNL d   1      29.631 -17.059  -3.523  0.00  0.00    -0.273 N 
ATOM      6  H   UNL d   1      30.142 -17.909  -3.291  0.00  0.00     0.189 HD
BRANCH   5   7
ATOM      7  C   UNL d   1      29.687 -16.364  -4.747  0.00  0.00     0.193 C 
ATOM      8  S   UNL d   1      30.430 -17.089  -6.078  0.00  0.00    -0.039 SA
BRANCH   7   9
ATOM      9  N   UNL d   1      29.100 -15.072  -4.746  0.00  0.00    -0.298 N 
ATOM     10  C   UNL d   1      27.768 -14.754  -5.098  0.00  0.00     0.257 C 
ATOM     11  O   UNL d   1      26.921 -15.576  -5.469  0.00  0.00    -0.267 OA
ATOM     12  H   UNL d   1      29.669 -14.305  -4.414  0.00  0.00     0.171 HD
BRANCH  10  13
ATOM     13  C   UNL d   1      27.260 -13.350  -5.061  0.00  0.00     0.033 A 
ATOM     14  C   UNL d   1      26.267 -13.026  -4.114  0.00  0.00     0.017 A 
ATOM     15  C   UNL d   1      25.575 -11.807  -4.167  0.00  0.00     0.009 A 
ATOM     16  C   UNL d   1      25.903 -10.851  -5.135  0.00  0.00    -0.045 A 
ATOM     17  C   UNL d   1      25.254  -9.493  -5.075  0.00  0.00     0.049 C 
ATOM     18  C   UNL d   1      26.870 -11.190  -6.098  0.00  0.00     0.017 A 
ATOM     19 BR   UNL d   1      27.284 -10.010  -7.531  0.00  0.00    -0.051 Br
ATOM     20  C   UNL d   1      27.544 -12.429  -6.068  0.00  0.00     0.036 A 
ENDBRANCH  10  13
ENDBRANCH   7   9
ENDBRANCH   5   7
ENDBRANCH   3   5
BRANCH   1  21
ATOM     21  C   UNL d   1      28.066 -14.887  -0.755  0.00  0.00     0.114 C 
BRANCH  21  22
ATOM     22  C   UNL d   1      27.823 -16.013   0.295  0.00  0.00     0.112 C 
BRANCH  22  23
ATOM     23  C   UNL d   1      26.688 -16.926  -0.163  0.00  0.00     0.222 C 
ATOM     24  N   UNL d   1      25.385 -16.418  -0.102  0.00  0.00    -0.327 N 
ATOM     25  H   UNL d   1      25.238 -15.488   0.276  0.00  0.00     0.169 HD
ATOM     26  O   UNL d   1      26.985 -18.056  -0.548  0.00  0.00    -0.273 OA
BRANCH  24  27
ATOM     27  C   UNL d   1      24.207 -17.168  -0.436  0.00  0.00     0.034 A 
ATOM     28  C   UNL d   1      22.978 -16.537  -0.681  0.00  0.00     0.032 A 
ATOM     29  C   UNL d   1      21.806 -17.306  -0.893  0.00  0.00     0.039 A 
ATOM     30  C   UNL d   1      21.853 -18.704  -0.922  0.00  0.00     0.068 A 
ATOM     31  C   UNL d   1      23.077 -19.322  -0.741  0.00  0.00     0.039 A 
ATOM     32  C   UNL d   1      24.224 -18.563  -0.508  0.00  0.00     0.032 A 
BRANCH  30  33
ATOM     33  O   UNL d   1      20.701 -19.377  -1.229  0.00  0.00    -0.352 OA
BRANCH  33  34
ATOM     34  C   UNL d   1      19.660 -19.304  -0.244  0.00  0.00     0.171 C 
ATOM     35  C   UNL d   1      20.116 -20.041   1.003  0.00  0.00     0.034 C 
ENDBRANCH  33  34
ENDBRANCH  30  33
ENDBRANCH  24  27
ENDBRANCH  22  23
ENDBRANCH  21  22
ENDBRANCH   1  21
TORSDOF 10
ENDMDL
MODEL 7
REMARK VINA RESULT:    -8.156      3.695      6.316
REMARK INTER + INTRA:         -13.729
REMARK INTER:                 -11.139
REMARK INTRA:                  -2.590
REMARK CONF_INDEPENDENT:        2.983
REMARK UNBOUND:                -2.590
REMARK  10 active torsions:
REMARK  status: ('A' for Active; 'I' for Inactive)
REMARK    1  A    between atoms: C_2  and  O_3 
REMARK    2  A    between atoms: O_3  and  C_4 
REMARK    3  A    between atoms: C_7  and  N_8 
REMARK       I    between atoms: N_8  and  C_9 
REMARK    4  A    between atoms: C_9  and  C_11 
REMARK    5  A    between atoms: C_11  and  C_12 
REMARK    6  A    between atoms: C_12  and  C_13 
REMARK       I    between atoms: C_13  and  N_15 
REMARK    7  A    between atoms: N_15  and  N_16 
REMARK    8  A    between atoms: N_16  and  C_17 
REMARK    9  A    between atoms: C_17  and  N_19 
REMARK       I    between atoms: N_19  and  C_20 
REMARK   10  A    between atoms: C_20  and  C_22 
ROOT
ATOM      1  C   UNL d   1      25.549 -15.112  -3.607  0.00  0.00     0.236 C 
ATOM      2  O   UNL d   1      24.514 -14.449  -3.665  0.00  0.00    -0.272 OA
ATOM      3  N   UNL d   1      25.675 -16.208  -2.763  0.00  0.00    -0.268 N 
ATOM      4  H   UNL d   1      26.524 -16.772  -2.700  0.00  0.00     0.190 HD
ENDROOT
BRANCH   3   5
ATOM      5  N   UNL d   1      24.577 -16.632  -1.900  0.00  0.00    -0.273 N 
ATOM      6  H   UNL d   1      23.696 -16.152  -2.075  0.00  0.00     0.189 HD
BRANCH   5   7
ATOM      7  C   UNL d   1      24.807 -17.614  -0.917  0.00  0.00     0.193 C 
ATOM      8  S   UNL d   1      26.346 -17.764  -0.240  0.00  0.00    -0.039 SA
BRANCH   7   9
ATOM      9  N   UNL d   1      23.687 -18.418  -0.580  0.00  0.00    -0.298 N 
ATOM     10  C   UNL d   1      22.328 -18.037  -0.646  0.00  0.00     0.257 C 
ATOM     11  O   UNL d   1      21.924 -16.925  -1.007  0.00  0.00    -0.267 OA
ATOM     12  H   UNL d   1      23.869 -19.376  -0.312  0.00  0.00     0.171 HD
BRANCH  10  13
ATOM     13  C   UNL d   1      21.230 -18.973  -0.260  0.00  0.00     0.033 A 
ATOM     14  C   UNL d   1      20.265 -19.304  -1.234  0.00  0.00     0.017 A 
ATOM     15  C   UNL d   1      19.084 -19.980  -0.894  0.00  0.00     0.009 A 
ATOM     16  C   UNL d   1      18.866 -20.401   0.423  0.00  0.00    -0.045 A 
ATOM     17  C   UNL d   1      17.666 -21.259   0.731  0.00  0.00     0.049 C 
ATOM     18  C   UNL d   1      19.814 -20.040   1.397  0.00  0.00     0.017 A 
ATOM     19 BR   UNL d   1      19.536 -20.448   3.235  0.00  0.00    -0.051 Br
ATOM     20  C   UNL d   1      20.986 -19.330   1.065  0.00  0.00     0.036 A 
ENDBRANCH  10  13
ENDBRANCH   7   9
ENDBRANCH   5   7
ENDBRANCH   3   5
BRANCH   1  21
ATOM     21  C   UNL d   1      26.781 -14.784  -4.460  0.00  0.00     0.114 C 
BRANCH  21  22
ATOM     22  C   UNL d   1      27.572 -13.537  -3.960  0.00  0.00     0.112 C 
BRANCH  22  23
ATOM     23  C   UNL d   1      27.873 -13.666  -2.469  0.00  0.00     0.222 C 
ATOM     24  N   UNL d   1      26.864 -13.298  -1.571  0.00  0.00    -0.327 N 
ATOM     25  H   UNL d   1      25.993 -12.927  -1.936  0.00  0.00     0.169 HD
ATOM     26  O   UNL d   1      28.988 -14.075  -2.146  0.00  0.00    -0.273 OA
BRANCH  24  27
ATOM     27  C   UNL d   1      27.011 -13.302  -0.143  0.00  0.00     0.034 A 
ATOM     28  C   UNL d   1      27.068 -12.108   0.594  0.00  0.00     0.032 A 
ATOM     29  C   UNL d   1      27.331 -12.137   1.987  0.00  0.00     0.039 A 
ATOM     30  C   UNL d   1      27.481 -13.347   2.670  0.00  0.00     0.068 A 
ATOM     31  C   UNL d   1      27.363 -14.524   1.953  0.00  0.00     0.039 A 
ATOM     32  C   UNL d   1      27.130 -14.492   0.578  0.00  0.00     0.032 A 
BRANCH  30  33
ATOM     33  O   UNL d   1      27.635 -13.299   4.030  0.00  0.00    -0.352 OA
BRANCH  33  34
ATOM     34  C   UNL d   1      28.932 -13.663   4.520  0.00  0.00     0.171 C 
ATOM     35  C   UNL d   1      28.784 -14.838   5.471  0.00  0.00     0.034 C 
ENDBRANCH  33  34
ENDBRANCH  30  33
ENDBRANCH  24  27
ENDBRANCH  22  23
ENDBRANCH  21  22
ENDBRANCH   1  21
TORSDOF 10
ENDMDL
MODEL 8
REMARK VINA RESULT:    -7.831      3.295      9.253
REMARK INTER + INTRA:         -13.934
REMARK INTER:                 -10.814
REMARK INTRA:                  -3.120
REMARK CONF_INDEPENDENT:        2.983
REMARK UNBOUND:                -3.120
REMARK  10 active torsions:
REMARK  status: ('A' for Active; 'I' for Inactive)
REMARK    1  A    between atoms: C_2  and  O_3 
REMARK    2  A    between atoms: O_3  and  C_4 
REMARK    3  A    between atoms: C_7  and  N_8 
REMARK       I    between atoms: N_8  and  C_9 
REMARK    4  A    between atoms: C_9  and  C_11 
REMARK    5  A    between atoms: C_11  and  C_12 
REMARK    6  A    between atoms: C_12  and  C_13 
REMARK       I    between atoms: C_13  and  N_15 
REMARK    7  A    between atoms: N_15  and  N_16 
REMARK    8  A    between atoms: N_16  and  C_17 
REMARK    9  A    between atoms: C_17  and  N_19 
REMARK       I    between atoms: N_19  and  C_20 
REMARK   10  A    between atoms: C_20  and  C_22 
ROOT
ATOM      1  C   UNL d   1      30.110 -16.455  -1.124  0.00  0.00     0.236 C 
ATOM      2  O   UNL d   1      30.543 -15.710  -2.002  0.00  0.00    -0.272 OA
ATOM      3  N   UNL d   1      30.299 -17.830  -1.167  0.00  0.00    -0.268 N 
ATOM      4  H   UNL d   1      29.948 -18.466  -0.449  0.00  0.00     0.190 HD
ENDROOT
BRANCH   3   5
ATOM      5  N   UNL d   1      31.028 -18.463  -2.262  0.00  0.00    -0.273 N 
ATOM      6  H   UNL d   1      31.871 -18.957  -1.976  0.00  0.00     0.189 HD
BRANCH   5   7
ATOM      7  C   UNL d   1      30.548 -18.335  -3.580  0.00  0.00     0.193 C 
ATOM      8  S   UNL d   1      31.067 -19.424  -4.760  0.00  0.00    -0.039 SA
BRANCH   7   9
ATOM      9  N   UNL d   1      29.647 -17.261  -3.802  0.00  0.00    -0.298 N 
ATOM     10  C   UNL d   1      29.405 -16.607  -5.032  0.00  0.00     0.257 C 
ATOM     11  O   UNL d   1      29.965 -16.885  -6.100  0.00  0.00    -0.267 OA
ATOM     12  H   UNL d   1      29.081 -16.961  -3.020  0.00  0.00     0.171 HD
BRANCH  10  13
ATOM     13  C   UNL d   1      28.430 -15.481  -5.145  0.00  0.00     0.033 A 
ATOM     14  C   UNL d   1      28.806 -14.349  -5.897  0.00  0.00     0.017 A 
ATOM     15  C   UNL d   1      28.056 -13.165  -5.860  0.00  0.00     0.009 A 
ATOM     16  C   UNL d   1      26.872 -13.102  -5.117  0.00  0.00    -0.045 A 
ATOM     17  C   UNL d   1      26.005 -11.874  -5.217  0.00  0.00     0.049 C 
ATOM     18  C   UNL d   1      26.518 -14.222  -4.342  0.00  0.00     0.017 A 
ATOM     19 BR   UNL d   1      25.001 -14.181  -3.195  0.00  0.00    -0.051 Br
ATOM     20  C   UNL d   1      27.289 -15.402  -4.350  0.00  0.00     0.036 A 
ENDBRANCH  10  13
ENDBRANCH   7   9
ENDBRANCH   5   7
ENDBRANCH   3   5
BRANCH   1  21
ATOM     21  C   UNL d   1      29.329 -15.928   0.087  0.00  0.00     0.114 C 
BRANCH  21  22
ATOM     22  C   UNL d   1      28.042 -15.135  -0.298  0.00  0.00     0.112 C 
BRANCH  22  23
ATOM     23  C   UNL d   1      26.949 -16.096  -0.759  0.00  0.00     0.222 C 
ATOM     24  N   UNL d   1      25.693 -15.984  -0.152  0.00  0.00    -0.327 N 
ATOM     25  H   UNL d   1      25.564 -15.305   0.590  0.00  0.00     0.169 HD
ATOM     26  O   UNL d   1      27.241 -16.917  -1.628  0.00  0.00    -0.273 OA
BRANCH  24  27
ATOM     27  C   UNL d   1      24.581 -16.850  -0.428  0.00  0.00     0.034 A 
ATOM     28  C   UNL d   1      23.311 -16.341  -0.741  0.00  0.00     0.032 A 
ATOM     29  C   UNL d   1      22.205 -17.214  -0.895  0.00  0.00     0.039 A 
ATOM     30  C   UNL d   1      22.359 -18.600  -0.795  0.00  0.00     0.068 A 
ATOM     31  C   UNL d   1      23.622 -19.104  -0.547  0.00  0.00     0.039 A 
ATOM     32  C   UNL d   1      24.704 -18.241  -0.372  0.00  0.00     0.032 A 
BRANCH  30  33
ATOM     33  O   UNL d   1      21.266 -19.385  -1.052  0.00  0.00    -0.352 OA
BRANCH  33  34
ATOM     34  C   UNL d   1      20.209 -19.309  -0.085  0.00  0.00     0.171 C 
ATOM     35  C   UNL d   1      19.739 -20.717   0.236  0.00  0.00     0.034 C 
ENDBRANCH  33  34
ENDBRANCH  30  33
ENDBRANCH  24  27
ENDBRANCH  22  23
ENDBRANCH  21  22
ENDBRANCH   1  21
TORSDOF 10
ENDMDL
MODEL 9
REMARK VINA RESULT:    -7.387      3.586      9.376
REMARK INTER + INTRA:         -13.803
REMARK INTER:                 -10.370
REMARK INTRA:                  -3.433
REMARK CONF_INDEPENDENT:        2.983
REMARK UNBOUND:                -3.433
REMARK  10 active torsions:
REMARK  status: ('A' for Active; 'I' for Inactive)
REMARK    1  A    between atoms: C_2  and  O_3 
REMARK    2  A    between atoms: O_3  and  C_4 
REMARK    3  A    between atoms: C_7  and  N_8 
REMARK       I    between atoms: N_8  and  C_9 
REMARK    4  A    between atoms: C_9  and  C_11 
REMARK    5  A    between atoms: C_11  and  C_12 
REMARK    6  A    between atoms: C_12  and  C_13 
REMARK       I    between atoms: C_13  and  N_15 
REMARK    7  A    between atoms: N_15  and  N_16 
REMARK    8  A    between atoms: N_16  and  C_17 
REMARK    9  A    between atoms: C_17  and  N_19 
REMARK       I    between atoms: N_19  and  C_20 
REMARK   10  A    between atoms: C_20  and  C_22 
ROOT
ATOM      1  C   UNL d   1      31.198 -18.835  -1.491  0.00  0.00     0.236 C 
ATOM      2  O   UNL d   1      31.481 -20.024  -1.347  0.00  0.00    -0.272 OA
ATOM      3  N   UNL d   1      30.905 -18.294  -2.737  0.00  0.00    -0.268 N 
ATOM      4  H   UNL d   1      30.668 -17.311  -2.879  0.00  0.00     0.190 HD
ENDROOT
BRANCH   3   5
ATOM      5  N   UNL d   1      30.914 -19.117  -3.943  0.00  0.00    -0.273 N 
ATOM      6  H   UNL d   1      31.262 -20.063  -3.803  0.00  0.00     0.189 HD
BRANCH   5   7
ATOM      7  C   UNL d   1      30.480 -18.563  -5.163  0.00  0.00     0.193 C 
ATOM      8  S   UNL d   1      30.921 -19.306  -6.613  0.00  0.00    -0.039 SA
BRANCH   7   9
ATOM      9  N   UNL d   1      29.690 -17.389  -5.057  0.00  0.00    -0.298 N 
ATOM     10  C   UNL d   1      29.651 -16.316  -5.976  0.00  0.00     0.257 C 
ATOM     11  O   UNL d   1      30.320 -16.253  -7.015  0.00  0.00    -0.267 OA
ATOM     12  H   UNL d   1      29.052 -17.329  -4.274  0.00  0.00     0.171 HD
BRANCH  10  13
ATOM     13  C   UNL d   1      28.778 -15.124  -5.756  0.00  0.00     0.033 A 
ATOM     14  C   UNL d   1      29.300 -13.850  -6.065  0.00  0.00     0.017 A 
ATOM     15  C   UNL d   1      28.643 -12.676  -5.672  0.00  0.00     0.009 A 
ATOM     16  C   UNL d   1      27.410 -12.743  -5.014  0.00  0.00    -0.045 A 
ATOM     17  C   UNL d   1      26.652 -11.470  -4.741  0.00  0.00     0.049 C 
ATOM     18  C   UNL d   1      26.909 -14.014  -4.678  0.00  0.00     0.017 A 
ATOM     19 BR   UNL d   1      25.311 -14.201  -3.663  0.00  0.00    -0.051 Br
ATOM     20  C   UNL d   1      27.585 -15.197  -5.040  0.00  0.00     0.036 A 
ENDBRANCH  10  13
ENDBRANCH   7   9
ENDBRANCH   5   7
ENDBRANCH   3   5
BRANCH   1  21
ATOM     21  C   UNL d   1      31.148 -17.855  -0.312  0.00  0.00     0.114 C 
BRANCH  21  22
ATOM     22  C   UNL d   1      30.528 -16.472  -0.676  0.00  0.00     0.112 C 
BRANCH  22  23
ATOM     23  C   UNL d   1      29.052 -16.632  -1.030  0.00  0.00     0.222 C 
ATOM     24  N   UNL d   1      28.143 -16.757   0.027  0.00  0.00    -0.327 N 
ATOM     25  H   UNL d   1      28.496 -16.776   0.978  0.00  0.00     0.169 HD
ATOM     26  O   UNL d   1      28.751 -16.652  -2.223  0.00  0.00    -0.273 OA
BRANCH  24  27
ATOM     27  C   UNL d   1      26.734 -16.977  -0.139  0.00  0.00     0.034 A 
ATOM     28  C   UNL d   1      26.130 -18.189   0.230  0.00  0.00     0.032 A 
ATOM     29  C   UNL d   1      24.760 -18.423  -0.051  0.00  0.00     0.039 A 
ATOM     30  C   UNL d   1      23.966 -17.440  -0.648  0.00  0.00     0.068 A 
ATOM     31  C   UNL d   1      24.548 -16.224  -0.956  0.00  0.00     0.039 A 
ATOM     32  C   UNL d   1      25.902 -16.005  -0.701  0.00  0.00     0.032 A 
BRANCH  30  33
ATOM     33  O   UNL d   1      22.630 -17.701  -0.801  0.00  0.00    -0.352 OA
BRANCH  33  34
ATOM     34  C   UNL d   1      22.228 -19.049  -0.521  0.00  0.00     0.171 C 
ATOM     35  C   UNL d   1      20.737 -19.179  -0.784  0.00  0.00     0.034 C 
ENDBRANCH  33  34
ENDBRANCH  30  33
ENDBRANCH  24  27
ENDBRANCH  22  23
ENDBRANCH  21  22
ENDBRANCH   1  21
TORSDOF 10
ENDMDL
