MODEL 1
REMARK VINA RESULT:    -9.282      0.000      0.000
REMARK INTER + INTRA:         -12.476
REMARK INTER:                 -10.774
REMARK INTRA:                  -1.703
REMARK CONF_INDEPENDENT:        1.492
REMARK UNBOUND:                -1.703
REMARK  5 active torsions:
REMARK  status: ('A' for Active; 'I' for Inactive)
REMARK    1  A    between atoms: C_2  and  N_3 
REMARK    2  A    between atoms: C_2  and  C_16 
REMARK    3  A    between atoms: C_4  and  N_3 
REMARK    4  A    between atoms: C_4  and  C_6 
REMARK       I    between atoms: C_16  and  N_18 
REMARK    5  A    between atoms: N_18  and  C_19 
ROOT
ATOM      1  C   UNL d   1      28.126 -13.510   5.386  0.00  0.00     0.055 A 
ATOM      2  C   UNL d   1      28.595 -14.447   6.317  0.00  0.00     0.031 A 
ATOM      3  C   UNL d   1      29.211 -14.009   7.494  0.00  0.00     0.002 A 
ATOM      4  C   UNL d   1      29.303 -12.647   7.777  0.00  0.00     0.002 A 
ATOM      5  C   UNL d   1      28.813 -11.712   6.868  0.00  0.00     0.025 A 
ATOM      6  C   UNL d   1      28.250 -12.128   5.660  0.00  0.00     0.071 A 
ATOM      7  C   UNL d   1      27.778 -11.100   4.752  0.00  0.00     0.102 C 
ATOM      8  N   UNL d   1      27.410 -10.291   4.023  0.00  0.00    -0.191 NA
ENDROOT
BRANCH   1   9
ATOM      9  N   UNL d   1      27.580 -13.982   4.166  0.00  0.00    -0.324 N 
ATOM     10  C   UNL d   1      28.454 -14.450   3.205  0.00  0.00     0.255 C 
ATOM     11  O   UNL d   1      29.676 -14.450   3.376  0.00  0.00    -0.271 OA
ATOM     12  H   UNL d   1      26.611 -14.267   4.131  0.00  0.00     0.169 HD
BRANCH  10  13
ATOM     13  C   UNL d   1      27.887 -14.894   1.878  0.00  0.00     0.308 C 
ATOM     14  C   UNL d   1      27.398 -13.558   1.262  0.00  0.00     0.053 C 
BRANCH  13  15
ATOM     15  N   UNL d   1      28.844 -15.563   0.983  0.00  0.00     0.105 N 
ATOM     16  H   UNL d   1      29.630 -15.931   1.512  0.00  0.00     0.317 HD
BRANCH  15  17
ATOM     17  C   UNL d   1      28.210 -16.685   0.214  0.00  0.00     0.251 C 
ATOM     18  C   UNL d   1      29.304 -17.474  -0.525  0.00  0.00     0.048 C 
BRANCH  17  19
ATOM     19  C   UNL d   1      26.975 -16.322  -0.665  0.00  0.00    -0.015 C 
ATOM     20  C   UNL d   1      27.004 -15.311  -1.656  0.00  0.00     0.010 C 
ATOM     21  C   UNL d   1      25.970 -14.688  -2.312  0.00  0.00     0.002 C 
ATOM     22  C   UNL d   1      24.747 -15.213  -2.135  0.00  0.00     0.012 C 
ATOM     23  C   UNL d   1      24.629 -16.332  -1.312  0.00  0.00    -0.025 A 
ATOM     24  C   UNL d   1      23.382 -16.899  -1.270  0.00  0.00     0.012 A 
ATOM     25  C   UNL d   1      25.716 -16.900  -0.543  0.00  0.00    -0.018 A 
ATOM     26  C   UNL d   1      23.162 -18.017  -0.482  0.00  0.00     0.001 A 
ATOM     27  C   UNL d   1      24.186 -18.574   0.281  0.00  0.00     0.001 A 
ATOM     28  C   UNL d   1      25.459 -18.019   0.264  0.00  0.00     0.013 A 
ENDBRANCH  17  19
ENDBRANCH  15  17
ENDBRANCH  13  15
ENDBRANCH  10  13
ENDBRANCH   1   9
TORSDOF 5
ENDMDL
MODEL 2
REMARK VINA RESULT:    -8.756      0.576      2.083
REMARK INTER + INTRA:         -12.087
REMARK INTER:                 -10.248
REMARK INTRA:                  -1.839
REMARK CONF_INDEPENDENT:        1.492
REMARK UNBOUND:                -1.839
REMARK  5 active torsions:
REMARK  status: ('A' for Active; 'I' for Inactive)
REMARK    1  A    between atoms: C_2  and  N_3 
REMARK    2  A    between atoms: C_2  and  C_16 
REMARK    3  A    between atoms: C_4  and  N_3 
REMARK    4  A    between atoms: C_4  and  C_6 
REMARK       I    between atoms: C_16  and  N_18 
REMARK    5  A    between atoms: N_18  and  C_19 
ROOT
ATOM      1  C   UNL d   1      28.115 -13.527   5.277  0.00  0.00     0.055 A 
ATOM      2  C   UNL d   1      28.530 -14.463   6.233  0.00  0.00     0.031 A 
ATOM      3  C   UNL d   1      29.051 -14.025   7.456  0.00  0.00     0.002 A 
ATOM      4  C   UNL d   1      29.100 -12.663   7.753  0.00  0.00     0.002 A 
ATOM      5  C   UNL d   1      28.662 -11.729   6.816  0.00  0.00     0.025 A 
ATOM      6  C   UNL d   1      28.196 -12.146   5.568  0.00  0.00     0.071 A 
ATOM      7  C   UNL d   1      27.776 -11.118   4.634  0.00  0.00     0.102 C 
ATOM      8  N   UNL d   1      27.449 -10.310   3.885  0.00  0.00    -0.191 NA
ENDROOT
BRANCH   1   9
ATOM      9  N   UNL d   1      27.668 -13.998   4.017  0.00  0.00    -0.324 N 
ATOM     10  C   UNL d   1      28.616 -14.457   3.124  0.00  0.00     0.255 C 
ATOM     11  O   UNL d   1      29.822 -14.450   3.389  0.00  0.00    -0.271 OA
ATOM     12  H   UNL d   1      26.706 -14.290   3.906  0.00  0.00     0.169 HD
BRANCH  10  13
ATOM     13  C   UNL d   1      28.156 -14.901   1.757  0.00  0.00     0.308 C 
ATOM     14  C   UNL d   1      27.655 -13.574   1.129  0.00  0.00     0.053 C 
BRANCH  13  15
ATOM     15  N   UNL d   1      29.196 -15.516   0.917  0.00  0.00     0.105 N 
ATOM     16  H   UNL d   1      30.013 -15.750   1.475  0.00  0.00     0.317 HD
BRANCH  15  17
ATOM     17  C   UNL d   1      28.708 -16.757   0.230  0.00  0.00     0.251 C 
ATOM     18  C   UNL d   1      29.594 -17.040  -0.995  0.00  0.00     0.048 C 
BRANCH  17  19
ATOM     19  C   UNL d   1      27.177 -16.845  -0.051  0.00  0.00    -0.015 C 
ATOM     20  C   UNL d   1      26.325 -17.768   0.602  0.00  0.00     0.010 C 
ATOM     21  C   UNL d   1      25.045 -18.161   0.291  0.00  0.00     0.002 C 
ATOM     22  C   UNL d   1      24.420 -17.457  -0.667  0.00  0.00     0.012 C 
ATOM     23  C   UNL d   1      25.111 -16.399  -1.256  0.00  0.00    -0.025 A 
ATOM     24  C   UNL d   1      24.380 -15.639  -2.132  0.00  0.00     0.012 A 
ATOM     25  C   UNL d   1      26.497 -16.078  -0.990  0.00  0.00    -0.018 A 
ATOM     26  C   UNL d   1      24.976 -14.563  -2.770  0.00  0.00     0.001 A 
ATOM     27  C   UNL d   1      26.313 -14.242  -2.545  0.00  0.00     0.001 A 
ATOM     28  C   UNL d   1      27.081 -14.997  -1.667  0.00  0.00     0.013 A 
ENDBRANCH  17  19
ENDBRANCH  15  17
ENDBRANCH  13  15
ENDBRANCH  10  13
ENDBRANCH   1   9
TORSDOF 5
ENDMDL
MODEL 3
REMARK VINA RESULT:    -8.657      1.676      2.928
REMARK INTER + INTRA:         -11.559
REMARK INTER:                 -10.149
REMARK INTRA:                  -1.410
REMARK CONF_INDEPENDENT:        1.492
REMARK UNBOUND:                -1.410
REMARK  5 active torsions:
REMARK  status: ('A' for Active; 'I' for Inactive)
REMARK    1  A    between atoms: C_2  and  N_3 
REMARK    2  A    between atoms: C_2  and  C_16 
REMARK    3  A    between atoms: C_4  and  N_3 
REMARK    4  A    between atoms: C_4  and  C_6 
REMARK       I    between atoms: C_16  and  N_18 
REMARK    5  A    between atoms: N_18  and  C_19 
ROOT
ATOM      1  C   UNL d   1      29.374 -14.210   4.930  0.00  0.00     0.055 A 
ATOM      2  C   UNL d   1      30.029 -14.274   6.167  0.00  0.00     0.031 A 
ATOM      3  C   UNL d   1      29.488 -13.614   7.276  0.00  0.00     0.002 A 
ATOM      4  C   UNL d   1      28.267 -12.948   7.173  0.00  0.00     0.002 A 
ATOM      5  C   UNL d   1      27.598 -12.905   5.952  0.00  0.00     0.025 A 
ATOM      6  C   UNL d   1      28.153 -13.506   4.820  0.00  0.00     0.071 A 
ATOM      7  C   UNL d   1      27.411 -13.405   3.577  0.00  0.00     0.102 C 
ATOM      8  N   UNL d   1      26.834 -13.322   2.587  0.00  0.00    -0.191 NA
ENDROOT
BRANCH   1   9
ATOM      9  N   UNL d   1      29.987 -14.819   3.807  0.00  0.00    -0.324 N 
ATOM     10  C   UNL d   1      30.503 -13.996   2.825  0.00  0.00     0.255 C 
ATOM     11  O   UNL d   1      30.427 -12.766   2.897  0.00  0.00    -0.271 OA
ATOM     12  H   UNL d   1      30.321 -15.771   3.876  0.00  0.00     0.169 HD
BRANCH  10  13
ATOM     13  C   UNL d   1      31.099 -14.635   1.595  0.00  0.00     0.308 C 
ATOM     14  C   UNL d   1      32.426 -15.227   2.138  0.00  0.00     0.053 C 
BRANCH  13  15
ATOM     15  N   UNL d   1      30.275 -15.685   0.975  0.00  0.00     0.105 N 
ATOM     16  H   UNL d   1      29.738 -16.180   1.681  0.00  0.00     0.317 HD
BRANCH  15  17
ATOM     17  C   UNL d   1      29.330 -15.129  -0.050  0.00  0.00     0.251 C 
ATOM     18  C   UNL d   1      29.264 -13.600   0.098  0.00  0.00     0.048 C 
BRANCH  17  19
ATOM     19  C   UNL d   1      27.940 -15.824  -0.169  0.00  0.00    -0.015 C 
ATOM     20  C   UNL d   1      27.565 -16.940   0.618  0.00  0.00     0.010 C 
ATOM     21  C   UNL d   1      26.522 -17.820   0.461  0.00  0.00     0.002 C 
ATOM     22  C   UNL d   1      25.604 -17.501  -0.466  0.00  0.00     0.012 C 
ATOM     23  C   UNL d   1      25.783 -16.317  -1.182  0.00  0.00    -0.025 A 
ATOM     24  C   UNL d   1      24.752 -15.980  -2.021  0.00  0.00     0.012 A 
ATOM     25  C   UNL d   1      26.948 -15.467  -1.076  0.00  0.00    -0.018 A 
ATOM     26  C   UNL d   1      24.833 -14.821  -2.775  0.00  0.00     0.001 A 
ATOM     27  C   UNL d   1      25.951 -13.992  -2.705  0.00  0.00     0.001 A 
ATOM     28  C   UNL d   1      27.013 -14.310  -1.868  0.00  0.00     0.013 A 
ENDBRANCH  17  19
ENDBRANCH  15  17
ENDBRANCH  13  15
ENDBRANCH  10  13
ENDBRANCH   1   9
TORSDOF 5
ENDMDL
MODEL 4
REMARK VINA RESULT:    -8.386      4.250      8.575
REMARK INTER + INTRA:         -11.305
REMARK INTER:                  -9.877
REMARK INTRA:                  -1.428
REMARK CONF_INDEPENDENT:        1.492
REMARK UNBOUND:                -1.428
REMARK  5 active torsions:
REMARK  status: ('A' for Active; 'I' for Inactive)
REMARK    1  A    between atoms: C_2  and  N_3 
REMARK    2  A    between atoms: C_2  and  C_16 
REMARK    3  A    between atoms: C_4  and  N_3 
REMARK    4  A    between atoms: C_4  and  C_6 
REMARK       I    between atoms: C_16  and  N_18 
REMARK    5  A    between atoms: N_18  and  C_19 
ROOT
ATOM      1  C   UNL d   1      31.247 -18.473  -4.827  0.00  0.00     0.055 A 
ATOM      2  C   UNL d   1      31.446 -17.369  -5.666  0.00  0.00     0.031 A 
ATOM      3  C   UNL d   1      31.280 -17.507  -7.049  0.00  0.00     0.002 A 
ATOM      4  C   UNL d   1      30.854 -18.719  -7.590  0.00  0.00     0.002 A 
ATOM      5  C   UNL d   1      30.627 -19.813  -6.756  0.00  0.00     0.025 A 
ATOM      6  C   UNL d   1      30.847 -19.711  -5.381  0.00  0.00     0.071 A 
ATOM      7  C   UNL d   1      30.610 -20.894  -4.576  0.00  0.00     0.102 C 
ATOM      8  N   UNL d   1      30.433 -21.830  -3.933  0.00  0.00    -0.191 NA
ENDROOT
BRANCH   1   9
ATOM      9  N   UNL d   1      31.501 -18.325  -3.440  0.00  0.00    -0.324 N 
ATOM     10  C   UNL d   1      30.497 -17.800  -2.651  0.00  0.00     0.255 C 
ATOM     11  O   UNL d   1      29.411 -17.449  -3.121  0.00  0.00    -0.271 OA
ATOM     12  H   UNL d   1      32.234 -18.871  -3.007  0.00  0.00     0.169 HD
BRANCH  10  13
ATOM     13  C   UNL d   1      30.781 -17.579  -1.185  0.00  0.00     0.308 C 
ATOM     14  C   UNL d   1      31.663 -16.304  -1.207  0.00  0.00     0.053 C 
BRANCH  13  15
ATOM     15  N   UNL d   1      29.592 -17.377  -0.342  0.00  0.00     0.105 N 
ATOM     16  H   UNL d   1      29.831 -17.472   0.641  0.00  0.00     0.317 HD
BRANCH  15  17
ATOM     17  C   UNL d   1      28.967 -16.030  -0.560  0.00  0.00     0.251 C 
ATOM     18  C   UNL d   1      28.951 -15.259   0.771  0.00  0.00     0.048 C 
BRANCH  17  19
ATOM     19  C   UNL d   1      27.614 -16.004  -1.334  0.00  0.00    -0.015 C 
ATOM     20  C   UNL d   1      27.422 -15.266  -2.527  0.00  0.00     0.010 C 
ATOM     21  C   UNL d   1      26.260 -14.918  -3.172  0.00  0.00     0.002 C 
ATOM     22  C   UNL d   1      25.132 -15.492  -2.724  0.00  0.00     0.012 C 
ATOM     23  C   UNL d   1      25.232 -16.383  -1.657  0.00  0.00    -0.025 A 
ATOM     24  C   UNL d   1      24.071 -17.034  -1.327  0.00  0.00     0.012 A 
ATOM     25  C   UNL d   1      26.451 -16.646  -0.923  0.00  0.00    -0.018 A 
ATOM     26  C   UNL d   1      24.067 -17.941  -0.281  0.00  0.00     0.001 A 
ATOM     27  C   UNL d   1      25.222 -18.202   0.453  0.00  0.00     0.001 A 
ATOM     28  C   UNL d   1      26.412 -17.554   0.146  0.00  0.00     0.013 A 
ENDBRANCH  17  19
ENDBRANCH  15  17
ENDBRANCH  13  15
ENDBRANCH  10  13
ENDBRANCH   1   9
TORSDOF 5
ENDMDL
MODEL 5
REMARK VINA RESULT:    -8.315      3.753      7.536
REMARK INTER + INTRA:         -11.623
REMARK INTER:                  -9.806
REMARK INTRA:                  -1.816
REMARK CONF_INDEPENDENT:        1.492
REMARK UNBOUND:                -1.816
REMARK  5 active torsions:
REMARK  status: ('A' for Active; 'I' for Inactive)
REMARK    1  A    between atoms: C_2  and  N_3 
REMARK    2  A    between atoms: C_2  and  C_16 
REMARK    3  A    between atoms: C_4  and  N_3 
REMARK    4  A    between atoms: C_4  and  C_6 
REMARK       I    between atoms: C_16  and  N_18 
REMARK    5  A    between atoms: N_18  and  C_19 
ROOT
ATOM      1  C   UNL d   1      29.358 -16.376  -4.172  0.00  0.00     0.055 A 
ATOM      2  C   UNL d   1      28.741 -15.128  -4.331  0.00  0.00     0.031 A 
ATOM      3  C   UNL d   1      28.815 -14.468  -5.562  0.00  0.00     0.002 A 
ATOM      4  C   UNL d   1      29.443 -15.073  -6.650  0.00  0.00     0.002 A 
ATOM      5  C   UNL d   1      30.033 -16.327  -6.504  0.00  0.00     0.025 A 
ATOM      6  C   UNL d   1      30.022 -16.974  -5.268  0.00  0.00     0.071 A 
ATOM      7  C   UNL d   1      30.674 -18.268  -5.183  0.00  0.00     0.102 C 
ATOM      8  N   UNL d   1      31.195 -19.288  -5.106  0.00  0.00    -0.191 NA
ENDROOT
BRANCH   1   9
ATOM      9  N   UNL d   1      29.337 -16.984  -2.891  0.00  0.00    -0.324 N 
ATOM     10  C   UNL d   1      30.218 -16.515  -1.938  0.00  0.00     0.255 C 
ATOM     11  O   UNL d   1      31.020 -15.608  -2.178  0.00  0.00    -0.271 OA
ATOM     12  H   UNL d   1      28.514 -17.491  -2.594  0.00  0.00     0.169 HD
BRANCH  10  13
ATOM     13  C   UNL d   1      30.248 -17.199  -0.592  0.00  0.00     0.308 C 
ATOM     14  C   UNL d   1      31.483 -16.549   0.083  0.00  0.00     0.053 C 
BRANCH  13  15
ATOM     15  N   UNL d   1      29.042 -17.011   0.230  0.00  0.00     0.105 N 
ATOM     16  H   UNL d   1      29.271 -17.075   1.218  0.00  0.00     0.317 HD
BRANCH  15  17
ATOM     17  C   UNL d   1      28.382 -15.689  -0.029  0.00  0.00     0.251 C 
ATOM     18  C   UNL d   1      28.247 -14.922   1.297  0.00  0.00     0.048 C 
BRANCH  17  19
ATOM     19  C   UNL d   1      27.085 -15.712  -0.892  0.00  0.00    -0.015 C 
ATOM     20  C   UNL d   1      26.833 -14.784  -1.931  0.00  0.00     0.010 C 
ATOM     21  C   UNL d   1      25.663 -14.493  -2.591  0.00  0.00     0.002 C 
ATOM     22  C   UNL d   1      24.625 -15.313  -2.358  0.00  0.00     0.012 C 
ATOM     23  C   UNL d   1      24.819 -16.378  -1.479  0.00  0.00    -0.025 A 
ATOM     24  C   UNL d   1      23.767 -17.252  -1.379  0.00  0.00     0.012 A 
ATOM     25  C   UNL d   1      26.026 -16.596  -0.712  0.00  0.00    -0.018 A 
ATOM     26  C   UNL d   1      23.862 -18.345  -0.533  0.00  0.00     0.001 A 
ATOM     27  C   UNL d   1      25.007 -18.570   0.230  0.00  0.00     0.001 A 
ATOM     28  C   UNL d   1      26.086 -17.698   0.154  0.00  0.00     0.013 A 
ENDBRANCH  17  19
ENDBRANCH  15  17
ENDBRANCH  13  15
ENDBRANCH  10  13
ENDBRANCH   1   9
TORSDOF 5
ENDMDL
MODEL 6
REMARK VINA RESULT:    -8.205      2.261      4.094
REMARK INTER + INTRA:         -11.384
REMARK INTER:                  -9.697
REMARK INTRA:                  -1.687
REMARK CONF_INDEPENDENT:        1.492
REMARK UNBOUND:                -1.687
REMARK  5 active torsions:
REMARK  status: ('A' for Active; 'I' for Inactive)
REMARK    1  A    between atoms: C_2  and  N_3 
REMARK    2  A    between atoms: C_2  and  C_16 
REMARK    3  A    between atoms: C_4  and  N_3 
REMARK    4  A    between atoms: C_4  and  C_6 
REMARK       I    between atoms: C_16  and  N_18 
REMARK    5  A    between atoms: N_18  and  C_19 
ROOT
ATOM      1  C   UNL d   1      28.282 -14.195   1.415  0.00  0.00     0.055 A 
ATOM      2  C   UNL d   1      27.658 -13.545   0.342  0.00  0.00     0.031 A 
ATOM      3  C   UNL d   1      26.769 -12.493   0.587  0.00  0.00     0.002 A 
ATOM      4  C   UNL d   1      26.550 -12.045   1.889  0.00  0.00     0.002 A 
ATOM      5  C   UNL d   1      27.189 -12.669   2.958  0.00  0.00     0.025 A 
ATOM      6  C   UNL d   1      28.033 -13.759   2.737  0.00  0.00     0.071 A 
ATOM      7  C   UNL d   1      28.650 -14.374   3.898  0.00  0.00     0.102 C 
ATOM      8  N   UNL d   1      29.135 -14.871   4.813  0.00  0.00    -0.191 NA
ENDROOT
BRANCH   1   9
ATOM      9  N   UNL d   1      29.114 -15.309   1.142  0.00  0.00    -0.324 N 
ATOM     10  C   UNL d   1      30.331 -15.073   0.533  0.00  0.00     0.255 C 
ATOM     11  O   UNL d   1      30.694 -13.938   0.214  0.00  0.00    -0.271 OA
ATOM     12  H   UNL d   1      28.979 -16.170   1.654  0.00  0.00     0.169 HD
BRANCH  10  13
ATOM     13  C   UNL d   1      31.196 -16.259   0.180  0.00  0.00     0.308 C 
ATOM     14  C   UNL d   1      32.042 -16.448   1.465  0.00  0.00     0.053 C 
BRANCH  13  15
ATOM     15  N   UNL d   1      30.462 -17.491  -0.148  0.00  0.00     0.105 N 
ATOM     16  H   UNL d   1      29.940 -17.821   0.659  0.00  0.00     0.317 HD
BRANCH  15  17
ATOM     17  C   UNL d   1      29.511 -17.295  -1.292  0.00  0.00     0.251 C 
ATOM     18  C   UNL d   1      30.081 -16.235  -2.249  0.00  0.00     0.048 C 
BRANCH  17  19
ATOM     19  C   UNL d   1      28.010 -17.090  -0.927  0.00  0.00    -0.015 C 
ATOM     20  C   UNL d   1      27.406 -17.676   0.212  0.00  0.00     0.010 C 
ATOM     21  C   UNL d   1      26.078 -17.824   0.529  0.00  0.00     0.002 C 
ATOM     22  C   UNL d   1      25.200 -17.175  -0.253  0.00  0.00     0.012 C 
ATOM     23  C   UNL d   1      25.704 -16.414  -1.308  0.00  0.00    -0.025 A 
ATOM     24  C   UNL d   1      24.773 -15.674  -1.991  0.00  0.00     0.012 A 
ATOM     25  C   UNL d   1      27.099 -16.366  -1.688  0.00  0.00    -0.018 A 
ATOM     26  C   UNL d   1      25.174 -14.883  -3.056  0.00  0.00     0.001 A 
ATOM     27  C   UNL d   1      26.509 -14.831  -3.454  0.00  0.00     0.001 A 
ATOM     28  C   UNL d   1      27.473 -15.573  -2.784  0.00  0.00     0.013 A 
ENDBRANCH  17  19
ENDBRANCH  15  17
ENDBRANCH  13  15
ENDBRANCH  10  13
ENDBRANCH   1   9
TORSDOF 5
ENDMDL
MODEL 7
REMARK VINA RESULT:    -7.979      4.140      7.160
REMARK INTER + INTRA:         -11.376
REMARK INTER:                  -9.471
REMARK INTRA:                  -1.906
REMARK CONF_INDEPENDENT:        1.492
REMARK UNBOUND:                -1.906
REMARK  5 active torsions:
REMARK  status: ('A' for Active; 'I' for Inactive)
REMARK    1  A    between atoms: C_2  and  N_3 
REMARK    2  A    between atoms: C_2  and  C_16 
REMARK    3  A    between atoms: C_4  and  N_3 
REMARK    4  A    between atoms: C_4  and  C_6 
REMARK       I    between atoms: C_16  and  N_18 
REMARK    5  A    between atoms: N_18  and  C_19 
ROOT
ATOM      1  C   UNL d   1      25.851 -16.964  -0.657  0.00  0.00     0.055 A 
ATOM      2  C   UNL d   1      25.516 -17.827   0.395  0.00  0.00     0.031 A 
ATOM      3  C   UNL d   1      24.237 -18.393   0.450  0.00  0.00     0.002 A 
ATOM      4  C   UNL d   1      23.316 -18.154  -0.570  0.00  0.00     0.002 A 
ATOM      5  C   UNL d   1      23.655 -17.318  -1.633  0.00  0.00     0.025 A 
ATOM      6  C   UNL d   1      24.904 -16.697  -1.673  0.00  0.00     0.071 A 
ATOM      7  C   UNL d   1      25.182 -15.824  -2.798  0.00  0.00     0.102 C 
ATOM      8  N   UNL d   1      25.406 -15.124  -3.681  0.00  0.00    -0.191 NA
ENDROOT
BRANCH   1   9
ATOM      9  N   UNL d   1      27.125 -16.342  -0.643  0.00  0.00    -0.324 N 
ATOM     10  C   UNL d   1      28.227 -17.131  -0.382  0.00  0.00     0.255 C 
ATOM     11  O   UNL d   1      28.127 -18.339  -0.149  0.00  0.00    -0.271 OA
ATOM     12  H   UNL d   1      27.253 -15.458  -1.117  0.00  0.00     0.169 HD
BRANCH  10  13
ATOM     13  C   UNL d   1      29.580 -16.467  -0.302  0.00  0.00     0.308 C 
ATOM     14  C   UNL d   1      29.305 -15.268   0.642  0.00  0.00     0.053 C 
BRANCH  13  15
ATOM     15  N   UNL d   1      30.661 -17.313   0.230  0.00  0.00     0.105 N 
ATOM     16  H   UNL d   1      30.289 -18.200   0.559  0.00  0.00     0.317 HD
BRANCH  15  17
ATOM     17  C   UNL d   1      31.723 -17.584  -0.795  0.00  0.00     0.251 C 
ATOM     18  C   UNL d   1      32.952 -16.710  -0.493  0.00  0.00     0.048 C 
BRANCH  17  19
ATOM     19  C   UNL d   1      31.275 -17.568  -2.288  0.00  0.00    -0.015 C 
ATOM     20  C   UNL d   1      30.929 -16.381  -2.977  0.00  0.00     0.010 C 
ATOM     21  C   UNL d   1      30.270 -16.214  -4.171  0.00  0.00     0.002 C 
ATOM     22  C   UNL d   1      30.063 -17.322  -4.901  0.00  0.00     0.012 C 
ATOM     23  C   UNL d   1      30.529 -18.535  -4.393  0.00  0.00    -0.025 A 
ATOM     24  C   UNL d   1      30.403 -19.609  -5.236  0.00  0.00     0.012 A 
ATOM     25  C   UNL d   1      31.118 -18.699  -3.082  0.00  0.00    -0.018 A 
ATOM     26  C   UNL d   1      30.838 -20.858  -4.824  0.00  0.00     0.001 A 
ATOM     27  C   UNL d   1      31.395 -21.048  -3.561  0.00  0.00     0.001 A 
ATOM     28  C   UNL d   1      31.530 -19.980  -2.683  0.00  0.00     0.013 A 
ENDBRANCH  17  19
ENDBRANCH  15  17
ENDBRANCH  13  15
ENDBRANCH  10  13
ENDBRANCH   1   9
TORSDOF 5
ENDMDL
MODEL 8
REMARK VINA RESULT:    -7.922      4.250      7.365
REMARK INTER + INTRA:         -11.317
REMARK INTER:                  -9.413
REMARK INTRA:                  -1.904
REMARK CONF_INDEPENDENT:        1.492
REMARK UNBOUND:                -1.904
REMARK  5 active torsions:
REMARK  status: ('A' for Active; 'I' for Inactive)
REMARK    1  A    between atoms: C_2  and  N_3 
REMARK    2  A    between atoms: C_2  and  C_16 
REMARK    3  A    between atoms: C_4  and  N_3 
REMARK    4  A    between atoms: C_4  and  C_6 
REMARK       I    between atoms: C_16  and  N_18 
REMARK    5  A    between atoms: N_18  and  C_19 
ROOT
ATOM      1  C   UNL d   1      25.940 -16.907  -0.704  0.00  0.00     0.055 A 
ATOM      2  C   UNL d   1      25.585 -17.700   0.395  0.00  0.00     0.031 A 
ATOM      3  C   UNL d   1      24.289 -18.218   0.490  0.00  0.00     0.002 A 
ATOM      4  C   UNL d   1      23.368 -18.004  -0.536  0.00  0.00     0.002 A 
ATOM      5  C   UNL d   1      23.725 -17.240  -1.644  0.00  0.00     0.025 A 
ATOM      6  C   UNL d   1      24.994 -16.664  -1.727  0.00  0.00     0.071 A 
ATOM      7  C   UNL d   1      25.290 -15.863  -2.900  0.00  0.00     0.102 C 
ATOM      8  N   UNL d   1      25.530 -15.221  -3.822  0.00  0.00    -0.191 NA
ENDROOT
BRANCH   1   9
ATOM      9  N   UNL d   1      27.234 -16.328  -0.733  0.00  0.00    -0.324 N 
ATOM     10  C   UNL d   1      28.312 -17.141  -0.442  0.00  0.00     0.255 C 
ATOM     11  O   UNL d   1      28.173 -18.331  -0.147  0.00  0.00    -0.271 OA
ATOM     12  H   UNL d   1      27.387 -15.475  -1.253  0.00  0.00     0.169 HD
BRANCH  10  13
ATOM     13  C   UNL d   1      29.687 -16.519  -0.408  0.00  0.00     0.308 C 
ATOM     14  C   UNL d   1      29.442 -15.216   0.397  0.00  0.00     0.053 C 
BRANCH  13  15
ATOM     15  N   UNL d   1      30.727 -17.340   0.232  0.00  0.00     0.105 N 
ATOM     16  H   UNL d   1      30.327 -18.200   0.599  0.00  0.00     0.317 HD
BRANCH  15  17
ATOM     17  C   UNL d   1      31.836 -17.689  -0.717  0.00  0.00     0.251 C 
ATOM     18  C   UNL d   1      32.647 -16.422  -1.034  0.00  0.00     0.048 C 
BRANCH  17  19
ATOM     19  C   UNL d   1      31.446 -18.532  -1.968  0.00  0.00    -0.015 C 
ATOM     20  C   UNL d   1      31.534 -19.945  -2.004  0.00  0.00     0.010 C 
ATOM     21  C   UNL d   1      31.496 -20.805  -3.076  0.00  0.00     0.002 C 
ATOM     22  C   UNL d   1      31.155 -20.271  -4.260  0.00  0.00     0.012 C 
ATOM     23  C   UNL d   1      30.869 -18.907  -4.302  0.00  0.00    -0.025 A 
ATOM     24  C   UNL d   1      30.403 -18.444  -5.507  0.00  0.00     0.012 A 
ATOM     25  C   UNL d   1      31.026 -18.003  -3.184  0.00  0.00    -0.018 A 
ATOM     26  C   UNL d   1      30.090 -17.103  -5.651  0.00  0.00     0.001 A 
ATOM     27  C   UNL d   1      30.246 -16.207  -4.595  0.00  0.00     0.001 A 
ATOM     28  C   UNL d   1      30.721 -16.645  -3.365  0.00  0.00     0.013 A 
ENDBRANCH  17  19
ENDBRANCH  15  17
ENDBRANCH  13  15
ENDBRANCH  10  13
ENDBRANCH   1   9
TORSDOF 5
ENDMDL
MODEL 9
REMARK VINA RESULT:    -7.574      2.340      3.818
REMARK INTER + INTRA:         -11.556
REMARK INTER:                  -9.065
REMARK INTRA:                  -2.490
REMARK CONF_INDEPENDENT:        1.492
REMARK UNBOUND:                -2.490
REMARK  5 active torsions:
REMARK  status: ('A' for Active; 'I' for Inactive)
REMARK    1  A    between atoms: C_2  and  N_3 
REMARK    2  A    between atoms: C_2  and  C_16 
REMARK    3  A    between atoms: C_4  and  N_3 
REMARK    4  A    between atoms: C_4  and  C_6 
REMARK       I    between atoms: C_16  and  N_18 
REMARK    5  A    between atoms: N_18  and  C_19 
ROOT
ATOM      1  C   UNL d   1      28.441 -14.055   1.335  0.00  0.00     0.055 A 
ATOM      2  C   UNL d   1      28.129 -13.288   0.205  0.00  0.00     0.031 A 
ATOM      3  C   UNL d   1      27.231 -12.221   0.316  0.00  0.00     0.002 A 
ATOM      4  C   UNL d   1      26.696 -11.876   1.556  0.00  0.00     0.002 A 
ATOM      5  C   UNL d   1      27.025 -12.618   2.688  0.00  0.00     0.025 A 
ATOM      6  C   UNL d   1      27.871 -13.724   2.586  0.00  0.00     0.071 A 
ATOM      7  C   UNL d   1      28.156 -14.463   3.802  0.00  0.00     0.102 C 
ATOM      8  N   UNL d   1      28.379 -15.059   4.759  0.00  0.00    -0.191 NA
ENDROOT
BRANCH   1   9
ATOM      9  N   UNL d   1      29.290 -15.180   1.178  0.00  0.00    -0.324 N 
ATOM     10  C   UNL d   1      30.542 -14.974   0.632  0.00  0.00     0.255 C 
ATOM     11  O   UNL d   1      30.922 -13.857   0.270  0.00  0.00    -0.271 OA
ATOM     12  H   UNL d   1      29.125 -16.011   1.729  0.00  0.00     0.169 HD
BRANCH  10  13
ATOM     13  C   UNL d   1      31.428 -16.174   0.400  0.00  0.00     0.308 C 
ATOM     14  C   UNL d   1      32.280 -16.212   1.695  0.00  0.00     0.053 C 
BRANCH  13  15
ATOM     15  N   UNL d   1      30.716 -17.447   0.206  0.00  0.00     0.105 N 
ATOM     16  H   UNL d   1      29.918 -17.509   0.833  0.00  0.00     0.317 HD
BRANCH  15  17
ATOM     17  C   UNL d   1      30.237 -17.618  -1.206  0.00  0.00     0.251 C 
ATOM     18  C   UNL d   1      31.402 -17.344  -2.172  0.00  0.00     0.048 C 
BRANCH  17  19
ATOM     19  C   UNL d   1      28.907 -16.900  -1.585  0.00  0.00    -0.015 C 
ATOM     20  C   UNL d   1      28.815 -15.942  -2.622  0.00  0.00     0.010 C 
ATOM     21  C   UNL d   1      27.820 -15.037  -2.904  0.00  0.00     0.002 C 
ATOM     22  C   UNL d   1      26.675 -15.174  -2.215  0.00  0.00     0.012 C 
ATOM     23  C   UNL d   1      26.593 -16.210  -1.285  0.00  0.00    -0.025 A 
ATOM     24  C   UNL d   1      25.361 -16.380  -0.707  0.00  0.00     0.012 A 
ATOM     25  C   UNL d   1      27.694 -17.077  -0.928  0.00  0.00    -0.018 A 
ATOM     26  C   UNL d   1      25.175 -17.383   0.229  0.00  0.00     0.001 A 
ATOM     27  C   UNL d   1      26.223 -18.222   0.605  0.00  0.00     0.001 A 
ATOM     28  C   UNL d   1      27.483 -18.071   0.040  0.00  0.00     0.013 A 
ENDBRANCH  17  19
ENDBRANCH  15  17
ENDBRANCH  13  15
ENDBRANCH  10  13
ENDBRANCH   1   9
TORSDOF 5
ENDMDL
