MODEL 1
REMARK VINA RESULT:    -6.926      0.000      0.000
REMARK INTER + INTRA:          -9.351
REMARK INTER:                  -8.119
REMARK INTRA:                  -1.233
REMARK CONF_INDEPENDENT:        1.193
REMARK UNBOUND:                -1.233
REMARK  4 active torsions:
REMARK  status: ('A' for Active; 'I' for Inactive)
REMARK    1  A    between atoms: C_3  and  C_4 
REMARK    2  A    between atoms: C_5  and  C_6 
REMARK       I    between atoms: C_6  and  N_8 
REMARK    3  A    between atoms: N_8  and  N_9 
REMARK       I    between atoms: N_9  and  C_10 
REMARK    4  A    between atoms: C_10  and  C_12 
ROOT
ATOM      1  N   UNL d   1      25.804 -15.782  -3.113  0.00  0.00    -0.263 N 
ATOM      2  C   UNL d   1      25.532 -14.823  -4.085  0.00  0.00     0.270 C 
ATOM      3  O   UNL d   1      24.405 -14.360  -4.269  0.00  0.00    -0.266 OA
ATOM      4  H   UNL d   1      26.746 -16.089  -2.874  0.00  0.00     0.190 HD
ENDROOT
BRANCH   1   5
ATOM      5  N   UNL d   1      24.759 -16.249  -2.244  0.00  0.00    -0.264 N 
ATOM      6  C   UNL d   1      25.070 -17.148  -1.229  0.00  0.00     0.259 C 
ATOM      7  O   UNL d   1      26.220 -17.535  -1.026  0.00  0.00    -0.267 OA
ATOM      8  H   UNL d   1      23.823 -15.902  -2.444  0.00  0.00     0.190 HD
BRANCH   6   9
ATOM      9  C   UNL d   1      23.913 -17.625  -0.387  0.00  0.00     0.075 C 
ATOM     10  C   UNL d   1      22.956 -18.434  -0.894  0.00  0.00     0.005 C 
BRANCH  10  11
ATOM     11  C   UNL d   1      21.806 -18.935  -0.147  0.00  0.00    -0.004 C 
ATOM     12  C   UNL d   1      20.629 -19.280  -0.704  0.00  0.00    -0.031 C 
ATOM     13  C   UNL d   1      19.454 -19.794   0.082  0.00  0.00     0.036 C 
ENDBRANCH  10  11
ENDBRANCH   6   9
ENDBRANCH   1   5
BRANCH   2  14
ATOM     14  C   UNL d   1      26.681 -14.334  -4.925  0.00  0.00     0.033 A 
ATOM     15  C   UNL d   1      27.697 -15.200  -5.355  0.00  0.00     0.019 A 
ATOM     16  C   UNL d   1      28.748 -14.723  -6.159  0.00  0.00     0.025 A 
ATOM     17  C   UNL d   1      28.792 -13.382  -6.539  0.00  0.00     0.034 A 
ATOM     18 CL   UNL d   1      30.103 -12.799  -7.491  0.00  0.00    -0.084 Cl
ATOM     19  C   UNL d   1      27.774 -12.516  -6.147  0.00  0.00     0.025 A 
ATOM     20  C   UNL d   1      26.717 -12.993  -5.352  0.00  0.00     0.019 A 
ENDBRANCH   2  14
TORSDOF 4
ENDMDL
MODEL 2
REMARK VINA RESULT:    -6.920      0.078      1.140
REMARK INTER + INTRA:          -9.357
REMARK INTER:                  -8.113
REMARK INTRA:                  -1.244
REMARK CONF_INDEPENDENT:        1.193
REMARK UNBOUND:                -1.244
REMARK  4 active torsions:
REMARK  status: ('A' for Active; 'I' for Inactive)
REMARK    1  A    between atoms: C_3  and  C_4 
REMARK    2  A    between atoms: C_5  and  C_6 
REMARK       I    between atoms: C_6  and  N_8 
REMARK    3  A    between atoms: N_8  and  N_9 
REMARK       I    between atoms: N_9  and  C_10 
REMARK    4  A    between atoms: C_10  and  C_12 
ROOT
ATOM      1  N   UNL d   1      25.812 -15.753  -3.145  0.00  0.00    -0.263 N 
ATOM      2  C   UNL d   1      25.531 -14.788  -4.109  0.00  0.00     0.270 C 
ATOM      3  O   UNL d   1      24.405 -14.313  -4.270  0.00  0.00    -0.266 OA
ATOM      4  H   UNL d   1      26.756 -16.069  -2.926  0.00  0.00     0.190 HD
ENDROOT
BRANCH   1   5
ATOM      5  N   UNL d   1      24.780 -16.213  -2.258  0.00  0.00    -0.264 N 
ATOM      6  C   UNL d   1      25.105 -17.106  -1.242  0.00  0.00     0.259 C 
ATOM      7  O   UNL d   1      26.258 -17.494  -1.054  0.00  0.00    -0.267 OA
ATOM      8  H   UNL d   1      23.841 -15.867  -2.448  0.00  0.00     0.190 HD
BRANCH   6   9
ATOM      9  C   UNL d   1      23.959 -17.578  -0.382  0.00  0.00     0.075 C 
ATOM     10  C   UNL d   1      22.938 -18.298  -0.895  0.00  0.00     0.005 C 
BRANCH  10  11
ATOM     11  C   UNL d   1      21.794 -18.787  -0.130  0.00  0.00    -0.004 C 
ATOM     12  C   UNL d   1      20.671 -19.290  -0.679  0.00  0.00    -0.031 C 
ATOM     13  C   UNL d   1      19.503 -19.789   0.125  0.00  0.00     0.036 C 
ENDBRANCH  10  11
ENDBRANCH   6   9
ENDBRANCH   1   5
BRANCH   2  14
ATOM     14  C   UNL d   1      26.668 -14.306  -4.968  0.00  0.00     0.033 A 
ATOM     15  C   UNL d   1      26.783 -12.961  -5.348  0.00  0.00     0.019 A 
ATOM     16  C   UNL d   1      27.868 -12.530  -6.132  0.00  0.00     0.025 A 
ATOM     17  C   UNL d   1      28.845 -13.438  -6.541  0.00  0.00     0.034 A 
ATOM     18 CL   UNL d   1      30.150 -12.908  -7.532  0.00  0.00    -0.084 Cl
ATOM     19  C   UNL d   1      28.764 -14.770  -6.146  0.00  0.00     0.025 A 
ATOM     20  C   UNL d   1      27.685 -15.200  -5.353  0.00  0.00     0.019 A 
ENDBRANCH   2  14
TORSDOF 4
ENDMDL
MODEL 3
REMARK VINA RESULT:    -6.890      1.814      2.749
REMARK INTER + INTRA:          -9.294
REMARK INTER:                  -8.083
REMARK INTRA:                  -1.211
REMARK CONF_INDEPENDENT:        1.193
REMARK UNBOUND:                -1.211
REMARK  4 active torsions:
REMARK  status: ('A' for Active; 'I' for Inactive)
REMARK    1  A    between atoms: C_3  and  C_4 
REMARK    2  A    between atoms: C_5  and  C_6 
REMARK       I    between atoms: C_6  and  N_8 
REMARK    3  A    between atoms: N_8  and  N_9 
REMARK       I    between atoms: N_9  and  C_10 
REMARK    4  A    between atoms: C_10  and  C_12 
ROOT
ATOM      1  N   UNL d   1      24.534 -17.122  -1.998  0.00  0.00    -0.263 N 
ATOM      2  C   UNL d   1      25.396 -16.060  -1.738  0.00  0.00     0.270 C 
ATOM      3  O   UNL d   1      25.384 -15.434  -0.676  0.00  0.00    -0.266 OA
ATOM      4  H   UNL d   1      24.610 -17.718  -2.821  0.00  0.00     0.190 HD
ENDROOT
BRANCH   1   5
ATOM      5  N   UNL d   1      23.602 -17.560  -0.997  0.00  0.00    -0.264 N 
ATOM      6  C   UNL d   1      22.810 -18.676  -1.247  0.00  0.00     0.259 C 
ATOM      7  O   UNL d   1      22.903 -19.325  -2.288  0.00  0.00    -0.267 OA
ATOM      8  H   UNL d   1      23.558 -16.995  -0.150  0.00  0.00     0.190 HD
BRANCH   6   9
ATOM      9  C   UNL d   1      21.824 -19.045  -0.167  0.00  0.00     0.075 C 
ATOM     10  C   UNL d   1      20.544 -19.367  -0.457  0.00  0.00     0.005 C 
BRANCH  10  11
ATOM     11  C   UNL d   1      19.531 -19.732   0.529  0.00  0.00    -0.004 C 
ATOM     12  C   UNL d   1      18.801 -20.863   0.488  0.00  0.00    -0.031 C 
ATOM     13  C   UNL d   1      17.762 -21.222   1.513  0.00  0.00     0.036 C 
ENDBRANCH  10  11
ENDBRANCH   6   9
ENDBRANCH   1   5
BRANCH   2  14
ATOM     14  C   UNL d   1      26.389 -15.687  -2.806  0.00  0.00     0.033 A 
ATOM     15  C   UNL d   1      27.768 -15.872  -2.624  0.00  0.00     0.019 A 
ATOM     16  C   UNL d   1      28.674 -15.539  -3.646  0.00  0.00     0.025 A 
ATOM     17  C   UNL d   1      28.211 -15.020  -4.855  0.00  0.00     0.034 A 
ATOM     18 CL   UNL d   1      29.331 -14.579  -6.087  0.00  0.00    -0.084 Cl
ATOM     19  C   UNL d   1      26.844 -14.860  -5.065  0.00  0.00     0.025 A 
ATOM     20  C   UNL d   1      25.936 -15.203  -4.047  0.00  0.00     0.019 A 
ENDBRANCH   2  14
TORSDOF 4
ENDMDL
MODEL 4
REMARK VINA RESULT:    -6.853      4.791      9.234
REMARK INTER + INTRA:          -9.065
REMARK INTER:                  -8.046
REMARK INTRA:                  -1.019
REMARK CONF_INDEPENDENT:        1.193
REMARK UNBOUND:                -1.019
REMARK  4 active torsions:
REMARK  status: ('A' for Active; 'I' for Inactive)
REMARK    1  A    between atoms: C_3  and  C_4 
REMARK    2  A    between atoms: C_5  and  C_6 
REMARK       I    between atoms: C_6  and  N_8 
REMARK    3  A    between atoms: N_8  and  N_9 
REMARK       I    between atoms: N_9  and  C_10 
REMARK    4  A    between atoms: C_10  and  C_12 
ROOT
ATOM      1  N   UNL d   1      23.542 -18.459  -0.211  0.00  0.00    -0.263 N 
ATOM      2  C   UNL d   1      22.242 -17.995  -0.394  0.00  0.00     0.270 C 
ATOM      3  O   UNL d   1      21.989 -16.899  -0.897  0.00  0.00    -0.266 OA
ATOM      4  H   UNL d   1      23.762 -19.406   0.097  0.00  0.00     0.190 HD
ENDROOT
BRANCH   1   5
ATOM      5  N   UNL d   1      24.661 -17.671  -0.647  0.00  0.00    -0.264 N 
ATOM      6  C   UNL d   1      25.877 -17.790   0.018  0.00  0.00     0.259 C 
ATOM      7  O   UNL d   1      26.039 -18.575   0.951  0.00  0.00    -0.267 OA
ATOM      8  H   UNL d   1      24.484 -17.037  -1.424  0.00  0.00     0.190 HD
BRANCH   6   9
ATOM      9  C   UNL d   1      26.990 -16.897  -0.471  0.00  0.00     0.075 C 
ATOM     10  C   UNL d   1      26.885 -16.202  -1.625  0.00  0.00     0.005 C 
BRANCH  10  11
ATOM     11  C   UNL d   1      27.917 -15.321  -2.165  0.00  0.00    -0.004 C 
ATOM     12  C   UNL d   1      28.300 -15.302  -3.456  0.00  0.00    -0.031 C 
ATOM     13  C   UNL d   1      29.365 -14.387  -3.995  0.00  0.00     0.036 C 
ENDBRANCH  10  11
ENDBRANCH   6   9
ENDBRANCH   1   5
BRANCH   2  14
ATOM     14  C   UNL d   1      21.112 -18.894   0.032  0.00  0.00     0.033 A 
ATOM     15  C   UNL d   1      20.977 -19.325   1.360  0.00  0.00     0.019 A 
ATOM     16  C   UNL d   1      19.899 -20.144   1.738  0.00  0.00     0.025 A 
ATOM     17  C   UNL d   1      18.950 -20.539   0.796  0.00  0.00     0.034 A 
ATOM     18 CL   UNL d   1      17.655 -21.575   1.260  0.00  0.00    -0.084 Cl
ATOM     19  C   UNL d   1      19.051 -20.094  -0.520  0.00  0.00     0.025 A 
ATOM     20  C   UNL d   1      20.122 -19.265  -0.897  0.00  0.00     0.019 A 
ENDBRANCH   2  14
TORSDOF 4
ENDMDL
MODEL 5
REMARK VINA RESULT:    -6.618      3.777      4.738
REMARK INTER + INTRA:          -9.051
REMARK INTER:                  -7.812
REMARK INTRA:                  -1.240
REMARK CONF_INDEPENDENT:        1.193
REMARK UNBOUND:                -1.240
REMARK  4 active torsions:
REMARK  status: ('A' for Active; 'I' for Inactive)
REMARK    1  A    between atoms: C_3  and  C_4 
REMARK    2  A    between atoms: C_5  and  C_6 
REMARK       I    between atoms: C_6  and  N_8 
REMARK    3  A    between atoms: N_8  and  N_9 
REMARK       I    between atoms: N_9  and  C_10 
REMARK    4  A    between atoms: C_10  and  C_12 
ROOT
ATOM      1  N   UNL d   1      24.618 -17.475  -0.316  0.00  0.00    -0.263 N 
ATOM      2  C   UNL d   1      25.949 -17.836  -0.124  0.00  0.00     0.270 C 
ATOM      3  O   UNL d   1      26.286 -18.950   0.281  0.00  0.00    -0.266 OA
ATOM      4  H   UNL d   1      24.331 -16.601  -0.756  0.00  0.00     0.190 HD
ENDROOT
BRANCH   1   5
ATOM      5  N   UNL d   1      23.567 -18.426  -0.079  0.00  0.00    -0.264 N 
ATOM      6  C   UNL d   1      22.256 -18.082  -0.390  0.00  0.00     0.259 C 
ATOM      7  O   UNL d   1      21.965 -16.998  -0.894  0.00  0.00    -0.267 OA
ATOM      8  H   UNL d   1      23.852 -19.310   0.338  0.00  0.00     0.190 HD
BRANCH   6   9
ATOM      9  C   UNL d   1      21.205 -19.115  -0.070  0.00  0.00     0.075 C 
ATOM     10  C   UNL d   1      20.000 -19.114  -0.683  0.00  0.00     0.005 C 
BRANCH  10  11
ATOM     11  C   UNL d   1      18.932 -20.075  -0.427  0.00  0.00    -0.004 C 
ATOM     12  C   UNL d   1      18.762 -20.731   0.737  0.00  0.00    -0.031 C 
ATOM     13  C   UNL d   1      17.655 -21.718   0.983  0.00  0.00     0.036 C 
ENDBRANCH  10  11
ENDBRANCH   6   9
ENDBRANCH   1   5
BRANCH   2  14
ATOM     14  C   UNL d   1      27.005 -16.813  -0.445  0.00  0.00     0.033 A 
ATOM     15  C   UNL d   1      26.684 -15.461  -0.633  0.00  0.00     0.019 A 
ATOM     16  C   UNL d   1      27.692 -14.520  -0.909  0.00  0.00     0.025 A 
ATOM     17  C   UNL d   1      29.024 -14.921  -1.000  0.00  0.00     0.034 A 
ATOM     18 CL   UNL d   1      30.247 -13.768  -1.377  0.00  0.00    -0.084 Cl
ATOM     19  C   UNL d   1      29.364 -16.255  -0.785  0.00  0.00     0.025 A 
ATOM     20  C   UNL d   1      28.358 -17.194  -0.497  0.00  0.00     0.019 A 
ENDBRANCH   2  14
TORSDOF 4
ENDMDL
MODEL 6
REMARK VINA RESULT:    -6.361      2.081      3.137
REMARK INTER + INTRA:          -8.753
REMARK INTER:                  -7.554
REMARK INTRA:                  -1.199
REMARK CONF_INDEPENDENT:        1.193
REMARK UNBOUND:                -1.199
REMARK  4 active torsions:
REMARK  status: ('A' for Active; 'I' for Inactive)
REMARK    1  A    between atoms: C_3  and  C_4 
REMARK    2  A    between atoms: C_5  and  C_6 
REMARK       I    between atoms: C_6  and  N_8 
REMARK    3  A    between atoms: N_8  and  N_9 
REMARK       I    between atoms: N_9  and  C_10 
REMARK    4  A    between atoms: C_10  and  C_12 
ROOT
ATOM      1  N   UNL d   1      24.069 -16.426  -1.611  0.00  0.00    -0.263 N 
ATOM      2  C   UNL d   1      25.425 -16.391  -1.928  0.00  0.00     0.270 C 
ATOM      3  O   UNL d   1      26.201 -17.306  -1.645  0.00  0.00    -0.266 OA
ATOM      4  H   UNL d   1      23.399 -15.732  -1.938  0.00  0.00     0.190 HD
ENDROOT
BRANCH   1   5
ATOM      5  N   UNL d   1      23.507 -17.575  -0.959  0.00  0.00    -0.264 N 
ATOM      6  C   UNL d   1      22.157 -17.575  -0.624  0.00  0.00     0.259 C 
ATOM      7  O   UNL d   1      21.415 -16.632  -0.898  0.00  0.00    -0.267 OA
ATOM      8  H   UNL d   1      24.156 -18.333  -0.752  0.00  0.00     0.190 HD
BRANCH   6   9
ATOM      9  C   UNL d   1      21.652 -18.799   0.099  0.00  0.00     0.075 C 
ATOM     10  C   UNL d   1      20.458 -19.356  -0.202  0.00  0.00     0.005 C 
BRANCH  10  11
ATOM     11  C   UNL d   1      19.899 -20.535   0.452  0.00  0.00    -0.004 C 
ATOM     12  C   UNL d   1      18.585 -20.728   0.679  0.00  0.00    -0.031 C 
ATOM     13  C   UNL d   1      18.028 -21.950   1.355  0.00  0.00     0.036 C 
ENDBRANCH  10  11
ENDBRANCH   6   9
ENDBRANCH   1   5
BRANCH   2  14
ATOM     14  C   UNL d   1      25.941 -15.183  -2.663  0.00  0.00     0.033 A 
ATOM     15  C   UNL d   1      26.150 -15.201  -4.050  0.00  0.00     0.019 A 
ATOM     16  C   UNL d   1      26.609 -14.052  -4.717  0.00  0.00     0.025 A 
ATOM     17  C   UNL d   1      26.862 -12.879  -4.007  0.00  0.00     0.034 A 
ATOM     18 CL   UNL d   1      27.462 -11.488  -4.827  0.00  0.00    -0.084 Cl
ATOM     19  C   UNL d   1      26.630 -12.834  -2.635  0.00  0.00     0.025 A 
ATOM     20  C   UNL d   1      26.159 -13.979  -1.968  0.00  0.00     0.019 A 
ENDBRANCH   2  14
TORSDOF 4
ENDMDL
MODEL 7
REMARK VINA RESULT:    -6.243      3.576      8.766
REMARK INTER + INTRA:          -8.632
REMARK INTER:                  -7.436
REMARK INTRA:                  -1.195
REMARK CONF_INDEPENDENT:        1.193
REMARK UNBOUND:                -1.195
REMARK  4 active torsions:
REMARK  status: ('A' for Active; 'I' for Inactive)
REMARK    1  A    between atoms: C_3  and  C_4 
REMARK    2  A    between atoms: C_5  and  C_6 
REMARK       I    between atoms: C_6  and  N_8 
REMARK    3  A    between atoms: N_8  and  N_9 
REMARK       I    between atoms: N_9  and  C_10 
REMARK    4  A    between atoms: C_10  and  C_12 
ROOT
ATOM      1  N   UNL d   1      25.856 -15.944  -3.025  0.00  0.00    -0.263 N 
ATOM      2  C   UNL d   1      25.705 -16.086  -1.648  0.00  0.00     0.270 C 
ATOM      3  O   UNL d   1      26.466 -15.559  -0.835  0.00  0.00    -0.266 OA
ATOM      4  H   UNL d   1      25.172 -16.277  -3.702  0.00  0.00     0.190 HD
ENDROOT
BRANCH   1   5
ATOM      5  N   UNL d   1      26.911 -15.126  -3.557  0.00  0.00    -0.264 N 
ATOM      6  C   UNL d   1      27.054 -15.014  -4.936  0.00  0.00     0.259 C 
ATOM      7  O   UNL d   1      26.285 -15.566  -5.722  0.00  0.00    -0.267 OA
ATOM      8  H   UNL d   1      27.523 -14.686  -2.873  0.00  0.00     0.190 HD
BRANCH   6   9
ATOM      9  C   UNL d   1      28.212 -14.175  -5.417  0.00  0.00     0.075 C 
ATOM     10  C   UNL d   1      28.542 -14.107  -6.726  0.00  0.00     0.005 C 
BRANCH  10  11
ATOM     11  C   UNL d   1      29.647 -13.323  -7.269  0.00  0.00    -0.004 C 
ATOM     12  C   UNL d   1      29.552 -12.518  -8.345  0.00  0.00    -0.031 C 
ATOM     13  C   UNL d   1      30.702 -11.717  -8.889  0.00  0.00     0.036 C 
ENDBRANCH  10  11
ENDBRANCH   6   9
ENDBRANCH   1   5
BRANCH   2  14
ATOM     14  C   UNL d   1      24.545 -16.908  -1.153  0.00  0.00     0.033 A 
ATOM     15  C   UNL d   1      24.728 -18.200  -0.638  0.00  0.00     0.019 A 
ATOM     16  C   UNL d   1      23.631 -18.939  -0.160  0.00  0.00     0.025 A 
ATOM     17  C   UNL d   1      22.348 -18.395  -0.192  0.00  0.00     0.034 A 
ATOM     18 CL   UNL d   1      21.006 -19.323   0.360  0.00  0.00    -0.084 Cl
ATOM     19  C   UNL d   1      22.153 -17.102  -0.671  0.00  0.00     0.025 A 
ATOM     20  C   UNL d   1      23.250 -16.358  -1.139  0.00  0.00     0.019 A 
ENDBRANCH   2  14
TORSDOF 4
ENDMDL
MODEL 8
REMARK VINA RESULT:    -6.131      4.583      8.211
REMARK INTER + INTRA:          -8.548
REMARK INTER:                  -7.325
REMARK INTRA:                  -1.224
REMARK CONF_INDEPENDENT:        1.193
REMARK UNBOUND:                -1.224
REMARK  4 active torsions:
REMARK  status: ('A' for Active; 'I' for Inactive)
REMARK    1  A    between atoms: C_3  and  C_4 
REMARK    2  A    between atoms: C_5  and  C_6 
REMARK       I    between atoms: C_6  and  N_8 
REMARK    3  A    between atoms: N_8  and  N_9 
REMARK       I    between atoms: N_9  and  C_10 
REMARK    4  A    between atoms: C_10  and  C_12 
ROOT
ATOM      1  N   UNL d   1      25.668 -12.901  -3.092  0.00  0.00    -0.263 N 
ATOM      2  C   UNL d   1      25.171 -14.180  -3.329  0.00  0.00     0.270 C 
ATOM      3  O   UNL d   1      24.455 -14.450  -4.294  0.00  0.00    -0.266 OA
ATOM      4  H   UNL d   1      26.351 -12.689  -2.366  0.00  0.00     0.190 HD
ENDROOT
BRANCH   1   5
ATOM      5  N   UNL d   1      25.386 -11.833  -4.011  0.00  0.00    -0.264 N 
ATOM      6  C   UNL d   1      25.947 -10.580  -3.789  0.00  0.00     0.259 C 
ATOM      7  O   UNL d   1      26.708 -10.359  -2.847  0.00  0.00    -0.267 OA
ATOM      8  H   UNL d   1      24.754 -12.058  -4.777  0.00  0.00     0.190 HD
BRANCH   6   9
ATOM      9  C   UNL d   1      25.568  -9.499  -4.771  0.00  0.00     0.075 C 
ATOM     10  C   UNL d   1      24.418  -8.801  -4.646  0.00  0.00     0.005 C 
BRANCH  10  11
ATOM     11  C   UNL d   1      23.979  -7.745  -5.554  0.00  0.00    -0.004 C 
ATOM     12  C   UNL d   1      22.781  -7.134  -5.488  0.00  0.00    -0.031 C 
ATOM     13  C   UNL d   1      22.347  -6.048  -6.432  0.00  0.00     0.036 C 
ENDBRANCH  10  11
ENDBRANCH   6   9
ENDBRANCH   1   5
BRANCH   2  14
ATOM     14  C   UNL d   1      25.550 -15.268  -2.360  0.00  0.00     0.033 A 
ATOM     15  C   UNL d   1      26.891 -15.571  -2.085  0.00  0.00     0.019 A 
ATOM     16  C   UNL d   1      27.220 -16.576  -1.158  0.00  0.00     0.025 A 
ATOM     17  C   UNL d   1      26.215 -17.283  -0.500  0.00  0.00     0.034 A 
ATOM     18 CL   UNL d   1      26.627 -18.539   0.605  0.00  0.00    -0.084 Cl
ATOM     19  C   UNL d   1      24.878 -16.973  -0.737  0.00  0.00     0.025 A 
ATOM     20  C   UNL d   1      24.548 -15.961  -1.655  0.00  0.00     0.019 A 
ENDBRANCH   2  14
TORSDOF 4
ENDMDL
MODEL 9
REMARK VINA RESULT:    -6.075      1.744      2.053
REMARK INTER + INTRA:          -8.499
REMARK INTER:                  -7.268
REMARK INTRA:                  -1.231
REMARK CONF_INDEPENDENT:        1.193
REMARK UNBOUND:                -1.231
REMARK  4 active torsions:
REMARK  status: ('A' for Active; 'I' for Inactive)
REMARK    1  A    between atoms: C_3  and  C_4 
REMARK    2  A    between atoms: C_5  and  C_6 
REMARK       I    between atoms: C_6  and  N_8 
REMARK    3  A    between atoms: N_8  and  N_9 
REMARK       I    between atoms: N_9  and  C_10 
REMARK    4  A    between atoms: C_10  and  C_12 
ROOT
ATOM      1  N   UNL d   1      25.623 -14.887  -2.367  0.00  0.00    -0.263 N 
ATOM      2  C   UNL d   1      25.336 -14.160  -3.520  0.00  0.00     0.270 C 
ATOM      3  O   UNL d   1      24.409 -14.449  -4.278  0.00  0.00    -0.266 OA
ATOM      4  H   UNL d   1      26.311 -14.593  -1.675  0.00  0.00     0.190 HD
ENDROOT
BRANCH   1   5
ATOM      5  N   UNL d   1      24.803 -16.006  -1.994  0.00  0.00    -0.264 N 
ATOM      6  C   UNL d   1      25.126 -16.735  -0.854  0.00  0.00     0.259 C 
ATOM      7  O   UNL d   1      26.075 -16.434  -0.131  0.00  0.00    -0.267 OA
ATOM      8  H   UNL d   1      24.028 -16.220  -2.619  0.00  0.00     0.190 HD
BRANCH   6   9
ATOM      9  C   UNL d   1      24.245 -17.922  -0.554  0.00  0.00     0.075 C 
ATOM     10  C   UNL d   1      22.901 -17.855  -0.675  0.00  0.00     0.005 C 
BRANCH  10  11
ATOM     11  C   UNL d   1      21.982 -18.956  -0.400  0.00  0.00    -0.004 C 
ATOM     12  C   UNL d   1      20.666 -18.937  -0.686  0.00  0.00    -0.031 C 
ATOM     13  C   UNL d   1      19.735 -20.081  -0.396  0.00  0.00     0.036 C 
ENDBRANCH  10  11
ENDBRANCH   6   9
ENDBRANCH   1   5
BRANCH   2  14
ATOM     14  C   UNL d   1      26.197 -12.963  -3.824  0.00  0.00     0.033 A 
ATOM     15  C   UNL d   1      27.440 -13.095  -4.460  0.00  0.00     0.019 A 
ATOM     16  C   UNL d   1      28.215 -11.960  -4.755  0.00  0.00     0.025 A 
ATOM     17  C   UNL d   1      27.756 -10.687  -4.418  0.00  0.00     0.034 A 
ATOM     18 CL   UNL d   1      28.730  -9.305  -4.748  0.00  0.00    -0.084 Cl
ATOM     19  C   UNL d   1      26.511 -10.535  -3.814  0.00  0.00     0.025 A 
ATOM     20  C   UNL d   1      25.729 -11.669  -3.529  0.00  0.00     0.019 A 
ENDBRANCH   2  14
TORSDOF 4
ENDMDL
