MODEL 1
REMARK VINA RESULT:    -7.218      0.000      0.000
REMARK INTER + INTRA:         -10.774
REMARK INTER:                  -9.604
REMARK INTRA:                  -1.170
REMARK CONF_INDEPENDENT:        2.386
REMARK UNBOUND:                -1.170
REMARK  8 active torsions:
REMARK  status: ('A' for Active; 'I' for Inactive)
REMARK    1  A    between atoms: C_5  and  O_6 
REMARK    2  A    between atoms: O_6  and  C_7 
REMARK    3  A    between atoms: C_7  and  C_8 
REMARK       I    between atoms: C_8  and  N_10 
REMARK    4  A    between atoms: N_10  and  N_11 
REMARK    5  A    between atoms: N_11  and  C_12 
REMARK    6  A    between atoms: C_12  and  N_14 
REMARK       I    between atoms: N_14  and  C_15 
REMARK    7  A    between atoms: C_15  and  C_17 
REMARK    8  A    between atoms: C_17  and  C_18 
ROOT
ATOM      1  C   UNL d   1      23.928 -17.756  -0.117  0.00  0.00     0.260 C 
ATOM      2  O   UNL d   1      24.065 -18.846   0.447  0.00  0.00    -0.269 OA
ATOM      3  N   UNL d   1      25.029 -16.945  -0.363  0.00  0.00    -0.266 N 
ATOM      4  H   UNL d   1      24.970 -16.037  -0.828  0.00  0.00     0.190 HD
ENDROOT
BRANCH   3   5
ATOM      5  N   UNL d   1      26.375 -17.349   0.033  0.00  0.00    -0.273 N 
ATOM      6  H   UNL d   1      26.423 -18.235   0.536  0.00  0.00     0.189 HD
BRANCH   5   7
ATOM      7  C   UNL d   1      27.457 -16.524  -0.311  0.00  0.00     0.193 C 
ATOM      8  S   UNL d   1      27.795 -16.283  -1.954  0.00  0.00    -0.039 SA
BRANCH   7   9
ATOM      9  N   UNL d   1      28.177 -15.957   0.772  0.00  0.00    -0.303 N 
ATOM     10  C   UNL d   1      27.777 -14.821   1.491  0.00  0.00     0.224 C 
ATOM     11  O   UNL d   1      26.807 -14.137   1.149  0.00  0.00    -0.273 OA
ATOM     12  H   UNL d   1      29.050 -16.389   1.044  0.00  0.00     0.171 HD
BRANCH  10  13
ATOM     13  C   UNL d   1      28.586 -14.351   2.715  0.00  0.00     0.107 C 
BRANCH  13  14
ATOM     14  C   UNL d   1      27.620 -13.970   3.891  0.00  0.00    -0.014 C 
ATOM     15  C   UNL d   1      27.815 -14.876   5.118  0.00  0.00     0.010 C 
ATOM     16  C   UNL d   1      27.780 -12.517   4.347  0.00  0.00     0.010 C 
ENDBRANCH  13  14
ENDBRANCH  10  13
ENDBRANCH   7   9
ENDBRANCH   5   7
ENDBRANCH   3   5
BRANCH   1  17
ATOM     17  C   UNL d   1      22.550 -17.199  -0.593  0.00  0.00     0.280 C 
BRANCH  17  18
ATOM     18  O   UNL d   1      21.771 -18.213  -1.246  0.00  0.00    -0.342 OA
BRANCH  18  19
ATOM     19  C   UNL d   1      20.871 -18.941  -0.509  0.00  0.00     0.069 A 
ATOM     20  C   UNL d   1      19.697 -19.327  -1.175  0.00  0.00     0.037 A 
ATOM     21  C   UNL d   1      18.709 -20.086  -0.527  0.00  0.00     0.009 A 
ATOM     22  C   UNL d   1      18.879 -20.474   0.804  0.00  0.00    -0.062 A 
ATOM     23  C   UNL d   1      17.853 -21.304   1.521  0.00  0.00     0.048 C 
ATOM     24  C   UNL d   1      20.045 -20.081   1.470  0.00  0.00     0.009 A 
ATOM     25  C   UNL d   1      21.030 -19.321   0.822  0.00  0.00     0.037 A 
ENDBRANCH  18  19
ENDBRANCH  17  18
ENDBRANCH   1  17
TORSDOF 8
ENDMDL
MODEL 2
REMARK VINA RESULT:    -7.140      2.061      8.260
REMARK INTER + INTRA:         -11.633
REMARK INTER:                  -9.526
REMARK INTRA:                  -2.107
REMARK CONF_INDEPENDENT:        2.386
REMARK UNBOUND:                -2.107
REMARK  8 active torsions:
REMARK  status: ('A' for Active; 'I' for Inactive)
REMARK    1  A    between atoms: C_5  and  O_6 
REMARK    2  A    between atoms: O_6  and  C_7 
REMARK    3  A    between atoms: C_7  and  C_8 
REMARK       I    between atoms: C_8  and  N_10 
REMARK    4  A    between atoms: N_10  and  N_11 
REMARK    5  A    between atoms: N_11  and  C_12 
REMARK    6  A    between atoms: C_12  and  N_14 
REMARK       I    between atoms: N_14  and  C_15 
REMARK    7  A    between atoms: C_15  and  C_17 
REMARK    8  A    between atoms: C_17  and  C_18 
ROOT
ATOM      1  C   UNL d   1      25.193 -15.985  -2.174  0.00  0.00     0.260 C 
ATOM      2  O   UNL d   1      25.162 -16.898  -3.005  0.00  0.00    -0.269 OA
ATOM      3  N   UNL d   1      24.276 -15.947  -1.131  0.00  0.00    -0.266 N 
ATOM      4  H   UNL d   1      24.260 -15.216  -0.419  0.00  0.00     0.190 HD
ENDROOT
BRANCH   3   5
ATOM      5  N   UNL d   1      23.251 -16.978  -0.982  0.00  0.00    -0.273 N 
ATOM      6  H   UNL d   1      22.348 -16.743  -1.393  0.00  0.00     0.189 HD
BRANCH   5   7
ATOM      7  C   UNL d   1      23.585 -18.172  -0.323  0.00  0.00     0.193 C 
ATOM      8  S   UNL d   1      25.167 -18.357   0.255  0.00  0.00    -0.039 SA
BRANCH   7   9
ATOM      9  N   UNL d   1      22.542 -19.126  -0.198  0.00  0.00    -0.303 N 
ATOM     10  C   UNL d   1      21.217 -18.922  -0.608  0.00  0.00     0.224 C 
ATOM     11  O   UNL d   1      20.816 -17.824  -1.008  0.00  0.00    -0.273 OA
ATOM     12  H   UNL d   1      22.759 -20.017   0.229  0.00  0.00     0.171 HD
BRANCH  10  13
ATOM     13  C   UNL d   1      20.190 -20.067  -0.516  0.00  0.00     0.107 C 
BRANCH  13  14
ATOM     14  C   UNL d   1      19.319 -19.912   0.780  0.00  0.00    -0.014 C 
ATOM     15  C   UNL d   1      18.399 -21.123   1.008  0.00  0.00     0.010 C 
ATOM     16  C   UNL d   1      20.161 -19.714   2.043  0.00  0.00     0.010 C 
ENDBRANCH  13  14
ENDBRANCH  10  13
ENDBRANCH   7   9
ENDBRANCH   5   7
ENDBRANCH   3   5
BRANCH   1  17
ATOM     17  C   UNL d   1      26.231 -14.820  -2.212  0.00  0.00     0.280 C 
BRANCH  17  18
ATOM     18  O   UNL d   1      25.981 -13.859  -1.175  0.00  0.00    -0.342 OA
BRANCH  18  19
ATOM     19  C   UNL d   1      26.618 -13.999   0.033  0.00  0.00     0.069 A 
ATOM     20  C   UNL d   1      26.718 -12.839   0.815  0.00  0.00     0.037 A 
ATOM     21  C   UNL d   1      27.337 -12.863   2.075  0.00  0.00     0.009 A 
ATOM     22  C   UNL d   1      27.871 -14.052   2.576  0.00  0.00    -0.062 A 
ATOM     23  C   UNL d   1      28.521 -14.118   3.928  0.00  0.00     0.048 C 
ATOM     24  C   UNL d   1      27.781 -15.206   1.790  0.00  0.00     0.009 A 
ATOM     25  C   UNL d   1      27.163 -15.181   0.531  0.00  0.00     0.037 A 
ENDBRANCH  18  19
ENDBRANCH  17  18
ENDBRANCH   1  17
TORSDOF 8
ENDMDL
MODEL 3
REMARK VINA RESULT:    -6.846      4.803      6.567
REMARK INTER + INTRA:         -10.861
REMARK INTER:                  -9.233
REMARK INTRA:                  -1.629
REMARK CONF_INDEPENDENT:        2.386
REMARK UNBOUND:                -1.629
REMARK  8 active torsions:
REMARK  status: ('A' for Active; 'I' for Inactive)
REMARK    1  A    between atoms: C_5  and  O_6 
REMARK    2  A    between atoms: O_6  and  C_7 
REMARK    3  A    between atoms: C_7  and  C_8 
REMARK       I    between atoms: C_8  and  N_10 
REMARK    4  A    between atoms: N_10  and  N_11 
REMARK    5  A    between atoms: N_11  and  C_12 
REMARK    6  A    between atoms: C_12  and  N_14 
REMARK       I    between atoms: N_14  and  C_15 
REMARK    7  A    between atoms: C_15  and  C_17 
REMARK    8  A    between atoms: C_17  and  C_18 
ROOT
ATOM      1  C   UNL d   1      25.407 -14.711  -3.220  0.00  0.00     0.260 C 
ATOM      2  O   UNL d   1      24.203 -14.445  -3.155  0.00  0.00    -0.269 OA
ATOM      3  N   UNL d   1      26.252 -13.967  -4.034  0.00  0.00    -0.266 N 
ATOM      4  H   UNL d   1      27.253 -14.145  -4.122  0.00  0.00     0.190 HD
ENDROOT
BRANCH   3   5
ATOM      5  N   UNL d   1      25.750 -12.852  -4.834  0.00  0.00    -0.273 N 
ATOM      6  H   UNL d   1      24.786 -12.586  -4.635  0.00  0.00     0.189 HD
BRANCH   5   7
ATOM      7  C   UNL d   1      26.608 -12.250  -5.767  0.00  0.00     0.193 C 
ATOM      8  S   UNL d   1      26.073 -10.858  -6.572  0.00  0.00    -0.039 SA
BRANCH   7   9
ATOM      9  N   UNL d   1      27.869 -12.874  -5.946  0.00  0.00    -0.303 N 
ATOM     10  C   UNL d   1      28.058 -14.242  -6.191  0.00  0.00     0.224 C 
ATOM     11  O   UNL d   1      27.125 -15.051  -6.145  0.00  0.00    -0.273 OA
ATOM     12  H   UNL d   1      28.700 -12.301  -5.882  0.00  0.00     0.171 HD
BRANCH  10  13
ATOM     13  C   UNL d   1      29.468 -14.795  -6.470  0.00  0.00     0.107 C 
BRANCH  13  14
ATOM     14  C   UNL d   1      29.962 -15.662  -5.259  0.00  0.00    -0.014 C 
ATOM     15  C   UNL d   1      28.956 -15.658  -4.095  0.00  0.00     0.010 C 
ATOM     16  C   UNL d   1      30.234 -17.119  -5.641  0.00  0.00     0.010 C 
ENDBRANCH  13  14
ENDBRANCH  10  13
ENDBRANCH   7   9
ENDBRANCH   5   7
ENDBRANCH   3   5
BRANCH   1  17
ATOM     17  C   UNL d   1      26.077 -15.873  -2.422  0.00  0.00     0.280 C 
BRANCH  17  18
ATOM     18  O   UNL d   1      25.570 -15.950  -1.081  0.00  0.00    -0.342 OA
BRANCH  18  19
ATOM     19  C   UNL d   1      24.567 -16.844  -0.797  0.00  0.00     0.069 A 
ATOM     20  C   UNL d   1      23.263 -16.326  -0.794  0.00  0.00     0.037 A 
ATOM     21  C   UNL d   1      22.155 -17.147  -0.530  0.00  0.00     0.009 A 
ATOM     22  C   UNL d   1      22.333 -18.506  -0.263  0.00  0.00    -0.062 A 
ATOM     23  C   UNL d   1      21.169 -19.417   0.002  0.00  0.00     0.048 C 
ATOM     24  C   UNL d   1      23.634 -19.020  -0.256  0.00  0.00     0.009 A 
ATOM     25  C   UNL d   1      24.741 -18.197  -0.519  0.00  0.00     0.037 A 
ENDBRANCH  18  19
ENDBRANCH  17  18
ENDBRANCH   1  17
TORSDOF 8
ENDMDL
MODEL 4
REMARK VINA RESULT:    -6.705      4.782      9.623
REMARK INTER + INTRA:         -11.197
REMARK INTER:                  -9.091
REMARK INTRA:                  -2.106
REMARK CONF_INDEPENDENT:        2.386
REMARK UNBOUND:                -2.106
REMARK  8 active torsions:
REMARK  status: ('A' for Active; 'I' for Inactive)
REMARK    1  A    between atoms: C_5  and  O_6 
REMARK    2  A    between atoms: O_6  and  C_7 
REMARK    3  A    between atoms: C_7  and  C_8 
REMARK       I    between atoms: C_8  and  N_10 
REMARK    4  A    between atoms: N_10  and  N_11 
REMARK    5  A    between atoms: N_11  and  C_12 
REMARK    6  A    between atoms: C_12  and  N_14 
REMARK       I    between atoms: N_14  and  C_15 
REMARK    7  A    between atoms: C_15  and  C_17 
REMARK    8  A    between atoms: C_17  and  C_18 
ROOT
ATOM      1  C   UNL d   1      25.332 -14.789  -3.781  0.00  0.00     0.260 C 
ATOM      2  O   UNL d   1      24.364 -14.052  -3.570  0.00  0.00    -0.269 OA
ATOM      3  N   UNL d   1      25.541 -15.921  -3.003  0.00  0.00    -0.266 N 
ATOM      4  H   UNL d   1      26.324 -16.563  -3.137  0.00  0.00     0.190 HD
ENDROOT
BRANCH   3   5
ATOM      5  N   UNL d   1      24.630 -16.276  -1.918  0.00  0.00    -0.273 N 
ATOM      6  H   UNL d   1      23.763 -15.741  -1.897  0.00  0.00     0.189 HD
BRANCH   5   7
ATOM      7  C   UNL d   1      25.002 -17.300  -1.031  0.00  0.00     0.193 C 
ATOM      8  S   UNL d   1      26.521 -17.206  -0.286  0.00  0.00    -0.039 SA
BRANCH   7   9
ATOM      9  N   UNL d   1      24.049 -18.332  -0.838  0.00  0.00    -0.303 N 
ATOM     10  C   UNL d   1      22.659 -18.151  -0.844  0.00  0.00     0.224 C 
ATOM     11  O   UNL d   1      22.145 -17.028  -0.897  0.00  0.00    -0.273 OA
ATOM     12  H   UNL d   1      24.389 -19.271  -0.670  0.00  0.00     0.171 HD
BRANCH  10  13
ATOM     13  C   UNL d   1      21.716 -19.363  -0.723  0.00  0.00     0.107 C 
BRANCH  13  14
ATOM     14  C   UNL d   1      20.395 -18.951   0.017  0.00  0.00    -0.014 C 
ATOM     15  C   UNL d   1      19.149 -19.584  -0.625  0.00  0.00     0.010 C 
ATOM     16  C   UNL d   1      20.402 -19.327   1.502  0.00  0.00     0.010 C 
ENDBRANCH  13  14
ENDBRANCH  10  13
ENDBRANCH   7   9
ENDBRANCH   5   7
ENDBRANCH   3   5
BRANCH   1  17
ATOM     17  C   UNL d   1      26.384 -14.530  -4.905  0.00  0.00     0.280 C 
BRANCH  17  18
ATOM     18  O   UNL d   1      27.370 -15.572  -4.951  0.00  0.00    -0.342 OA
BRANCH  18  19
ATOM     19  C   UNL d   1      28.533 -15.360  -5.649  0.00  0.00     0.069 A 
ATOM     20  C   UNL d   1      28.562 -14.220  -6.466  0.00  0.00     0.037 A 
ATOM     21  C   UNL d   1      29.703 -13.892  -7.217  0.00  0.00     0.009 A 
ATOM     22  C   UNL d   1      30.839 -14.703  -7.165  0.00  0.00    -0.062 A 
ATOM     23  C   UNL d   1      32.082 -14.371  -7.938  0.00  0.00     0.048 C 
ATOM     24  C   UNL d   1      30.805 -15.846  -6.358  0.00  0.00     0.009 A 
ATOM     25  C   UNL d   1      29.664 -16.173  -5.609  0.00  0.00     0.037 A 
ENDBRANCH  18  19
ENDBRANCH  17  18
ENDBRANCH   1  17
TORSDOF 8
ENDMDL
MODEL 5
REMARK VINA RESULT:    -6.650      3.194      8.391
REMARK INTER + INTRA:         -11.144
REMARK INTER:                  -9.037
REMARK INTRA:                  -2.107
REMARK CONF_INDEPENDENT:        2.386
REMARK UNBOUND:                -2.107
REMARK  8 active torsions:
REMARK  status: ('A' for Active; 'I' for Inactive)
REMARK    1  A    between atoms: C_5  and  O_6 
REMARK    2  A    between atoms: O_6  and  C_7 
REMARK    3  A    between atoms: C_7  and  C_8 
REMARK       I    between atoms: C_8  and  N_10 
REMARK    4  A    between atoms: N_10  and  N_11 
REMARK    5  A    between atoms: N_11  and  C_12 
REMARK    6  A    between atoms: C_12  and  N_14 
REMARK       I    between atoms: N_14  and  C_15 
REMARK    7  A    between atoms: C_15  and  C_17 
REMARK    8  A    between atoms: C_17  and  C_18 
ROOT
ATOM      1  C   UNL d   1      25.347 -17.990   0.104  0.00  0.00     0.260 C 
ATOM      2  O   UNL d   1      24.976 -18.332   1.231  0.00  0.00    -0.269 OA
ATOM      3  N   UNL d   1      24.484 -18.078  -0.981  0.00  0.00    -0.266 N 
ATOM      4  H   UNL d   1      24.741 -17.807  -1.931  0.00  0.00     0.190 HD
ENDROOT
BRANCH   3   5
ATOM      5  N   UNL d   1      23.119 -18.576  -0.828  0.00  0.00    -0.273 N 
ATOM      6  H   UNL d   1      23.047 -19.580  -0.668  0.00  0.00     0.189 HD
BRANCH   5   7
ATOM      7  C   UNL d   1      22.055 -17.661  -0.896  0.00  0.00     0.193 C 
ATOM      8  S   UNL d   1      22.414 -16.006  -0.869  0.00  0.00    -0.039 SA
BRANCH   7   9
ATOM      9  N   UNL d   1      20.756 -18.224  -0.985  0.00  0.00    -0.303 N 
ATOM     10  C   UNL d   1      20.380 -19.461  -0.444  0.00  0.00     0.224 C 
ATOM     11  O   UNL d   1      21.202 -20.234   0.060  0.00  0.00    -0.273 OA
ATOM     12  H   UNL d   1      20.045 -17.706  -1.486  0.00  0.00     0.171 HD
BRANCH  10  13
ATOM     13  C   UNL d   1      18.913 -19.928  -0.515  0.00  0.00     0.107 C 
BRANCH  13  14
ATOM     14  C   UNL d   1      18.404 -20.338   0.911  0.00  0.00    -0.014 C 
ATOM     15  C   UNL d   1      18.056 -21.834   0.994  0.00  0.00     0.010 C 
ATOM     16  C   UNL d   1      19.416 -20.028   2.017  0.00  0.00     0.010 C 
ENDBRANCH  13  14
ENDBRANCH  10  13
ENDBRANCH   7   9
ENDBRANCH   5   7
ENDBRANCH   3   5
BRANCH   1  17
ATOM     17  C   UNL d   1      26.776 -17.442  -0.203  0.00  0.00     0.280 C 
BRANCH  17  18
ATOM     18  O   UNL d   1      26.946 -17.177  -1.604  0.00  0.00    -0.342 OA
BRANCH  18  19
ATOM     19  C   UNL d   1      26.554 -15.961  -2.106  0.00  0.00     0.069 A 
ATOM     20  C   UNL d   1      26.947 -14.834  -1.369  0.00  0.00     0.037 A 
ATOM     21  C   UNL d   1      26.615 -13.536  -1.792  0.00  0.00     0.009 A 
ATOM     22  C   UNL d   1      25.880 -13.343  -2.963  0.00  0.00    -0.062 A 
ATOM     23  C   UNL d   1      25.526 -11.970  -3.455  0.00  0.00     0.048 C 
ATOM     24  C   UNL d   1      25.479 -14.468  -3.692  0.00  0.00     0.009 A 
ATOM     25  C   UNL d   1      25.810 -15.764  -3.268  0.00  0.00     0.037 A 
ENDBRANCH  18  19
ENDBRANCH  17  18
ENDBRANCH   1  17
TORSDOF 8
ENDMDL
MODEL 6
REMARK VINA RESULT:    -6.599      2.914      4.480
REMARK INTER + INTRA:         -10.855
REMARK INTER:                  -8.985
REMARK INTRA:                  -1.870
REMARK CONF_INDEPENDENT:        2.386
REMARK UNBOUND:                -1.870
REMARK  8 active torsions:
REMARK  status: ('A' for Active; 'I' for Inactive)
REMARK    1  A    between atoms: C_5  and  O_6 
REMARK    2  A    between atoms: O_6  and  C_7 
REMARK    3  A    between atoms: C_7  and  C_8 
REMARK       I    between atoms: C_8  and  N_10 
REMARK    4  A    between atoms: N_10  and  N_11 
REMARK    5  A    between atoms: N_11  and  C_12 
REMARK    6  A    between atoms: C_12  and  N_14 
REMARK       I    between atoms: N_14  and  C_15 
REMARK    7  A    between atoms: C_15  and  C_17 
REMARK    8  A    between atoms: C_17  and  C_18 
ROOT
ATOM      1  C   UNL d   1      23.969 -17.518  -0.402  0.00  0.00     0.260 C 
ATOM      2  O   UNL d   1      24.407 -18.578   0.055  0.00  0.00    -0.269 OA
ATOM      3  N   UNL d   1      24.837 -16.529  -0.847  0.00  0.00    -0.266 N 
ATOM      4  H   UNL d   1      24.527 -15.636  -1.235  0.00  0.00     0.190 HD
ENDROOT
BRANCH   3   5
ATOM      5  N   UNL d   1      26.286 -16.707  -0.791  0.00  0.00    -0.273 N 
ATOM      6  H   UNL d   1      26.591 -17.589  -0.381  0.00  0.00     0.189 HD
BRANCH   5   7
ATOM      7  C   UNL d   1      27.112 -15.694  -1.304  0.00  0.00     0.193 C 
ATOM      8  S   UNL d   1      27.940 -14.700  -0.209  0.00  0.00    -0.039 SA
BRANCH   7   9
ATOM      9  N   UNL d   1      27.178 -15.600  -2.718  0.00  0.00    -0.303 N 
ATOM     10  C   UNL d   1      26.129 -15.167  -3.541  0.00  0.00     0.224 C 
ATOM     11  O   UNL d   1      24.997 -14.944  -3.099  0.00  0.00    -0.273 OA
ATOM     12  H   UNL d   1      28.037 -15.876  -3.175  0.00  0.00     0.171 HD
BRANCH  10  13
ATOM     13  C   UNL d   1      26.346 -15.009  -5.058  0.00  0.00     0.107 C 
BRANCH  13  14
ATOM     14  C   UNL d   1      27.012 -13.622  -5.370  0.00  0.00    -0.014 C 
ATOM     15  C   UNL d   1      26.089 -12.443  -5.018  0.00  0.00     0.010 C 
ATOM     16  C   UNL d   1      28.338 -13.419  -4.633  0.00  0.00     0.010 C 
ENDBRANCH  13  14
ENDBRANCH  10  13
ENDBRANCH   7   9
ENDBRANCH   5   7
ENDBRANCH   3   5
BRANCH   1  17
ATOM     17  C   UNL d   1      22.447 -17.193  -0.520  0.00  0.00     0.280 C 
BRANCH  17  18
ATOM     18  O   UNL d   1      21.754 -18.193  -1.281  0.00  0.00    -0.342 OA
BRANCH  18  19
ATOM     19  C   UNL d   1      20.777 -18.940  -0.670  0.00  0.00     0.069 A 
ATOM     20  C   UNL d   1      21.040 -19.335   0.650  0.00  0.00     0.037 A 
ATOM     21  C   UNL d   1      20.109 -20.091   1.382  0.00  0.00     0.009 A 
ATOM     22  C   UNL d   1      18.894 -20.466   0.802  0.00  0.00    -0.062 A 
ATOM     23  C   UNL d   1      17.868 -21.255   1.562  0.00  0.00     0.048 C 
ATOM     24  C   UNL d   1      18.638 -20.080  -0.518  0.00  0.00     0.009 A 
ATOM     25  C   UNL d   1      19.570 -19.326  -1.248  0.00  0.00     0.037 A 
ENDBRANCH  18  19
ENDBRANCH  17  18
ENDBRANCH   1  17
TORSDOF 8
ENDMDL
MODEL 7
REMARK VINA RESULT:    -5.951      3.800      5.533
REMARK INTER + INTRA:         -11.218
REMARK INTER:                  -8.337
REMARK INTRA:                  -2.881
REMARK CONF_INDEPENDENT:        2.386
REMARK UNBOUND:                -2.881
REMARK  8 active torsions:
REMARK  status: ('A' for Active; 'I' for Inactive)
REMARK    1  A    between atoms: C_5  and  O_6 
REMARK    2  A    between atoms: O_6  and  C_7 
REMARK    3  A    between atoms: C_7  and  C_8 
REMARK       I    between atoms: C_8  and  N_10 
REMARK    4  A    between atoms: N_10  and  N_11 
REMARK    5  A    between atoms: N_11  and  C_12 
REMARK    6  A    between atoms: C_12  and  N_14 
REMARK       I    between atoms: N_14  and  C_15 
REMARK    7  A    between atoms: C_15  and  C_17 
REMARK    8  A    between atoms: C_17  and  C_18 
ROOT
ATOM      1  C   UNL d   1      28.410 -16.658  -1.621  0.00  0.00     0.260 C 
ATOM      2  O   UNL d   1      29.608 -16.938  -1.513  0.00  0.00    -0.269 OA
ATOM      3  N   UNL d   1      27.916 -16.113  -2.799  0.00  0.00    -0.266 N 
ATOM      4  H   UNL d   1      26.935 -15.867  -2.940  0.00  0.00     0.190 HD
ENDROOT
BRANCH   3   5
ATOM      5  N   UNL d   1      28.788 -15.854  -3.942  0.00  0.00    -0.273 N 
ATOM      6  H   UNL d   1      29.699 -16.309  -3.894  0.00  0.00     0.189 HD
BRANCH   5   7
ATOM      7  C   UNL d   1      28.312 -15.042  -4.984  0.00  0.00     0.193 C 
ATOM      8  S   UNL d   1      29.008 -15.213  -6.520  0.00  0.00    -0.039 SA
BRANCH   7   9
ATOM      9  N   UNL d   1      27.270 -14.141  -4.645  0.00  0.00    -0.303 N 
ATOM     10  C   UNL d   1      25.939 -14.510  -4.405  0.00  0.00     0.224 C 
ATOM     11  O   UNL d   1      25.533 -15.661  -4.595  0.00  0.00    -0.273 OA
ATOM     12  H   UNL d   1      27.492 -13.156  -4.582  0.00  0.00     0.171 HD
BRANCH  10  13
ATOM     13  C   UNL d   1      24.911 -13.458  -3.945  0.00  0.00     0.107 C 
BRANCH  13  14
ATOM     14  C   UNL d   1      25.530 -12.547  -2.827  0.00  0.00    -0.014 C 
ATOM     15  C   UNL d   1      26.451 -13.336  -1.880  0.00  0.00     0.010 C 
ATOM     16  C   UNL d   1      26.331 -11.371  -3.392  0.00  0.00     0.010 C 
ENDBRANCH  13  14
ENDBRANCH  10  13
ENDBRANCH   7   9
ENDBRANCH   5   7
ENDBRANCH   3   5
BRANCH   1  17
ATOM     17  C   UNL d   1      27.367 -16.881  -0.481  0.00  0.00     0.280 C 
BRANCH  17  18
ATOM     18  O   UNL d   1      26.112 -16.256  -0.789  0.00  0.00    -0.342 OA
BRANCH  18  19
ATOM     19  C   UNL d   1      24.954 -16.982  -0.655  0.00  0.00     0.069 A 
ATOM     20  C   UNL d   1      23.765 -16.311  -0.980  0.00  0.00     0.037 A 
ATOM     21  C   UNL d   1      22.520 -16.955  -0.895  0.00  0.00     0.009 A 
ATOM     22  C   UNL d   1      22.443 -18.287  -0.480  0.00  0.00    -0.062 A 
ATOM     23  C   UNL d   1      21.131 -19.012  -0.397  0.00  0.00     0.048 C 
ATOM     24  C   UNL d   1      23.628 -18.951  -0.145  0.00  0.00     0.009 A 
ATOM     25  C   UNL d   1      24.871 -18.306  -0.230  0.00  0.00     0.037 A 
ENDBRANCH  18  19
ENDBRANCH  17  18
ENDBRANCH   1  17
TORSDOF 8
ENDMDL
MODEL 8
REMARK VINA RESULT:    -5.880      4.956      6.698
REMARK INTER + INTRA:         -10.745
REMARK INTER:                  -8.266
REMARK INTRA:                  -2.479
REMARK CONF_INDEPENDENT:        2.386
REMARK UNBOUND:                -2.479
REMARK  8 active torsions:
REMARK  status: ('A' for Active; 'I' for Inactive)
REMARK    1  A    between atoms: C_5  and  O_6 
REMARK    2  A    between atoms: O_6  and  C_7 
REMARK    3  A    between atoms: C_7  and  C_8 
REMARK       I    between atoms: C_8  and  N_10 
REMARK    4  A    between atoms: N_10  and  N_11 
REMARK    5  A    between atoms: N_11  and  C_12 
REMARK    6  A    between atoms: C_12  and  N_14 
REMARK       I    between atoms: N_14  and  C_15 
REMARK    7  A    between atoms: C_15  and  C_17 
REMARK    8  A    between atoms: C_17  and  C_18 
ROOT
ATOM      1  C   UNL d   1      27.376 -16.685  -1.612  0.00  0.00     0.260 C 
ATOM      2  O   UNL d   1      28.440 -17.071  -2.104  0.00  0.00    -0.269 OA
ATOM      3  N   UNL d   1      26.515 -15.873  -2.338  0.00  0.00    -0.266 N 
ATOM      4  H   UNL d   1      25.623 -15.529  -1.978  0.00  0.00     0.190 HD
ENDROOT
BRANCH   3   5
ATOM      5  N   UNL d   1      26.836 -15.449  -3.699  0.00  0.00    -0.273 N 
ATOM      6  H   UNL d   1      27.544 -16.015  -4.165  0.00  0.00     0.189 HD
BRANCH   5   7
ATOM      7  C   UNL d   1      26.157 -14.347  -4.242  0.00  0.00     0.193 C 
ATOM      8  S   UNL d   1      24.555 -14.072  -3.761  0.00  0.00    -0.039 SA
BRANCH   7   9
ATOM      9  N   UNL d   1      26.893 -13.551  -5.156  0.00  0.00    -0.303 N 
ATOM     10  C   UNL d   1      27.808 -14.048  -6.095  0.00  0.00     0.224 C 
ATOM     11  O   UNL d   1      28.144 -15.237  -6.117  0.00  0.00    -0.273 OA
ATOM     12  H   UNL d   1      26.764 -12.547  -5.128  0.00  0.00     0.171 HD
BRANCH  10  13
ATOM     13  C   UNL d   1      28.477 -13.099  -7.108  0.00  0.00     0.107 C 
BRANCH  13  14
ATOM     14  C   UNL d   1      27.663 -11.762  -7.218  0.00  0.00    -0.014 C 
ATOM     15  C   UNL d   1      28.468 -10.551  -6.718  0.00  0.00     0.010 C 
ATOM     16  C   UNL d   1      27.199 -11.463  -8.646  0.00  0.00     0.010 C 
ENDBRANCH  13  14
ENDBRANCH  10  13
ENDBRANCH   7   9
ENDBRANCH   5   7
ENDBRANCH   3   5
BRANCH   1  17
ATOM     17  C   UNL d   1      26.906 -17.060  -0.170  0.00  0.00     0.280 C 
BRANCH  17  18
ATOM     18  O   UNL d   1      25.634 -16.470   0.137  0.00  0.00    -0.342 OA
BRANCH  18  19
ATOM     19  C   UNL d   1      24.487 -17.158  -0.173  0.00  0.00     0.069 A 
ATOM     20  C   UNL d   1      23.380 -16.377  -0.539  0.00  0.00     0.037 A 
ATOM     21  C   UNL d   1      22.156 -16.970  -0.891  0.00  0.00     0.009 A 
ATOM     22  C   UNL d   1      22.018 -18.360  -0.880  0.00  0.00    -0.062 A 
ATOM     23  C   UNL d   1      20.731 -19.027  -1.270  0.00  0.00     0.048 C 
ATOM     24  C   UNL d   1      23.119 -19.137  -0.504  0.00  0.00     0.009 A 
ATOM     25  C   UNL d   1      24.341 -18.543  -0.152  0.00  0.00     0.037 A 
ENDBRANCH  18  19
ENDBRANCH  17  18
ENDBRANCH   1  17
TORSDOF 8
ENDMDL
MODEL 9
REMARK VINA RESULT:    -5.347      3.751      6.263
REMARK INTER + INTRA:         -10.708
REMARK INTER:                  -7.733
REMARK INTRA:                  -2.975
REMARK CONF_INDEPENDENT:        2.386
REMARK UNBOUND:                -2.975
REMARK  8 active torsions:
REMARK  status: ('A' for Active; 'I' for Inactive)
REMARK    1  A    between atoms: C_5  and  O_6 
REMARK    2  A    between atoms: O_6  and  C_7 
REMARK    3  A    between atoms: C_7  and  C_8 
REMARK       I    between atoms: C_8  and  N_10 
REMARK    4  A    between atoms: N_10  and  N_11 
REMARK    5  A    between atoms: N_11  and  C_12 
REMARK    6  A    between atoms: C_12  and  N_14 
REMARK       I    between atoms: N_14  and  C_15 
REMARK    7  A    between atoms: C_15  and  C_17 
REMARK    8  A    between atoms: C_17  and  C_18 
ROOT
ATOM      1  C   UNL d   1      27.185 -14.091  -0.062  0.00  0.00     0.260 C 
ATOM      2  O   UNL d   1      27.580 -13.212   0.710  0.00  0.00    -0.269 OA
ATOM      3  N   UNL d   1      26.573 -13.754  -1.263  0.00  0.00    -0.266 N 
ATOM      4  H   UNL d   1      26.231 -14.442  -1.936  0.00  0.00     0.190 HD
ENDROOT
BRANCH   3   5
ATOM      5  N   UNL d   1      26.377 -12.360  -1.651  0.00  0.00    -0.273 N 
ATOM      6  H   UNL d   1      26.318 -11.705  -0.872  0.00  0.00     0.189 HD
BRANCH   5   7
ATOM      7  C   UNL d   1      26.306 -12.042  -3.017  0.00  0.00     0.193 C 
ATOM      8  S   UNL d   1      25.792 -10.488  -3.456  0.00  0.00    -0.039 SA
BRANCH   7   9
ATOM      9  N   UNL d   1      26.681 -13.073  -3.916  0.00  0.00    -0.303 N 
ATOM     10  C   UNL d   1      25.901 -14.200  -4.213  0.00  0.00     0.224 C 
ATOM     11  O   UNL d   1      24.854 -14.451  -3.608  0.00  0.00    -0.273 OA
ATOM     12  H   UNL d   1      27.583 -13.005  -4.371  0.00  0.00     0.171 HD
BRANCH  10  13
ATOM     13  C   UNL d   1      26.366 -15.207  -5.283  0.00  0.00     0.107 C 
BRANCH  13  14
ATOM     14  C   UNL d   1      27.878 -15.568  -5.069  0.00  0.00    -0.014 C 
ATOM     15  C   UNL d   1      28.816 -14.602  -5.811  0.00  0.00     0.010 C 
ATOM     16  C   UNL d   1      28.284 -15.579  -3.593  0.00  0.00     0.010 C 
ENDBRANCH  13  14
ENDBRANCH  10  13
ENDBRANCH   7   9
ENDBRANCH   5   7
ENDBRANCH   3   5
BRANCH   1  17
ATOM     17  C   UNL d   1      27.328 -15.619   0.226  0.00  0.00     0.280 C 
BRANCH  17  18
ATOM     18  O   UNL d   1      26.788 -16.408  -0.846  0.00  0.00    -0.342 OA
BRANCH  18  19
ATOM     19  C   UNL d   1      25.502 -16.876  -0.746  0.00  0.00     0.069 A 
ATOM     20  C   UNL d   1      25.361 -18.200  -0.301  0.00  0.00     0.037 A 
ATOM     21  C   UNL d   1      24.093 -18.784  -0.147  0.00  0.00     0.009 A 
ATOM     22  C   UNL d   1      22.939 -18.052  -0.438  0.00  0.00    -0.062 A 
ATOM     23  C   UNL d   1      21.568 -18.638  -0.265  0.00  0.00     0.048 C 
ATOM     24  C   UNL d   1      23.081 -16.736  -0.892  0.00  0.00     0.009 A 
ATOM     25  C   UNL d   1      24.349 -16.154  -1.046  0.00  0.00     0.037 A 
ENDBRANCH  18  19
ENDBRANCH  17  18
ENDBRANCH   1  17
TORSDOF 8
ENDMDL
