MODEL 1
REMARK VINA RESULT:   -10.704      0.000      0.000
REMARK INTER + INTRA:         -15.621
REMARK INTER:                 -13.985
REMARK INTRA:                  -1.636
REMARK CONF_INDEPENDENT:        3.281
REMARK UNBOUND:                -1.636
REMARK  11 active torsions:
REMARK  status: ('A' for Active; 'I' for Inactive)
REMARK    1  A    between atoms: C_2  and  C_3 
REMARK    2  A    between atoms: C_3  and  C_4 
REMARK    3  A    between atoms: C_4  and  C_5 
REMARK    4  A    between atoms: C_5  and  C_6 
REMARK       I    between atoms: C_6  and  N_8 
REMARK    5  A    between atoms: N_8  and  C_9 
REMARK    6  A    between atoms: C_13  and  N_14 
REMARK    7  A    between atoms: N_14  and  C_15 
REMARK    8  A    between atoms: C_15  and  C_16 
REMARK       I    between atoms: C_16  and  N_18 
REMARK    9  A    between atoms: N_18  and  C_19 
REMARK   10  A    between atoms: C_23  and  C_24 
REMARK       I    between atoms: C_24  and  N_26 
REMARK   11  A    between atoms: N_26  and  C_28 
ROOT
ATOM      1  C   UNL d   1      28.556 -15.982   0.271  0.00  0.00     0.239 C 
ATOM      2  O   UNL d   1      29.348 -15.205  -0.271  0.00  0.00    -0.271 OA
ATOM      3  N   UNL d   1      27.715 -15.645   1.346  0.00  0.00    -0.326 N 
ATOM      4  H   UNL d   1      27.161 -16.364   1.797  0.00  0.00     0.169 HD
ENDROOT
BRANCH   1   5
ATOM      5  C   UNL d   1      28.510 -17.436  -0.199  0.00  0.00     0.223 C 
BRANCH   5   6
ATOM      6  N   UNL d   1      27.162 -17.994   0.018  0.00  0.00    -0.381 N 
ATOM      7  H   UNL d   1      27.091 -18.731   0.717  0.00  0.00     0.160 HD
BRANCH   6   8
ATOM      8  C   UNL d   1      26.022 -17.397  -0.480  0.00  0.00     0.030 A 
ATOM      9  C   UNL d   1      26.084 -16.330  -1.381  0.00  0.00     0.029 A 
ATOM     10  C   UNL d   1      24.912 -15.753  -1.895  0.00  0.00     0.004 A 
ATOM     11  C   UNL d   1      23.653 -16.209  -1.481  0.00  0.00     0.029 A 
ATOM     12  C   UNL d   1      23.574 -17.251  -0.563  0.00  0.00     0.036 A 
ATOM     13  C   UNL d   1      24.754 -17.819  -0.080  0.00  0.00     0.058 A 
BRANCH  12  14
ATOM     14  N   UNL d   1      22.328 -17.780  -0.149  0.00  0.00    -0.327 N 
ATOM     15  C   UNL d   1      21.668 -18.749  -0.898  0.00  0.00     0.222 C 
ATOM     16  O   UNL d   1      22.128 -19.275  -1.902  0.00  0.00    -0.273 OA
ATOM     17  H   UNL d   1      21.990 -17.526   0.768  0.00  0.00     0.169 HD
BRANCH  15  18
ATOM     18  C   UNL d   1      20.302 -19.155  -0.366  0.00  0.00     0.103 C 
BRANCH  18  19
ATOM     19  C   UNL d   1      20.478 -20.331   0.604  0.00  0.00     0.009 C 
BRANCH  19  20
ATOM     20  C   UNL d   1      19.858 -20.068   1.968  0.00  0.00     0.000 C 
BRANCH  20  21
ATOM     21  C   UNL d   1      18.406 -20.544   2.005  0.00  0.00    -0.005 C 
ATOM     22  C   UNL d   1      18.024 -21.201   0.691  0.00  0.00     0.005 C 
ENDBRANCH  20  21
ENDBRANCH  19  20
ENDBRANCH  18  19
ENDBRANCH  15  18
ENDBRANCH  12  14
ENDBRANCH   6   8
ENDBRANCH   5   6
ENDBRANCH   1   5
BRANCH   3  23
ATOM     23  C   UNL d   1      27.548 -14.307   1.808  0.00  0.00     0.035 C 
ATOM     24  C   UNL d   1      27.328 -13.211   0.992  0.00  0.00     0.029 C 
ATOM     25  C   UNL d   1      27.239 -11.933   1.580  0.00  0.00     0.003 C 
ATOM     26  C   UNL d   1      27.428 -11.745   2.966  0.00  0.00     0.017 C 
ATOM     27  C   UNL d   1      27.700 -12.837   3.793  0.00  0.00     0.034 C 
ATOM     28  C   UNL d   1      27.649 -14.069   3.171  0.00  0.00     0.046 C 
BRANCH  27  29
ATOM     29  C   UNL d   1      28.024 -12.650   5.259  0.00  0.00     0.258 C 
ATOM     30  O   UNL d   1      27.582 -11.610   5.743  0.00  0.00    -0.267 OA
ATOM     31  N   UNL d   1      28.859 -13.540   6.005  0.00  0.00    -0.318 N 
ATOM     32  C   UNL d   1      29.466 -14.825   5.598  0.00  0.00     0.159 C 
BRANCH  31  33
ATOM     33  C   UNL d   1      29.075 -13.304   7.413  0.00  0.00     0.037 A 
ATOM     34  C   UNL d   1      30.181 -13.899   8.050  0.00  0.00     0.029 A 
ATOM     35  C   UNL d   1      30.333 -13.866   9.431  0.00  0.00     0.002 A 
ATOM     36  C   UNL d   1      29.420 -13.160  10.198  0.00  0.00     0.000 A 
ATOM     37  C   UNL d   1      28.332 -12.534   9.586  0.00  0.00     0.002 A 
ATOM     38  C   UNL d   1      28.156 -12.610   8.201  0.00  0.00     0.029 A 
ENDBRANCH  31  33
ENDBRANCH  27  29
ENDBRANCH   3  23
TORSDOF 11
ENDMDL
MODEL 2
REMARK VINA RESULT:   -10.616      5.912      9.257
REMARK INTER + INTRA:         -15.665
REMARK INTER:                 -13.898
REMARK INTRA:                  -1.767
REMARK CONF_INDEPENDENT:        3.281
REMARK UNBOUND:                -1.767
REMARK  11 active torsions:
REMARK  status: ('A' for Active; 'I' for Inactive)
REMARK    1  A    between atoms: C_2  and  C_3 
REMARK    2  A    between atoms: C_3  and  C_4 
REMARK    3  A    between atoms: C_4  and  C_5 
REMARK    4  A    between atoms: C_5  and  C_6 
REMARK       I    between atoms: C_6  and  N_8 
REMARK    5  A    between atoms: N_8  and  C_9 
REMARK    6  A    between atoms: C_13  and  N_14 
REMARK    7  A    between atoms: N_14  and  C_15 
REMARK    8  A    between atoms: C_15  and  C_16 
REMARK       I    between atoms: C_16  and  N_18 
REMARK    9  A    between atoms: N_18  and  C_19 
REMARK   10  A    between atoms: C_23  and  C_24 
REMARK       I    between atoms: C_24  and  N_26 
REMARK   11  A    between atoms: N_26  and  C_28 
ROOT
ATOM      1  C   UNL d   1      26.377 -15.116  -4.514  0.00  0.00     0.239 C 
ATOM      2  O   UNL d   1      25.944 -15.571  -5.576  0.00  0.00    -0.271 OA
ATOM      3  N   UNL d   1      27.734 -15.096  -4.146  0.00  0.00    -0.326 N 
ATOM      4  H   UNL d   1      28.001 -14.790  -3.217  0.00  0.00     0.169 HD
ENDROOT
BRANCH   1   5
ATOM      5  C   UNL d   1      25.385 -14.584  -3.478  0.00  0.00     0.223 C 
BRANCH   5   6
ATOM      6  N   UNL d   1      25.915 -14.791  -2.118  0.00  0.00    -0.381 N 
ATOM      7  H   UNL d   1      26.345 -13.979  -1.679  0.00  0.00     0.160 HD
BRANCH   6   8
ATOM      8  C   UNL d   1      25.625 -15.914  -1.370  0.00  0.00     0.030 A 
ATOM      9  C   UNL d   1      26.630 -16.679  -0.773  0.00  0.00     0.029 A 
ATOM     10  C   UNL d   1      26.312 -17.803   0.005  0.00  0.00     0.004 A 
ATOM     11  C   UNL d   1      24.979 -18.205   0.165  0.00  0.00     0.029 A 
ATOM     12  C   UNL d   1      23.968 -17.470  -0.446  0.00  0.00     0.036 A 
ATOM     13  C   UNL d   1      24.310 -16.347  -1.201  0.00  0.00     0.058 A 
BRANCH  12  14
ATOM     14  N   UNL d   1      22.604 -17.806  -0.278  0.00  0.00    -0.327 N 
ATOM     15  C   UNL d   1      21.968 -18.701  -1.132  0.00  0.00     0.222 C 
ATOM     16  O   UNL d   1      22.533 -19.323  -2.021  0.00  0.00    -0.273 OA
ATOM     17  H   UNL d   1      22.135 -17.473   0.553  0.00  0.00     0.169 HD
BRANCH  15  18
ATOM     18  C   UNL d   1      20.482 -18.895  -0.873  0.00  0.00     0.103 C 
BRANCH  18  19
ATOM     19  C   UNL d   1      20.305 -19.912   0.262  0.00  0.00     0.009 C 
BRANCH  19  20
ATOM     20  C   UNL d   1      19.149 -19.566   1.189  0.00  0.00     0.000 C 
BRANCH  20  21
ATOM     21  C   UNL d   1      18.599 -20.823   1.862  0.00  0.00    -0.005 C 
ATOM     22  C   UNL d   1      17.672 -21.573   0.922  0.00  0.00     0.005 C 
ENDBRANCH  20  21
ENDBRANCH  19  20
ENDBRANCH  18  19
ENDBRANCH  15  18
ENDBRANCH  12  14
ENDBRANCH   6   8
ENDBRANCH   5   6
ENDBRANCH   1   5
BRANCH   3  23
ATOM     23  C   UNL d   1      28.785 -15.432  -5.049  0.00  0.00     0.035 C 
ATOM     24  C   UNL d   1      29.275 -14.596  -6.037  0.00  0.00     0.029 C 
ATOM     25  C   UNL d   1      30.279 -15.079  -6.900  0.00  0.00     0.003 C 
ATOM     26  C   UNL d   1      30.748 -16.408  -6.813  0.00  0.00     0.017 C 
ATOM     27  C   UNL d   1      30.226 -17.277  -5.852  0.00  0.00     0.034 C 
ATOM     28  C   UNL d   1      29.339 -16.701  -4.964  0.00  0.00     0.046 C 
BRANCH  27  29
ATOM     29  C   UNL d   1      30.622 -18.736  -5.815  0.00  0.00     0.258 C 
ATOM     30  O   UNL d   1      30.538 -19.309  -6.900  0.00  0.00    -0.267 OA
ATOM     31  N   UNL d   1      30.966 -19.432  -4.614  0.00  0.00    -0.318 N 
ATOM     32  C   UNL d   1      31.124 -18.916  -3.238  0.00  0.00     0.159 C 
BRANCH  31  33
ATOM     33  C   UNL d   1      31.376 -20.816  -4.683  0.00  0.00     0.037 A 
ATOM     34  C   UNL d   1      32.299 -21.214  -5.669  0.00  0.00     0.029 A 
ATOM     35  C   UNL d   1      32.583 -22.553  -5.906  0.00  0.00     0.002 A 
ATOM     36  C   UNL d   1      32.008 -23.522  -5.099  0.00  0.00     0.000 A 
ATOM     37  C   UNL d   1      31.115 -23.150  -4.092  0.00  0.00     0.002 A 
ATOM     38  C   UNL d   1      30.794 -21.804  -3.888  0.00  0.00     0.029 A 
ENDBRANCH  31  33
ENDBRANCH  27  29
ENDBRANCH   3  23
TORSDOF 11
ENDMDL
MODEL 3
REMARK VINA RESULT:   -10.183      1.466      2.244
REMARK INTER + INTRA:         -14.684
REMARK INTER:                 -13.465
REMARK INTRA:                  -1.219
REMARK CONF_INDEPENDENT:        3.281
REMARK UNBOUND:                -1.219
REMARK  11 active torsions:
REMARK  status: ('A' for Active; 'I' for Inactive)
REMARK    1  A    between atoms: C_2  and  C_3 
REMARK    2  A    between atoms: C_3  and  C_4 
REMARK    3  A    between atoms: C_4  and  C_5 
REMARK    4  A    between atoms: C_5  and  C_6 
REMARK       I    between atoms: C_6  and  N_8 
REMARK    5  A    between atoms: N_8  and  C_9 
REMARK    6  A    between atoms: C_13  and  N_14 
REMARK    7  A    between atoms: N_14  and  C_15 
REMARK    8  A    between atoms: C_15  and  C_16 
REMARK       I    between atoms: C_16  and  N_18 
REMARK    9  A    between atoms: N_18  and  C_19 
REMARK   10  A    between atoms: C_23  and  C_24 
REMARK       I    between atoms: C_24  and  N_26 
REMARK   11  A    between atoms: N_26  and  C_28 
ROOT
ATOM      1  C   UNL d   1      28.671 -14.282   1.024  0.00  0.00     0.239 C 
ATOM      2  O   UNL d   1      28.516 -13.159   0.535  0.00  0.00    -0.271 OA
ATOM      3  N   UNL d   1      28.682 -14.560   2.402  0.00  0.00    -0.326 N 
ATOM      4  H   UNL d   1      28.908 -15.493   2.727  0.00  0.00     0.169 HD
ENDROOT
BRANCH   1   5
ATOM      5  C   UNL d   1      28.932 -15.465   0.090  0.00  0.00     0.223 C 
BRANCH   5   6
ATOM      6  N   UNL d   1      27.982 -16.556   0.380  0.00  0.00    -0.381 N 
ATOM      7  H   UNL d   1      28.106 -17.030   1.273  0.00  0.00     0.160 HD
BRANCH   6   8
ATOM      8  C   UNL d   1      26.837 -16.762  -0.361  0.00  0.00     0.030 A 
ATOM      9  C   UNL d   1      26.695 -16.246  -1.652  0.00  0.00     0.029 A 
ATOM     10  C   UNL d   1      25.532 -16.488  -2.400  0.00  0.00     0.004 A 
ATOM     11  C   UNL d   1      24.470 -17.219  -1.849  0.00  0.00     0.029 A 
ATOM     12  C   UNL d   1      24.585 -17.716  -0.555  0.00  0.00     0.036 A 
ATOM     13  C   UNL d   1      25.759 -17.475   0.162  0.00  0.00     0.058 A 
BRANCH  12  14
ATOM     14  N   UNL d   1      23.562 -18.500   0.030  0.00  0.00    -0.327 N 
ATOM     15  C   UNL d   1      22.218 -18.196  -0.160  0.00  0.00     0.222 C 
ATOM     16  O   UNL d   1      21.812 -17.306  -0.895  0.00  0.00    -0.273 OA
ATOM     17  H   UNL d   1      23.831 -19.359   0.489  0.00  0.00     0.169 HD
BRANCH  15  18
ATOM     18  C   UNL d   1      21.242 -19.080   0.601  0.00  0.00     0.103 C 
BRANCH  18  19
ATOM     19  C   UNL d   1      20.417 -19.891  -0.409  0.00  0.00     0.009 C 
BRANCH  19  20
ATOM     20  C   UNL d   1      18.918 -19.737  -0.203  0.00  0.00     0.000 C 
BRANCH  20  21
ATOM     21  C   UNL d   1      18.414 -20.710   0.861  0.00  0.00    -0.005 C 
ATOM     22  C   UNL d   1      19.057 -20.416   2.204  0.00  0.00     0.005 C 
ENDBRANCH  20  21
ENDBRANCH  19  20
ENDBRANCH  18  19
ENDBRANCH  15  18
ENDBRANCH  12  14
ENDBRANCH   6   8
ENDBRANCH   5   6
ENDBRANCH   1   5
BRANCH   3  23
ATOM     23  C   UNL d   1      28.326 -13.594   3.388  0.00  0.00     0.035 C 
ATOM     24  C   UNL d   1      27.941 -12.293   3.117  0.00  0.00     0.029 C 
ATOM     25  C   UNL d   1      27.672 -11.424   4.194  0.00  0.00     0.003 C 
ATOM     26  C   UNL d   1      27.843 -11.837   5.533  0.00  0.00     0.017 C 
ATOM     27  C   UNL d   1      28.279 -13.133   5.819  0.00  0.00     0.034 C 
ATOM     28  C   UNL d   1      28.403 -13.964   4.723  0.00  0.00     0.046 C 
BRANCH  27  29
ATOM     29  C   UNL d   1      28.585 -13.564   7.237  0.00  0.00     0.258 C 
ATOM     30  O   UNL d   1      28.541 -14.780   7.415  0.00  0.00    -0.267 OA
ATOM     31  N   UNL d   1      28.805 -12.647   8.312  0.00  0.00    -0.318 N 
ATOM     32  C   UNL d   1      28.900 -11.172   8.288  0.00  0.00     0.159 C 
BRANCH  31  33
ATOM     33  C   UNL d   1      29.136 -13.151   9.624  0.00  0.00     0.037 A 
ATOM     34  C   UNL d   1      28.516 -12.589  10.757  0.00  0.00     0.029 A 
ATOM     35  C   UNL d   1      28.932 -12.897  12.046  0.00  0.00     0.002 A 
ATOM     36  C   UNL d   1      29.927 -13.844  12.230  0.00  0.00     0.000 A 
ATOM     37  C   UNL d   1      30.535 -14.441  11.123  0.00  0.00     0.002 A 
ATOM     38  C   UNL d   1      30.147 -14.093   9.825  0.00  0.00     0.029 A 
ENDBRANCH  31  33
ENDBRANCH  27  29
ENDBRANCH   3  23
TORSDOF 11
ENDMDL
MODEL 4
REMARK VINA RESULT:   -10.055      1.786     10.889
REMARK INTER + INTRA:         -15.783
REMARK INTER:                 -13.336
REMARK INTRA:                  -2.447
REMARK CONF_INDEPENDENT:        3.281
REMARK UNBOUND:                -2.447
REMARK  11 active torsions:
REMARK  status: ('A' for Active; 'I' for Inactive)
REMARK    1  A    between atoms: C_2  and  C_3 
REMARK    2  A    between atoms: C_3  and  C_4 
REMARK    3  A    between atoms: C_4  and  C_5 
REMARK    4  A    between atoms: C_5  and  C_6 
REMARK       I    between atoms: C_6  and  N_8 
REMARK    5  A    between atoms: N_8  and  C_9 
REMARK    6  A    between atoms: C_13  and  N_14 
REMARK    7  A    between atoms: N_14  and  C_15 
REMARK    8  A    between atoms: C_15  and  C_16 
REMARK       I    between atoms: C_16  and  N_18 
REMARK    9  A    between atoms: N_18  and  C_19 
REMARK   10  A    between atoms: C_23  and  C_24 
REMARK       I    between atoms: C_24  and  N_26 
REMARK   11  A    between atoms: N_26  and  C_28 
ROOT
ATOM      1  C   UNL d   1      27.594 -14.491   2.036  0.00  0.00     0.239 C 
ATOM      2  O   UNL d   1      26.653 -13.726   1.804  0.00  0.00    -0.271 OA
ATOM      3  N   UNL d   1      27.846 -15.684   1.335  0.00  0.00    -0.326 N 
ATOM      4  H   UNL d   1      28.584 -16.305   1.646  0.00  0.00     0.169 HD
ENDROOT
BRANCH   1   5
ATOM      5  C   UNL d   1      28.534 -14.175   3.200  0.00  0.00     0.223 C 
BRANCH   5   6
ATOM      6  N   UNL d   1      28.128 -12.915   3.850  0.00  0.00    -0.381 N 
ATOM      7  H   UNL d   1      27.448 -12.351   3.343  0.00  0.00     0.160 HD
BRANCH   6   8
ATOM      8  C   UNL d   1      28.425 -12.627   5.166  0.00  0.00     0.030 A 
ATOM      9  C   UNL d   1      28.236 -11.350   5.700  0.00  0.00     0.029 A 
ATOM     10  C   UNL d   1      28.521 -11.085   7.049  0.00  0.00     0.004 A 
ATOM     11  C   UNL d   1      29.042 -12.088   7.878  0.00  0.00     0.029 A 
ATOM     12  C   UNL d   1      29.263 -13.358   7.354  0.00  0.00     0.036 A 
ATOM     13  C   UNL d   1      28.956 -13.600   6.014  0.00  0.00     0.058 A 
BRANCH  12  14
ATOM     14  N   UNL d   1      29.743 -14.418   8.159  0.00  0.00    -0.327 N 
ATOM     15  C   UNL d   1      30.950 -14.319   8.843  0.00  0.00     0.222 C 
ATOM     16  O   UNL d   1      31.640 -13.309   8.877  0.00  0.00    -0.273 OA
ATOM     17  H   UNL d   1      29.126 -15.201   8.324  0.00  0.00     0.169 HD
BRANCH  15  18
ATOM     18  C   UNL d   1      31.370 -15.571   9.597  0.00  0.00     0.103 C 
BRANCH  18  19
ATOM     19  C   UNL d   1      30.728 -15.547  10.991  0.00  0.00     0.009 C 
BRANCH  19  20
ATOM     20  C   UNL d   1      29.994 -14.247  11.280  0.00  0.00     0.000 C 
BRANCH  20  21
ATOM     21  C   UNL d   1      28.490 -14.489  11.401  0.00  0.00    -0.005 C 
ATOM     22  C   UNL d   1      27.717 -13.215  11.111  0.00  0.00     0.005 C 
ENDBRANCH  20  21
ENDBRANCH  19  20
ENDBRANCH  18  19
ENDBRANCH  15  18
ENDBRANCH  12  14
ENDBRANCH   6   8
ENDBRANCH   5   6
ENDBRANCH   1   5
BRANCH   3  23
ATOM     23  C   UNL d   1      27.144 -16.047   0.149  0.00  0.00     0.035 C 
ATOM     24  C   UNL d   1      27.379 -15.510  -1.104  0.00  0.00     0.029 C 
ATOM     25  C   UNL d   1      26.569 -15.919  -2.183  0.00  0.00     0.003 C 
ATOM     26  C   UNL d   1      25.492 -16.813  -1.997  0.00  0.00     0.017 C 
ATOM     27  C   UNL d   1      25.213 -17.323  -0.727  0.00  0.00     0.034 C 
ATOM     28  C   UNL d   1      26.121 -16.979   0.254  0.00  0.00     0.046 C 
BRANCH  27  29
ATOM     29  C   UNL d   1      23.996 -18.187  -0.479  0.00  0.00     0.258 C 
ATOM     30  O   UNL d   1      24.249 -19.380  -0.321  0.00  0.00    -0.267 OA
ATOM     31  N   UNL d   1      22.655 -17.696  -0.525  0.00  0.00    -0.318 N 
ATOM     32  C   UNL d   1      22.163 -16.312  -0.692  0.00  0.00     0.159 C 
BRANCH  31  33
ATOM     33  C   UNL d   1      21.557 -18.587  -0.229  0.00  0.00     0.037 A 
ATOM     34  C   UNL d   1      20.707 -19.005  -1.271  0.00  0.00     0.029 A 
ATOM     35  C   UNL d   1      19.531 -19.701  -1.019  0.00  0.00     0.002 A 
ATOM     36  C   UNL d   1      19.224 -20.068   0.281  0.00  0.00     0.000 A 
ATOM     37  C   UNL d   1      20.068 -19.694   1.329  0.00  0.00     0.002 A 
ATOM     38  C   UNL d   1      21.226 -18.951   1.078  0.00  0.00     0.029 A 
ENDBRANCH  31  33
ENDBRANCH  27  29
ENDBRANCH   3  23
TORSDOF 11
ENDMDL
MODEL 5
REMARK VINA RESULT:    -9.958      2.619      4.901
REMARK INTER + INTRA:         -14.792
REMARK INTER:                 -13.239
REMARK INTRA:                  -1.553
REMARK CONF_INDEPENDENT:        3.281
REMARK UNBOUND:                -1.553
REMARK  11 active torsions:
REMARK  status: ('A' for Active; 'I' for Inactive)
REMARK    1  A    between atoms: C_2  and  C_3 
REMARK    2  A    between atoms: C_3  and  C_4 
REMARK    3  A    between atoms: C_4  and  C_5 
REMARK    4  A    between atoms: C_5  and  C_6 
REMARK       I    between atoms: C_6  and  N_8 
REMARK    5  A    between atoms: N_8  and  C_9 
REMARK    6  A    between atoms: C_13  and  N_14 
REMARK    7  A    between atoms: N_14  and  C_15 
REMARK    8  A    between atoms: C_15  and  C_16 
REMARK       I    between atoms: C_16  and  N_18 
REMARK    9  A    between atoms: N_18  and  C_19 
REMARK   10  A    between atoms: C_23  and  C_24 
REMARK       I    between atoms: C_24  and  N_26 
REMARK   11  A    between atoms: N_26  and  C_28 
ROOT
ATOM      1  C   UNL d   1      27.780 -15.077   1.096  0.00  0.00     0.239 C 
ATOM      2  O   UNL d   1      26.754 -14.426   0.879  0.00  0.00    -0.271 OA
ATOM      3  N   UNL d   1      28.712 -14.787   2.107  0.00  0.00    -0.326 N 
ATOM      4  H   UNL d   1      29.577 -15.313   2.163  0.00  0.00     0.169 HD
ENDROOT
BRANCH   1   5
ATOM      5  C   UNL d   1      28.118 -16.253   0.177  0.00  0.00     0.223 C 
BRANCH   5   6
ATOM      6  N   UNL d   1      27.106 -17.316   0.325  0.00  0.00    -0.381 N 
ATOM      7  H   UNL d   1      27.339 -18.066   0.972  0.00  0.00     0.160 HD
BRANCH   6   8
ATOM      8  C   UNL d   1      25.821 -17.190  -0.160  0.00  0.00     0.030 A 
ATOM      9  C   UNL d   1      25.487 -16.232  -1.120  0.00  0.00     0.029 A 
ATOM     10  C   UNL d   1      24.178 -16.138  -1.619  0.00  0.00     0.004 A 
ATOM     11  C   UNL d   1      23.168 -16.977  -1.130  0.00  0.00     0.029 A 
ATOM     12  C   UNL d   1      23.477 -17.917  -0.153  0.00  0.00     0.036 A 
ATOM     13  C   UNL d   1      24.790 -18.002   0.314  0.00  0.00     0.058 A 
BRANCH  12  14
ATOM     14  N   UNL d   1      22.505 -18.820   0.340  0.00  0.00    -0.327 N 
ATOM     15  C   UNL d   1      21.495 -19.315  -0.479  0.00  0.00     0.222 C 
ATOM     16  O   UNL d   1      21.410 -19.089  -1.678  0.00  0.00    -0.273 OA
ATOM     17  H   UNL d   1      22.636 -19.193   1.270  0.00  0.00     0.169 HD
BRANCH  15  18
ATOM     18  C   UNL d   1      20.479 -20.208   0.217  0.00  0.00     0.103 C 
BRANCH  18  19
ATOM     19  C   UNL d   1      19.411 -19.323   0.875  0.00  0.00     0.009 C 
BRANCH  19  20
ATOM     20  C   UNL d   1      18.690 -20.021   2.018  0.00  0.00     0.000 C 
BRANCH  20  21
ATOM     21  C   UNL d   1      18.404 -21.481   1.668  0.00  0.00    -0.005 C 
ATOM     22  C   UNL d   1      17.591 -21.576   0.389  0.00  0.00     0.005 C 
ENDBRANCH  20  21
ENDBRANCH  19  20
ENDBRANCH  18  19
ENDBRANCH  15  18
ENDBRANCH  12  14
ENDBRANCH   6   8
ENDBRANCH   5   6
ENDBRANCH   1   5
BRANCH   3  23
ATOM     23  C   UNL d   1      28.476 -13.812   3.120  0.00  0.00     0.035 C 
ATOM     24  C   UNL d   1      28.597 -14.040   4.479  0.00  0.00     0.029 C 
ATOM     25  C   UNL d   1      28.275 -12.999   5.375  0.00  0.00     0.003 C 
ATOM     26  C   UNL d   1      27.779 -11.760   4.915  0.00  0.00     0.017 C 
ATOM     27  C   UNL d   1      27.606 -11.535   3.548  0.00  0.00     0.034 C 
ATOM     28  C   UNL d   1      28.058 -12.549   2.726  0.00  0.00     0.046 C 
BRANCH  27  29
ATOM     29  C   UNL d   1      26.966 -10.263   3.036  0.00  0.00     0.258 C 
ATOM     30  O   UNL d   1      25.929  -9.951   3.620  0.00  0.00    -0.267 OA
ATOM     31  N   UNL d   1      27.449  -9.532   1.906  0.00  0.00    -0.318 N 
ATOM     32  C   UNL d   1      28.666  -9.749   1.094  0.00  0.00     0.159 C 
BRANCH  31  33
ATOM     33  C   UNL d   1      26.799  -8.303   1.519  0.00  0.00     0.037 A 
ATOM     34  C   UNL d   1      26.323  -8.158   0.202  0.00  0.00     0.029 A 
ATOM     35  C   UNL d   1      25.865  -6.939  -0.280  0.00  0.00     0.002 A 
ATOM     36  C   UNL d   1      25.795  -5.853   0.578  0.00  0.00     0.000 A 
ATOM     37  C   UNL d   1      26.229  -5.979   1.899  0.00  0.00     0.002 A 
ATOM     38  C   UNL d   1      26.735  -7.196   2.367  0.00  0.00     0.029 A 
ENDBRANCH  31  33
ENDBRANCH  27  29
ENDBRANCH   3  23
TORSDOF 11
ENDMDL
MODEL 6
REMARK VINA RESULT:    -9.175      5.838     10.178
REMARK INTER + INTRA:         -14.955
REMARK INTER:                 -12.457
REMARK INTRA:                  -2.499
REMARK CONF_INDEPENDENT:        3.281
REMARK UNBOUND:                -2.499
REMARK  11 active torsions:
REMARK  status: ('A' for Active; 'I' for Inactive)
REMARK    1  A    between atoms: C_2  and  C_3 
REMARK    2  A    between atoms: C_3  and  C_4 
REMARK    3  A    between atoms: C_4  and  C_5 
REMARK    4  A    between atoms: C_5  and  C_6 
REMARK       I    between atoms: C_6  and  N_8 
REMARK    5  A    between atoms: N_8  and  C_9 
REMARK    6  A    between atoms: C_13  and  N_14 
REMARK    7  A    between atoms: N_14  and  C_15 
REMARK    8  A    between atoms: C_15  and  C_16 
REMARK       I    between atoms: C_16  and  N_18 
REMARK    9  A    between atoms: N_18  and  C_19 
REMARK   10  A    between atoms: C_23  and  C_24 
REMARK       I    between atoms: C_24  and  N_26 
REMARK   11  A    between atoms: N_26  and  C_28 
ROOT
ATOM      1  C   UNL d   1      25.468 -13.647  -3.533  0.00  0.00     0.239 C 
ATOM      2  O   UNL d   1      25.160 -13.070  -2.487  0.00  0.00    -0.271 OA
ATOM      3  N   UNL d   1      26.097 -14.903  -3.599  0.00  0.00    -0.326 N 
ATOM      4  H   UNL d   1      26.402 -15.269  -4.494  0.00  0.00     0.169 HD
ENDROOT
BRANCH   1   5
ATOM      5  C   UNL d   1      25.213 -12.945  -4.868  0.00  0.00     0.223 C 
BRANCH   5   6
ATOM      6  N   UNL d   1      26.248 -11.920  -5.104  0.00  0.00    -0.381 N 
ATOM      7  H   UNL d   1      26.256 -11.136  -4.454  0.00  0.00     0.160 HD
BRANCH   6   8
ATOM      8  C   UNL d   1      27.307 -12.118  -5.966  0.00  0.00     0.030 A 
ATOM      9  C   UNL d   1      27.714 -11.132  -6.868  0.00  0.00     0.029 A 
ATOM     10  C   UNL d   1      28.811 -11.345  -7.719  0.00  0.00     0.004 A 
ATOM     11  C   UNL d   1      29.493 -12.569  -7.710  0.00  0.00     0.029 A 
ATOM     12  C   UNL d   1      29.082 -13.571  -6.837  0.00  0.00     0.036 A 
ATOM     13  C   UNL d   1      28.000 -13.329  -5.990  0.00  0.00     0.058 A 
BRANCH  12  14
ATOM     14  N   UNL d   1      29.766 -14.807  -6.755  0.00  0.00    -0.327 N 
ATOM     15  C   UNL d   1      29.327 -15.823  -5.912  0.00  0.00     0.222 C 
ATOM     16  O   UNL d   1      28.297 -15.772  -5.253  0.00  0.00    -0.273 OA
ATOM     17  H   UNL d   1      30.510 -14.980  -7.417  0.00  0.00     0.169 HD
BRANCH  15  18
ATOM     18  C   UNL d   1      30.214 -17.058  -5.873  0.00  0.00     0.103 C 
BRANCH  18  19
ATOM     19  C   UNL d   1      30.808 -17.286  -7.269  0.00  0.00     0.009 C 
BRANCH  19  20
ATOM     20  C   UNL d   1      30.851 -18.755  -7.660  0.00  0.00     0.000 C 
BRANCH  20  21
ATOM     21  C   UNL d   1      31.545 -19.583  -6.578  0.00  0.00    -0.005 C 
ATOM     22  C   UNL d   1      30.539 -20.444  -5.835  0.00  0.00     0.005 C 
ENDBRANCH  20  21
ENDBRANCH  19  20
ENDBRANCH  18  19
ENDBRANCH  15  18
ENDBRANCH  12  14
ENDBRANCH   6   8
ENDBRANCH   5   6
ENDBRANCH   1   5
BRANCH   3  23
ATOM     23  C   UNL d   1      26.280 -15.736  -2.457  0.00  0.00     0.035 C 
ATOM     24  C   UNL d   1      27.493 -15.961  -1.829  0.00  0.00     0.029 C 
ATOM     25  C   UNL d   1      27.540 -16.857  -0.741  0.00  0.00     0.003 C 
ATOM     26  C   UNL d   1      26.394 -17.569  -0.324  0.00  0.00     0.017 C 
ATOM     27  C   UNL d   1      25.176 -17.388  -0.982  0.00  0.00     0.034 C 
ATOM     28  C   UNL d   1      25.175 -16.407  -1.953  0.00  0.00     0.046 C 
BRANCH  27  29
ATOM     29  C   UNL d   1      23.964 -18.225  -0.634  0.00  0.00     0.258 C 
ATOM     30  O   UNL d   1      24.216 -19.408  -0.411  0.00  0.00    -0.267 OA
ATOM     31  N   UNL d   1      22.624 -17.727  -0.659  0.00  0.00    -0.318 N 
ATOM     32  C   UNL d   1      22.134 -16.352  -0.895  0.00  0.00     0.159 C 
BRANCH  31  33
ATOM     33  C   UNL d   1      21.534 -18.588  -0.266  0.00  0.00     0.037 A 
ATOM     34  C   UNL d   1      20.582 -18.979  -1.227  0.00  0.00     0.029 A 
ATOM     35  C   UNL d   1      19.415 -19.643  -0.871  0.00  0.00     0.002 A 
ATOM     36  C   UNL d   1      19.216 -20.007   0.451  0.00  0.00     0.000 A 
ATOM     37  C   UNL d   1      20.162 -19.660   1.418  0.00  0.00     0.002 A 
ATOM     38  C   UNL d   1      21.313 -18.948   1.064  0.00  0.00     0.029 A 
ENDBRANCH  31  33
ENDBRANCH  27  29
ENDBRANCH   3  23
TORSDOF 11
ENDMDL
MODEL 7
REMARK VINA RESULT:    -8.992      1.883     10.816
REMARK INTER + INTRA:         -14.659
REMARK INTER:                 -12.273
REMARK INTRA:                  -2.386
REMARK CONF_INDEPENDENT:        3.281
REMARK UNBOUND:                -2.386
REMARK  11 active torsions:
REMARK  status: ('A' for Active; 'I' for Inactive)
REMARK    1  A    between atoms: C_2  and  C_3 
REMARK    2  A    between atoms: C_3  and  C_4 
REMARK    3  A    between atoms: C_4  and  C_5 
REMARK    4  A    between atoms: C_5  and  C_6 
REMARK       I    between atoms: C_6  and  N_8 
REMARK    5  A    between atoms: N_8  and  C_9 
REMARK    6  A    between atoms: C_13  and  N_14 
REMARK    7  A    between atoms: N_14  and  C_15 
REMARK    8  A    between atoms: C_15  and  C_16 
REMARK       I    between atoms: C_16  and  N_18 
REMARK    9  A    between atoms: N_18  and  C_19 
REMARK   10  A    between atoms: C_23  and  C_24 
REMARK       I    between atoms: C_24  and  N_26 
REMARK   11  A    between atoms: N_26  and  C_28 
ROOT
ATOM      1  C   UNL d   1      27.473 -14.697   1.670  0.00  0.00     0.239 C 
ATOM      2  O   UNL d   1      27.745 -15.899   1.730  0.00  0.00    -0.271 OA
ATOM      3  N   UNL d   1      26.846 -14.072   0.578  0.00  0.00    -0.326 N 
ATOM      4  H   UNL d   1      26.742 -13.064   0.565  0.00  0.00     0.169 HD
ENDROOT
BRANCH   1   5
ATOM      5  C   UNL d   1      27.891 -13.786   2.826  0.00  0.00     0.223 C 
BRANCH   5   6
ATOM      6  N   UNL d   1      28.828 -14.497   3.716  0.00  0.00    -0.381 N 
ATOM      7  H   UNL d   1      29.224 -15.360   3.348  0.00  0.00     0.160 HD
BRANCH   6   8
ATOM      8  C   UNL d   1      29.353 -13.921   4.854  0.00  0.00     0.030 A 
ATOM      9  C   UNL d   1      30.334 -12.928   4.791  0.00  0.00     0.029 A 
ATOM     10  C   UNL d   1      30.836 -12.337   5.961  0.00  0.00     0.004 A 
ATOM     11  C   UNL d   1      30.394 -12.763   7.221  0.00  0.00     0.029 A 
ATOM     12  C   UNL d   1      29.439 -13.771   7.302  0.00  0.00     0.036 A 
ATOM     13  C   UNL d   1      28.942 -14.331   6.123  0.00  0.00     0.058 A 
BRANCH  12  14
ATOM     14  N   UNL d   1      28.924 -14.205   8.547  0.00  0.00    -0.327 N 
ATOM     15  C   UNL d   1      28.348 -13.311   9.444  0.00  0.00     0.222 C 
ATOM     16  O   UNL d   1      28.164 -12.124   9.209  0.00  0.00    -0.273 OA
ATOM     17  H   UNL d   1      28.874 -15.200   8.716  0.00  0.00     0.169 HD
BRANCH  15  18
ATOM     18  C   UNL d   1      27.918 -13.915  10.772  0.00  0.00     0.103 C 
BRANCH  18  19
ATOM     19  C   UNL d   1      28.941 -14.983  11.184  0.00  0.00     0.009 C 
BRANCH  19  20
ATOM     20  C   UNL d   1      30.266 -14.387  11.637  0.00  0.00     0.000 C 
BRANCH  20  21
ATOM     21  C   UNL d   1      31.440 -15.150  11.025  0.00  0.00    -0.005 C 
ATOM     22  C   UNL d   1      31.781 -14.597   9.653  0.00  0.00     0.005 C 
ENDBRANCH  20  21
ENDBRANCH  19  20
ENDBRANCH  18  19
ENDBRANCH  15  18
ENDBRANCH  12  14
ENDBRANCH   6   8
ENDBRANCH   5   6
ENDBRANCH   1   5
BRANCH   3  23
ATOM     23  C   UNL d   1      26.283 -14.801  -0.510  0.00  0.00     0.035 C 
ATOM     24  C   UNL d   1      26.731 -14.742  -1.818  0.00  0.00     0.029 C 
ATOM     25  C   UNL d   1      26.042 -15.472  -2.807  0.00  0.00     0.003 C 
ATOM     26  C   UNL d   1      24.877 -16.208  -2.501  0.00  0.00     0.017 C 
ATOM     27  C   UNL d   1      24.386 -16.235  -1.194  0.00  0.00     0.034 C 
ATOM     28  C   UNL d   1      25.178 -15.602  -0.258  0.00  0.00     0.046 C 
BRANCH  27  29
ATOM     29  C   UNL d   1      23.076 -16.916  -0.862  0.00  0.00     0.258 C 
ATOM     30  O   UNL d   1      22.096 -16.175  -0.912  0.00  0.00    -0.267 OA
ATOM     31  N   UNL d   1      22.978 -18.274  -0.424  0.00  0.00    -0.318 N 
ATOM     32  C   UNL d   1      24.031 -19.306  -0.311  0.00  0.00     0.159 C 
BRANCH  31  33
ATOM     33  C   UNL d   1      21.679 -18.852  -0.174  0.00  0.00     0.037 A 
ATOM     34  C   UNL d   1      20.862 -19.213  -1.263  0.00  0.00     0.029 A 
ATOM     35  C   UNL d   1      19.537 -19.592  -1.088  0.00  0.00     0.002 A 
ATOM     36  C   UNL d   1      19.025 -19.699   0.196  0.00  0.00     0.000 A 
ATOM     37  C   UNL d   1      19.825 -19.379   1.294  0.00  0.00     0.002 A 
ATOM     38  C   UNL d   1      21.144 -18.951   1.112  0.00  0.00     0.029 A 
ENDBRANCH  31  33
ENDBRANCH  27  29
ENDBRANCH   3  23
TORSDOF 11
ENDMDL
MODEL 8
REMARK VINA RESULT:    -8.666      3.344      9.655
REMARK INTER + INTRA:         -14.853
REMARK INTER:                 -11.948
REMARK INTRA:                  -2.906
REMARK CONF_INDEPENDENT:        3.281
REMARK UNBOUND:                -2.906
REMARK  11 active torsions:
REMARK  status: ('A' for Active; 'I' for Inactive)
REMARK    1  A    between atoms: C_2  and  C_3 
REMARK    2  A    between atoms: C_3  and  C_4 
REMARK    3  A    between atoms: C_4  and  C_5 
REMARK    4  A    between atoms: C_5  and  C_6 
REMARK       I    between atoms: C_6  and  N_8 
REMARK    5  A    between atoms: N_8  and  C_9 
REMARK    6  A    between atoms: C_13  and  N_14 
REMARK    7  A    between atoms: N_14  and  C_15 
REMARK    8  A    between atoms: C_15  and  C_16 
REMARK       I    between atoms: C_16  and  N_18 
REMARK    9  A    between atoms: N_18  and  C_19 
REMARK   10  A    between atoms: C_23  and  C_24 
REMARK       I    between atoms: C_24  and  N_26 
REMARK   11  A    between atoms: N_26  and  C_28 
ROOT
ATOM      1  C   UNL d   1      25.706 -13.955  -4.029  0.00  0.00     0.239 C 
ATOM      2  O   UNL d   1      24.995 -14.831  -4.529  0.00  0.00    -0.271 OA
ATOM      3  N   UNL d   1      26.220 -13.993  -2.721  0.00  0.00    -0.326 N 
ATOM      4  H   UNL d   1      26.719 -13.191  -2.351  0.00  0.00     0.169 HD
ENDROOT
BRANCH   1   5
ATOM      5  C   UNL d   1      26.016 -12.699  -4.845  0.00  0.00     0.223 C 
BRANCH   5   6
ATOM      6  N   UNL d   1      25.423 -11.515  -4.195  0.00  0.00    -0.381 N 
ATOM      7  H   UNL d   1      24.406 -11.466  -4.202  0.00  0.00     0.160 HD
BRANCH   6   8
ATOM      8  C   UNL d   1      26.154 -10.661  -3.395  0.00  0.00     0.030 A 
ATOM      9  C   UNL d   1      25.983  -9.276  -3.451  0.00  0.00     0.029 A 
ATOM     10  C   UNL d   1      26.719  -8.426  -2.610  0.00  0.00     0.004 A 
ATOM     11  C   UNL d   1      27.673  -8.949  -1.726  0.00  0.00     0.029 A 
ATOM     12  C   UNL d   1      27.875 -10.325  -1.679  0.00  0.00     0.036 A 
ATOM     13  C   UNL d   1      27.118 -11.149  -2.513  0.00  0.00     0.058 A 
BRANCH  12  14
ATOM     14  N   UNL d   1      28.791 -10.908  -0.772  0.00  0.00    -0.327 N 
ATOM     15  C   UNL d   1      28.548 -12.150  -0.195  0.00  0.00     0.222 C 
ATOM     16  O   UNL d   1      27.595 -12.864  -0.476  0.00  0.00    -0.273 OA
ATOM     17  H   UNL d   1      29.686 -10.454  -0.648  0.00  0.00     0.169 HD
BRANCH  15  18
ATOM     18  C   UNL d   1      29.584 -12.604   0.822  0.00  0.00     0.103 C 
BRANCH  18  19
ATOM     19  C   UNL d   1      29.098 -12.222   2.227  0.00  0.00     0.009 C 
BRANCH  19  20
ATOM     20  C   UNL d   1      27.608 -11.920   2.274  0.00  0.00     0.000 C 
BRANCH  20  21
ATOM     21  C   UNL d   1      26.812 -13.173   2.636  0.00  0.00    -0.005 C 
ATOM     22  C   UNL d   1      27.589 -14.039   3.611  0.00  0.00     0.005 C 
ENDBRANCH  20  21
ENDBRANCH  19  20
ENDBRANCH  18  19
ENDBRANCH  15  18
ENDBRANCH  12  14
ENDBRANCH   6   8
ENDBRANCH   5   6
ENDBRANCH   1   5
BRANCH   3  23
ATOM     23  C   UNL d   1      26.130 -15.146  -1.888  0.00  0.00     0.035 C 
ATOM     24  C   UNL d   1      27.204 -15.927  -1.501  0.00  0.00     0.029 C 
ATOM     25  C   UNL d   1      26.963 -17.077  -0.721  0.00  0.00     0.003 C 
ATOM     26  C   UNL d   1      25.652 -17.474  -0.380  0.00  0.00     0.017 C 
ATOM     27  C   UNL d   1      24.556 -16.721  -0.807  0.00  0.00     0.034 C 
ATOM     28  C   UNL d   1      24.872 -15.545  -1.458  0.00  0.00     0.046 C 
BRANCH  27  29
ATOM     29  C   UNL d   1      23.139 -17.188  -0.559  0.00  0.00     0.258 C 
ATOM     30  O   UNL d   1      22.325 -16.276  -0.423  0.00  0.00    -0.267 OA
ATOM     31  N   UNL d   1      22.776 -18.560  -0.388  0.00  0.00    -0.318 N 
ATOM     32  C   UNL d   1      23.605 -19.777  -0.520  0.00  0.00     0.159 C 
BRANCH  31  33
ATOM     33  C   UNL d   1      21.389 -18.914  -0.200  0.00  0.00     0.037 A 
ATOM     34  C   UNL d   1      20.946 -19.319   1.074  0.00  0.00     0.029 A 
ATOM     35  C   UNL d   1      19.677 -19.851   1.271  0.00  0.00     0.002 A 
ATOM     36  C   UNL d   1      18.793 -19.912   0.206  0.00  0.00     0.000 A 
ATOM     37  C   UNL d   1      19.197 -19.486  -1.061  0.00  0.00     0.002 A 
ATOM     38  C   UNL d   1      20.491 -18.995  -1.266  0.00  0.00     0.029 A 
ENDBRANCH  31  33
ENDBRANCH  27  29
ENDBRANCH   3  23
TORSDOF 11
ENDMDL
MODEL 9
REMARK VINA RESULT:    -7.839      6.810     10.477
REMARK INTER + INTRA:         -14.595
REMARK INTER:                 -11.121
REMARK INTRA:                  -3.474
REMARK CONF_INDEPENDENT:        3.281
REMARK UNBOUND:                -3.474
REMARK  11 active torsions:
REMARK  status: ('A' for Active; 'I' for Inactive)
REMARK    1  A    between atoms: C_2  and  C_3 
REMARK    2  A    between atoms: C_3  and  C_4 
REMARK    3  A    between atoms: C_4  and  C_5 
REMARK    4  A    between atoms: C_5  and  C_6 
REMARK       I    between atoms: C_6  and  N_8 
REMARK    5  A    between atoms: N_8  and  C_9 
REMARK    6  A    between atoms: C_13  and  N_14 
REMARK    7  A    between atoms: N_14  and  C_15 
REMARK    8  A    between atoms: C_15  and  C_16 
REMARK       I    between atoms: C_16  and  N_18 
REMARK    9  A    between atoms: N_18  and  C_19 
REMARK   10  A    between atoms: C_23  and  C_24 
REMARK       I    between atoms: C_24  and  N_26 
REMARK   11  A    between atoms: N_26  and  C_28 
ROOT
ATOM      1  C   UNL d   1      25.573  -9.170  -5.734  0.00  0.00     0.239 C 
ATOM      2  O   UNL d   1      26.185  -8.321  -6.388  0.00  0.00    -0.271 OA
ATOM      3  N   UNL d   1      25.694 -10.559  -5.915  0.00  0.00    -0.326 N 
ATOM      4  H   UNL d   1      25.088 -11.190  -5.402  0.00  0.00     0.169 HD
ENDROOT
BRANCH   1   5
ATOM      5  C   UNL d   1      24.559  -8.707  -4.686  0.00  0.00     0.223 C 
BRANCH   5   6
ATOM      6  N   UNL d   1      25.134  -8.836  -3.335  0.00  0.00    -0.381 N 
ATOM      7  H   UNL d   1      24.606  -8.401  -2.581  0.00  0.00     0.160 HD
BRANCH   6   8
ATOM      8  C   UNL d   1      26.166  -9.705  -3.046  0.00  0.00     0.030 A 
ATOM      9  C   UNL d   1      27.431  -9.245  -2.669  0.00  0.00     0.029 A 
ATOM     10  C   UNL d   1      28.460 -10.147  -2.355  0.00  0.00     0.004 A 
ATOM     11  C   UNL d   1      28.252 -11.529  -2.456  0.00  0.00     0.029 A 
ATOM     12  C   UNL d   1      27.008 -12.003  -2.858  0.00  0.00     0.036 A 
ATOM     13  C   UNL d   1      25.996 -11.086  -3.148  0.00  0.00     0.058 A 
BRANCH  12  14
ATOM     14  N   UNL d   1      26.731 -13.389  -2.930  0.00  0.00    -0.327 N 
ATOM     15  C   UNL d   1      25.771 -13.891  -3.803  0.00  0.00     0.222 C 
ATOM     16  O   UNL d   1      25.161 -13.213  -4.618  0.00  0.00    -0.273 OA
ATOM     17  H   UNL d   1      27.336 -14.018  -2.421  0.00  0.00     0.169 HD
BRANCH  15  18
ATOM     18  C   UNL d   1      25.530 -15.390  -3.705  0.00  0.00     0.103 C 
BRANCH  18  19
ATOM     19  C   UNL d   1      25.585 -15.804  -2.227  0.00  0.00     0.009 C 
BRANCH  19  20
ATOM     20  C   UNL d   1      24.796 -17.073  -1.941  0.00  0.00     0.000 C 
BRANCH  20  21
ATOM     21  C   UNL d   1      24.248 -17.061  -0.515  0.00  0.00    -0.005 C 
ATOM     22  C   UNL d   1      22.733 -17.158  -0.521  0.00  0.00     0.005 C 
ENDBRANCH  20  21
ENDBRANCH  19  20
ENDBRANCH  18  19
ENDBRANCH  15  18
ENDBRANCH  12  14
ENDBRANCH   6   8
ENDBRANCH   5   6
ENDBRANCH   1   5
BRANCH   3  23
ATOM     23  C   UNL d   1      26.686 -11.146  -6.753  0.00  0.00     0.035 C 
ATOM     24  C   UNL d   1      27.051 -10.668  -7.999  0.00  0.00     0.029 C 
ATOM     25  C   UNL d   1      28.008 -11.382  -8.749  0.00  0.00     0.003 C 
ATOM     26  C   UNL d   1      28.551 -12.598  -8.281  0.00  0.00     0.017 C 
ATOM     27  C   UNL d   1      28.154 -13.117  -7.046  0.00  0.00     0.034 C 
ATOM     28  C   UNL d   1      27.311 -12.304  -6.314  0.00  0.00     0.046 C 
BRANCH  27  29
ATOM     29  C   UNL d   1      28.629 -14.474  -6.576  0.00  0.00     0.258 C 
ATOM     30  O   UNL d   1      27.736 -15.196  -6.136  0.00  0.00    -0.267 OA
ATOM     31  N   UNL d   1      30.005 -14.862  -6.539  0.00  0.00    -0.318 N 
ATOM     32  C   UNL d   1      31.201 -14.140  -7.024  0.00  0.00     0.159 C 
BRANCH  31  33
ATOM     33  C   UNL d   1      30.360 -16.196  -6.117  0.00  0.00     0.037 A 
ATOM     34  C   UNL d   1      30.770 -17.139  -7.079  0.00  0.00     0.029 A 
ATOM     35  C   UNL d   1      30.938 -18.482  -6.761  0.00  0.00     0.002 A 
ATOM     36  C   UNL d   1      30.779 -18.893  -5.448  0.00  0.00     0.000 A 
ATOM     37  C   UNL d   1      30.405 -17.971  -4.468  0.00  0.00     0.002 A 
ATOM     38  C   UNL d   1      30.190 -16.629  -4.801  0.00  0.00     0.029 A 
ENDBRANCH  31  33
ENDBRANCH  27  29
ENDBRANCH   3  23
TORSDOF 11
ENDMDL
