MODEL 1
REMARK VINA RESULT:   -12.213      0.000      0.000
REMARK INTER + INTRA:         -18.227
REMARK INTER:                 -16.091
REMARK INTRA:                  -2.136
REMARK CONF_INDEPENDENT:        3.878
REMARK UNBOUND:                -2.136
REMARK  13 active torsions:
REMARK  status: ('A' for Active; 'I' for Inactive)
REMARK    1  A    between atoms: C_2  and  N_3 
REMARK    2  A    between atoms: N_3  and  C_4 
REMARK    3  A    between atoms: N_3  and  C_6 
REMARK    4  A    between atoms: C_6  and  C_7 
REMARK    5  A    between atoms: C_7  and  C_8 
REMARK    6  A    between atoms: C_8  and  N_9 
REMARK       I    between atoms: N_9  and  C_10 
REMARK    7  A    between atoms: N_9  and  C_23 
REMARK    8  A    between atoms: C_10  and  C_12 
REMARK    9  A    between atoms: C_15  and  C_16 
REMARK   10  A    between atoms: C_23  and  C_24 
REMARK   11  A    between atoms: C_23  and  C_33 
REMARK       I    between atoms: C_24  and  N_26 
REMARK   12  A    between atoms: N_26  and  C_27 
REMARK   13  A    between atoms: C_36  and  O_37 
ROOT
ATOM      1  N   UNL d   1      27.006 -16.144  -2.082  0.00  0.00    -0.329 N 
ATOM      2  C   UNL d   1      25.554 -16.127  -2.057  0.00  0.00     0.271 C 
ATOM      3  O   UNL d   1      24.844 -15.337  -2.634  0.00  0.00    -0.266 OA
ENDROOT
BRANCH   1   4
ATOM      4  C   UNL d   1      27.900 -17.019  -1.277  0.00  0.00     0.129 C 
BRANCH   4   5
ATOM      5  C   UNL d   1      29.358 -16.731  -1.398  0.00  0.00     0.048 C 
BRANCH   5   6
ATOM      6  C   UNL d   1      30.302 -16.989  -0.273  0.00  0.00     0.236 C 
BRANCH   6   7
ATOM      7  N   UNL d   1      30.188 -15.836   0.770  0.00  0.00    -0.072 N 
ATOM      8  H   UNL d   1      30.030 -16.281   1.692  0.00  0.00     0.279 HD
BRANCH   7   9
ATOM      9  C   UNL d   1      31.498 -15.108   0.748  0.00  0.00     0.230 C 
ATOM     10  C   UNL d   1      31.721 -14.264   1.977  0.00  0.00     0.034 C 
ENDBRANCH   7   9
BRANCH   7  11
ATOM     11  C   UNL d   1      29.045 -14.860   0.499  0.00  0.00     0.230 C 
ATOM     12  C   UNL d   1      27.898 -14.916   1.510  0.00  0.00     0.034 C 
ENDBRANCH   7  11
ENDBRANCH   6   7
ENDBRANCH   5   6
ENDBRANCH   4   5
ENDBRANCH   1   4
BRANCH   1  13
ATOM     13  C   UNL d   1      27.752 -15.120  -2.930  0.00  0.00     0.212 C 
BRANCH  13  14
ATOM     14  C   UNL d   1      28.215 -15.636  -4.356  0.00  0.00     0.245 C 
ATOM     15  O   UNL d   1      27.483 -15.546  -5.343  0.00  0.00    -0.271 OA
ATOM     16  N   UNL d   1      29.487 -16.171  -4.496  0.00  0.00    -0.354 N 
ATOM     17  H   UNL d   1      30.217 -15.884  -3.860  0.00  0.00     0.162 HD
BRANCH  16  18
ATOM     18  C   UNL d   1      29.893 -16.860  -5.725  0.00  0.00     0.084 C 
ATOM     19  C   UNL d   1      30.969 -16.034  -6.456  0.00  0.00     0.025 C 
ATOM     20  C   UNL d   1      31.557 -16.773  -7.660  0.00  0.00     0.002 C 
ATOM     21  C   UNL d   1      32.088 -18.150  -7.277  0.00  0.00     0.000 C 
ATOM     22  C   UNL d   1      31.001 -18.974  -6.616  0.00  0.00     0.002 C 
ATOM     23  C   UNL d   1      30.449 -18.259  -5.403  0.00  0.00     0.025 C 
ENDBRANCH  16  18
ENDBRANCH  13  14
BRANCH  13  24
ATOM     24  C   UNL d   1      26.975 -13.833  -3.163  0.00  0.00    -0.026 A 
ATOM     25  C   UNL d   1      27.196 -12.748  -2.277  0.00  0.00     0.012 A 
ATOM     26  C   UNL d   1      26.619 -11.509  -2.498  0.00  0.00     0.037 A 
ATOM     27  C   UNL d   1      25.820 -11.343  -3.617  0.00  0.00     0.065 A 
ATOM     28  C   UNL d   1      25.549 -12.406  -4.479  0.00  0.00     0.037 A 
ATOM     29  C   UNL d   1      26.128 -13.658  -4.260  0.00  0.00     0.012 A 
BRANCH  27  30
ATOM     30  O   UNL d   1      25.303 -10.120  -3.926  0.00  0.00    -0.361 OA
ATOM     31  H   UNL d   1      24.762 -10.218  -4.727  0.00  0.00     0.217 HD
ENDBRANCH  27  30
ENDBRANCH  13  24
ENDBRANCH   1  13
BRANCH   2  32
ATOM     32  C   UNL d   1      24.794 -17.076  -1.280  0.00  0.00     0.101 C 
ATOM     33  C   UNL d   1      25.203 -17.717  -0.130  0.00  0.00     0.037 C 
ATOM     34  C   UNL d   1      24.166 -18.565   0.242  0.00  0.00     0.033 C 
ATOM     35  C   UNL d   1      23.060 -18.282  -0.508  0.00  0.00     0.043 C 
ATOM     36  N   UNL d   1      23.419 -17.250  -1.345  0.00  0.00    -0.351 N 
ATOM     37  H   UNL d   1      22.784 -16.657  -1.866  0.00  0.00     0.166 HD
BRANCH  35  38
ATOM     38  C   UNL d   1      21.730 -18.751  -0.192  0.00  0.00    -0.009 C 
ATOM     39  C   UNL d   1      21.297 -18.950   1.111  0.00  0.00     0.013 C 
ATOM     40  C   UNL d   1      20.057 -19.551   1.318  0.00  0.00     0.001 C 
ATOM     41  C   UNL d   1      19.214 -19.838   0.239  0.00  0.00     0.000 C 
ATOM     42  C   UNL d   1      19.605 -19.541  -1.060  0.00  0.00     0.001 C 
ATOM     43  C   UNL d   1      20.859 -18.998  -1.272  0.00  0.00     0.013 C 
ENDBRANCH  35  38
ENDBRANCH   2  32
TORSDOF 13
ENDMDL
MODEL 2
REMARK VINA RESULT:   -11.690      2.395      5.210
REMARK INTER + INTRA:         -18.726
REMARK INTER:                 -15.568
REMARK INTRA:                  -3.158
REMARK CONF_INDEPENDENT:        3.878
REMARK UNBOUND:                -3.158
REMARK  13 active torsions:
REMARK  status: ('A' for Active; 'I' for Inactive)
REMARK    1  A    between atoms: C_2  and  N_3 
REMARK    2  A    between atoms: N_3  and  C_4 
REMARK    3  A    between atoms: N_3  and  C_6 
REMARK    4  A    between atoms: C_6  and  C_7 
REMARK    5  A    between atoms: C_7  and  C_8 
REMARK    6  A    between atoms: C_8  and  N_9 
REMARK       I    between atoms: N_9  and  C_10 
REMARK    7  A    between atoms: N_9  and  C_23 
REMARK    8  A    between atoms: C_10  and  C_12 
REMARK    9  A    between atoms: C_15  and  C_16 
REMARK   10  A    between atoms: C_23  and  C_24 
REMARK   11  A    between atoms: C_23  and  C_33 
REMARK       I    between atoms: C_24  and  N_26 
REMARK   12  A    between atoms: N_26  and  C_27 
REMARK   13  A    between atoms: C_36  and  O_37 
ROOT
ATOM      1  N   UNL d   1      25.305 -15.627  -1.028  0.00  0.00    -0.329 N 
ATOM      2  C   UNL d   1      23.941 -15.950  -1.406  0.00  0.00     0.271 C 
ATOM      3  O   UNL d   1      23.186 -15.232  -2.020  0.00  0.00    -0.266 OA
ENDROOT
BRANCH   1   4
ATOM      4  C   UNL d   1      26.204 -16.436  -0.162  0.00  0.00     0.129 C 
BRANCH   4   5
ATOM      5  C   UNL d   1      27.279 -17.186  -0.875  0.00  0.00     0.048 C 
BRANCH   5   6
ATOM      6  C   UNL d   1      28.232 -18.070  -0.145  0.00  0.00     0.236 C 
BRANCH   6   7
ATOM      7  N   UNL d   1      29.646 -17.414  -0.146  0.00  0.00    -0.072 N 
ATOM      8  H   UNL d   1      30.144 -17.775   0.689  0.00  0.00     0.279 HD
BRANCH   7   9
ATOM      9  C   UNL d   1      30.325 -17.861  -1.405  0.00  0.00     0.230 C 
ATOM     10  C   UNL d   1      31.308 -16.847  -1.933  0.00  0.00     0.034 C 
ENDBRANCH   7   9
BRANCH   7  11
ATOM     11  C   UNL d   1      29.627 -15.888  -0.078  0.00  0.00     0.230 C 
ATOM     12  C   UNL d   1      30.617 -15.275   0.916  0.00  0.00     0.034 C 
ENDBRANCH   7  11
ENDBRANCH   6   7
ENDBRANCH   5   6
ENDBRANCH   4   5
ENDBRANCH   1   4
BRANCH   1  13
ATOM     13  C   UNL d   1      25.905 -14.293  -1.456  0.00  0.00     0.212 C 
BRANCH  13  14
ATOM     14  C   UNL d   1      26.968 -13.679  -0.452  0.00  0.00     0.245 C 
ATOM     15  O   UNL d   1      28.049 -13.240  -0.847  0.00  0.00    -0.271 OA
ATOM     16  N   UNL d   1      26.654 -13.608   0.897  0.00  0.00    -0.354 N 
ATOM     17  H   UNL d   1      25.685 -13.557   1.177  0.00  0.00     0.162 HD
BRANCH  16  18
ATOM     18  C   UNL d   1      27.667 -13.258   1.898  0.00  0.00     0.084 C 
ATOM     19  C   UNL d   1      27.190 -12.047   2.723  0.00  0.00     0.025 C 
ATOM     20  C   UNL d   1      28.124 -11.732   3.893  0.00  0.00     0.002 C 
ATOM     21  C   UNL d   1      28.349 -12.948   4.784  0.00  0.00     0.000 C 
ATOM     22  C   UNL d   1      28.877 -14.113   3.971  0.00  0.00     0.002 C 
ATOM     23  C   UNL d   1      27.933 -14.448   2.838  0.00  0.00     0.025 C 
ENDBRANCH  16  18
ENDBRANCH  13  14
BRANCH  13  24
ATOM     24  C   UNL d   1      26.569 -14.329  -2.825  0.00  0.00    -0.026 A 
ATOM     25  C   UNL d   1      27.686 -15.183  -3.005  0.00  0.00     0.012 A 
ATOM     26  C   UNL d   1      28.264 -15.361  -4.250  0.00  0.00     0.037 A 
ATOM     27  C   UNL d   1      27.720 -14.688  -5.332  0.00  0.00     0.065 A 
ATOM     28  C   UNL d   1      26.651 -13.806  -5.175  0.00  0.00     0.037 A 
ATOM     29  C   UNL d   1      26.065 -13.623  -3.920  0.00  0.00     0.012 A 
BRANCH  27  30
ATOM     30  O   UNL d   1      28.197 -14.899  -6.592  0.00  0.00    -0.361 OA
ATOM     31  H   UNL d   1      29.062 -14.461  -6.661  0.00  0.00     0.217 HD
ENDBRANCH  27  30
ENDBRANCH  13  24
ENDBRANCH   1  13
BRANCH   2  32
ATOM     32  C   UNL d   1      23.324 -17.201  -1.036  0.00  0.00     0.101 C 
ATOM     33  C   UNL d   1      23.962 -18.399  -0.803  0.00  0.00     0.037 C 
ATOM     34  C   UNL d   1      22.969 -19.330  -0.521  0.00  0.00     0.033 C 
ATOM     35  C   UNL d   1      21.779 -18.683  -0.346  0.00  0.00     0.043 C 
ATOM     36  N   UNL d   1      22.044 -17.343  -0.518  0.00  0.00    -0.351 N 
ATOM     37  H   UNL d   1      21.442 -16.576  -0.241  0.00  0.00     0.166 HD
BRANCH  35  38
ATOM     38  C   UNL d   1      20.610 -19.290   0.248  0.00  0.00    -0.009 C 
ATOM     39  C   UNL d   1      20.442 -19.404   1.621  0.00  0.00     0.013 C 
ATOM     40  C   UNL d   1      19.362 -20.141   2.102  0.00  0.00     0.001 C 
ATOM     41  C   UNL d   1      18.400 -20.655   1.225  0.00  0.00     0.000 C 
ATOM     42  C   UNL d   1      18.513 -20.450  -0.144  0.00  0.00     0.001 C 
ATOM     43  C   UNL d   1      19.615 -19.768  -0.628  0.00  0.00     0.013 C 
ENDBRANCH  35  38
ENDBRANCH   2  32
TORSDOF 13
ENDMDL
MODEL 3
REMARK VINA RESULT:   -11.115      2.679      3.701
REMARK INTER + INTRA:         -17.523
REMARK INTER:                 -14.992
REMARK INTRA:                  -2.531
REMARK CONF_INDEPENDENT:        3.878
REMARK UNBOUND:                -2.531
REMARK  13 active torsions:
REMARK  status: ('A' for Active; 'I' for Inactive)
REMARK    1  A    between atoms: C_2  and  N_3 
REMARK    2  A    between atoms: N_3  and  C_4 
REMARK    3  A    between atoms: N_3  and  C_6 
REMARK    4  A    between atoms: C_6  and  C_7 
REMARK    5  A    between atoms: C_7  and  C_8 
REMARK    6  A    between atoms: C_8  and  N_9 
REMARK       I    between atoms: N_9  and  C_10 
REMARK    7  A    between atoms: N_9  and  C_23 
REMARK    8  A    between atoms: C_10  and  C_12 
REMARK    9  A    between atoms: C_15  and  C_16 
REMARK   10  A    between atoms: C_23  and  C_24 
REMARK   11  A    between atoms: C_23  and  C_33 
REMARK       I    between atoms: C_24  and  N_26 
REMARK   12  A    between atoms: N_26  and  C_27 
REMARK   13  A    between atoms: C_36  and  O_37 
ROOT
ATOM      1  N   UNL d   1      26.119 -16.241  -1.517  0.00  0.00    -0.329 N 
ATOM      2  C   UNL d   1      24.668 -16.244  -1.444  0.00  0.00     0.271 C 
ATOM      3  O   UNL d   1      23.943 -15.310  -1.695  0.00  0.00    -0.266 OA
ENDROOT
BRANCH   1   4
ATOM      4  C   UNL d   1      27.035 -17.332  -1.088  0.00  0.00     0.129 C 
BRANCH   4   5
ATOM      5  C   UNL d   1      28.138 -16.921  -0.174  0.00  0.00     0.048 C 
BRANCH   5   6
ATOM      6  C   UNL d   1      29.532 -16.727  -0.667  0.00  0.00     0.236 C 
BRANCH   6   7
ATOM      7  N   UNL d   1      30.493 -16.572   0.550  0.00  0.00    -0.072 N 
ATOM      8  H   UNL d   1      30.034 -17.038   1.355  0.00  0.00     0.279 HD
BRANCH   7   9
ATOM      9  C   UNL d   1      31.766 -17.274   0.184  0.00  0.00     0.230 C 
ATOM     10  C   UNL d   1      32.996 -16.475   0.531  0.00  0.00     0.034 C 
ENDBRANCH   7   9
BRANCH   7  11
ATOM     11  C   UNL d   1      30.789 -15.123   0.933  0.00  0.00     0.230 C 
ATOM     12  C   UNL d   1      29.705 -14.445   1.774  0.00  0.00     0.034 C 
ENDBRANCH   7  11
ENDBRANCH   6   7
ENDBRANCH   5   6
ENDBRANCH   4   5
ENDBRANCH   1   4
BRANCH   1  13
ATOM     13  C   UNL d   1      26.842 -14.984  -1.987  0.00  0.00     0.212 C 
BRANCH  13  14
ATOM     14  C   UNL d   1      26.276 -14.339  -3.321  0.00  0.00     0.245 C 
ATOM     15  O   UNL d   1      25.200 -14.695  -3.803  0.00  0.00    -0.271 OA
ATOM     16  N   UNL d   1      26.998 -13.328  -3.936  0.00  0.00    -0.354 N 
ATOM     17  H   UNL d   1      27.614 -12.751  -3.382  0.00  0.00     0.162 HD
BRANCH  16  18
ATOM     18  C   UNL d   1      26.646 -12.846  -5.276  0.00  0.00     0.084 C 
ATOM     19  C   UNL d   1      25.902 -11.500  -5.168  0.00  0.00     0.025 C 
ATOM     20  C   UNL d   1      25.650 -10.860  -6.535  0.00  0.00     0.002 C 
ATOM     21  C   UNL d   1      26.937 -10.713  -7.339  0.00  0.00     0.000 C 
ATOM     22  C   UNL d   1      27.625 -12.055  -7.491  0.00  0.00     0.002 C 
ATOM     23  C   UNL d   1      27.909 -12.669  -6.138  0.00  0.00     0.025 C 
ENDBRANCH  16  18
ENDBRANCH  13  14
BRANCH  13  24
ATOM     24  C   UNL d   1      26.880 -13.873  -0.948  0.00  0.00    -0.026 A 
ATOM     25  C   UNL d   1      26.288 -14.119   0.316  0.00  0.00     0.012 A 
ATOM     26  C   UNL d   1      26.391 -13.204   1.351  0.00  0.00     0.037 A 
ATOM     27  C   UNL d   1      27.099 -12.033   1.128  0.00  0.00     0.065 A 
ATOM     28  C   UNL d   1      27.651 -11.746  -0.120  0.00  0.00     0.037 A 
ATOM     29  C   UNL d   1      27.548 -12.665  -1.167  0.00  0.00     0.012 A 
BRANCH  27  30
ATOM     30  O   UNL d   1      27.303 -11.143   2.139  0.00  0.00    -0.361 OA
ATOM     31  H   UNL d   1      26.725 -11.392   2.879  0.00  0.00     0.217 HD
ENDBRANCH  27  30
ENDBRANCH  13  24
ENDBRANCH   1  13
BRANCH   2  32
ATOM     32  C   UNL d   1      23.930 -17.407  -1.014  0.00  0.00     0.101 C 
ATOM     33  C   UNL d   1      24.455 -18.583  -0.523  0.00  0.00     0.037 C 
ATOM     34  C   UNL d   1      23.377 -19.428  -0.282  0.00  0.00     0.033 C 
ATOM     35  C   UNL d   1      22.214 -18.720  -0.390  0.00  0.00     0.043 C 
ATOM     36  N   UNL d   1      22.580 -17.429  -0.696  0.00  0.00    -0.351 N 
ATOM     37  H   UNL d   1      21.988 -16.609  -0.624  0.00  0.00     0.166 HD
BRANCH  35  38
ATOM     38  C   UNL d   1      20.934 -19.195   0.083  0.00  0.00    -0.009 C 
ATOM     39  C   UNL d   1      20.637 -19.326   1.432  0.00  0.00     0.013 C 
ATOM     40  C   UNL d   1      19.439 -19.936   1.796  0.00  0.00     0.001 C 
ATOM     41  C   UNL d   1      18.501 -20.303   0.825  0.00  0.00     0.000 C 
ATOM     42  C   UNL d   1      18.754 -20.076  -0.521  0.00  0.00     0.001 C 
ATOM     43  C   UNL d   1      19.967 -19.522  -0.888  0.00  0.00     0.013 C 
ENDBRANCH  35  38
ENDBRANCH   2  32
TORSDOF 13
ENDMDL
MODEL 4
REMARK VINA RESULT:   -10.998      1.031      1.852
REMARK INTER + INTRA:         -17.858
REMARK INTER:                 -14.876
REMARK INTRA:                  -2.983
REMARK CONF_INDEPENDENT:        3.878
REMARK UNBOUND:                -2.983
REMARK  13 active torsions:
REMARK  status: ('A' for Active; 'I' for Inactive)
REMARK    1  A    between atoms: C_2  and  N_3 
REMARK    2  A    between atoms: N_3  and  C_4 
REMARK    3  A    between atoms: N_3  and  C_6 
REMARK    4  A    between atoms: C_6  and  C_7 
REMARK    5  A    between atoms: C_7  and  C_8 
REMARK    6  A    between atoms: C_8  and  N_9 
REMARK       I    between atoms: N_9  and  C_10 
REMARK    7  A    between atoms: N_9  and  C_23 
REMARK    8  A    between atoms: C_10  and  C_12 
REMARK    9  A    between atoms: C_15  and  C_16 
REMARK   10  A    between atoms: C_23  and  C_24 
REMARK   11  A    between atoms: C_23  and  C_33 
REMARK       I    between atoms: C_24  and  N_26 
REMARK   12  A    between atoms: N_26  and  C_27 
REMARK   13  A    between atoms: C_36  and  O_37 
ROOT
ATOM      1  N   UNL d   1      26.849 -15.523  -1.518  0.00  0.00    -0.329 N 
ATOM      2  C   UNL d   1      25.790 -16.326  -2.101  0.00  0.00     0.271 C 
ATOM      3  O   UNL d   1      25.461 -16.330  -3.265  0.00  0.00    -0.266 OA
ENDROOT
BRANCH   1   4
ATOM      4  C   UNL d   1      27.182 -15.402  -0.073  0.00  0.00     0.129 C 
BRANCH   4   5
ATOM      5  C   UNL d   1      28.218 -16.350   0.428  0.00  0.00     0.048 C 
BRANCH   5   6
ATOM      6  C   UNL d   1      28.793 -17.414  -0.445  0.00  0.00     0.236 C 
BRANCH   6   7
ATOM      7  N   UNL d   1      30.321 -17.543  -0.161  0.00  0.00    -0.072 N 
ATOM      8  H   UNL d   1      30.418 -17.818   0.833  0.00  0.00     0.279 HD
BRANCH   7   9
ATOM      9  C   UNL d   1      30.835 -18.622  -1.065  0.00  0.00     0.230 C 
ATOM     10  C   UNL d   1      32.184 -18.300  -1.655  0.00  0.00     0.034 C 
ENDBRANCH   7   9
BRANCH   7  11
ATOM     11  C   UNL d   1      31.110 -16.254  -0.388  0.00  0.00     0.230 C 
ATOM     12  C   UNL d   1      32.363 -16.106   0.478  0.00  0.00     0.034 C 
ENDBRANCH   7  11
ENDBRANCH   6   7
ENDBRANCH   5   6
ENDBRANCH   4   5
ENDBRANCH   1   4
BRANCH   1  13
ATOM     13  C   UNL d   1      27.683 -14.616  -2.415  0.00  0.00     0.212 C 
BRANCH  13  14
ATOM     14  C   UNL d   1      28.454 -15.353  -3.589  0.00  0.00     0.245 C 
ATOM     15  O   UNL d   1      27.850 -15.943  -4.486  0.00  0.00    -0.271 OA
ATOM     16  N   UNL d   1      29.839 -15.301  -3.617  0.00  0.00    -0.354 N 
ATOM     17  H   UNL d   1      30.315 -14.524  -3.182  0.00  0.00     0.162 HD
BRANCH  16  18
ATOM     18  C   UNL d   1      30.614 -16.138  -4.540  0.00  0.00     0.084 C 
ATOM     19  C   UNL d   1      30.233 -17.619  -4.348  0.00  0.00     0.025 C 
ATOM     20  C   UNL d   1      30.881 -18.530  -5.392  0.00  0.00     0.002 C 
ATOM     21  C   UNL d   1      30.584 -18.066  -6.814  0.00  0.00     0.000 C 
ATOM     22  C   UNL d   1      31.022 -16.628  -7.007  0.00  0.00     0.002 C 
ATOM     23  C   UNL d   1      30.349 -15.723  -5.999  0.00  0.00     0.025 C 
ENDBRANCH  16  18
ENDBRANCH  13  14
BRANCH  13  24
ATOM     24  C   UNL d   1      26.886 -13.489  -3.058  0.00  0.00    -0.026 A 
ATOM     25  C   UNL d   1      26.876 -12.226  -2.414  0.00  0.00     0.012 A 
ATOM     26  C   UNL d   1      26.277 -11.123  -3.001  0.00  0.00     0.037 A 
ATOM     27  C   UNL d   1      25.689 -11.276  -4.246  0.00  0.00     0.065 A 
ATOM     28  C   UNL d   1      25.644 -12.518  -4.879  0.00  0.00     0.037 A 
ATOM     29  C   UNL d   1      26.246 -13.633  -4.291  0.00  0.00     0.012 A 
BRANCH  27  30
ATOM     30  O   UNL d   1      25.165 -10.203  -4.903  0.00  0.00    -0.361 OA
ATOM     31  H   UNL d   1      24.377  -9.910  -4.416  0.00  0.00     0.217 HD
ENDBRANCH  27  30
ENDBRANCH  13  24
ENDBRANCH   1  13
BRANCH   2  32
ATOM     32  C   UNL d   1      24.974 -17.208  -1.302  0.00  0.00     0.101 C 
ATOM     33  C   UNL d   1      25.316 -17.784  -0.098  0.00  0.00     0.037 C 
ATOM     34  C   UNL d   1      24.244 -18.585   0.278  0.00  0.00     0.033 C 
ATOM     35  C   UNL d   1      23.180 -18.328  -0.538  0.00  0.00     0.043 C 
ATOM     36  N   UNL d   1      23.600 -17.358  -1.420  0.00  0.00    -0.351 N 
ATOM     37  H   UNL d   1      23.002 -16.786  -2.006  0.00  0.00     0.166 HD
BRANCH  35  38
ATOM     38  C   UNL d   1      21.826 -18.748  -0.255  0.00  0.00    -0.009 C 
ATOM     39  C   UNL d   1      21.360 -18.951   1.036  0.00  0.00     0.013 C 
ATOM     40  C   UNL d   1      20.094 -19.504   1.209  0.00  0.00     0.001 C 
ATOM     41  C   UNL d   1      19.261 -19.742   0.110  0.00  0.00     0.000 C 
ATOM     42  C   UNL d   1      19.689 -19.441  -1.177  0.00  0.00     0.001 C 
ATOM     43  C   UNL d   1      20.968 -18.945  -1.356  0.00  0.00     0.013 C 
ENDBRANCH  35  38
ENDBRANCH   2  32
TORSDOF 13
ENDMDL
MODEL 5
REMARK VINA RESULT:   -10.535      2.027      4.296
REMARK INTER + INTRA:         -18.638
REMARK INTER:                 -14.413
REMARK INTRA:                  -4.226
REMARK CONF_INDEPENDENT:        3.878
REMARK UNBOUND:                -4.226
REMARK  13 active torsions:
REMARK  status: ('A' for Active; 'I' for Inactive)
REMARK    1  A    between atoms: C_2  and  N_3 
REMARK    2  A    between atoms: N_3  and  C_4 
REMARK    3  A    between atoms: N_3  and  C_6 
REMARK    4  A    between atoms: C_6  and  C_7 
REMARK    5  A    between atoms: C_7  and  C_8 
REMARK    6  A    between atoms: C_8  and  N_9 
REMARK       I    between atoms: N_9  and  C_10 
REMARK    7  A    between atoms: N_9  and  C_23 
REMARK    8  A    between atoms: C_10  and  C_12 
REMARK    9  A    between atoms: C_15  and  C_16 
REMARK   10  A    between atoms: C_23  and  C_24 
REMARK   11  A    between atoms: C_23  and  C_33 
REMARK       I    between atoms: C_24  and  N_26 
REMARK   12  A    between atoms: N_26  and  C_27 
REMARK   13  A    between atoms: C_36  and  O_37 
ROOT
ATOM      1  N   UNL d   1      25.814 -16.741  -0.968  0.00  0.00    -0.329 N 
ATOM      2  C   UNL d   1      25.093 -17.630  -0.075  0.00  0.00     0.271 C 
ATOM      3  O   UNL d   1      25.500 -18.056   0.981  0.00  0.00    -0.266 OA
ENDROOT
BRANCH   1   4
ATOM      4  C   UNL d   1      25.391 -16.311  -2.328  0.00  0.00     0.129 C 
BRANCH   4   5
ATOM      5  C   UNL d   1      24.698 -14.992  -2.398  0.00  0.00     0.048 C 
BRANCH   5   6
ATOM      6  C   UNL d   1      24.777 -14.131  -3.613  0.00  0.00     0.236 C 
BRANCH   6   7
ATOM      7  N   UNL d   1      26.118 -13.336  -3.594  0.00  0.00    -0.072 N 
ATOM      8  H   UNL d   1      26.833 -13.965  -3.184  0.00  0.00     0.279 HD
BRANCH   7   9
ATOM      9  C   UNL d   1      26.446 -13.017  -5.021  0.00  0.00     0.230 C 
ATOM     10  C   UNL d   1      25.965 -11.652  -5.443  0.00  0.00     0.034 C 
ENDBRANCH   7   9
BRANCH   7  11
ATOM     11  C   UNL d   1      26.071 -12.051  -2.771  0.00  0.00     0.230 C 
ATOM     12  C   UNL d   1      27.437 -11.517  -2.332  0.00  0.00     0.034 C 
ENDBRANCH   7  11
ENDBRANCH   6   7
ENDBRANCH   5   6
ENDBRANCH   4   5
ENDBRANCH   1   4
BRANCH   1  13
ATOM     13  C   UNL d   1      27.195 -16.235  -0.568  0.00  0.00     0.212 C 
BRANCH  13  14
ATOM     14  C   UNL d   1      28.082 -15.683  -1.762  0.00  0.00     0.245 C 
ATOM     15  O   UNL d   1      27.981 -14.520  -2.155  0.00  0.00    -0.271 OA
ATOM     16  N   UNL d   1      29.013 -16.525  -2.350  0.00  0.00    -0.354 N 
ATOM     17  H   UNL d   1      29.402 -17.287  -1.813  0.00  0.00     0.162 HD
BRANCH  16  18
ATOM     18  C   UNL d   1      29.703 -16.151  -3.589  0.00  0.00     0.084 C 
ATOM     19  C   UNL d   1      30.469 -17.367  -4.148  0.00  0.00     0.025 C 
ATOM     20  C   UNL d   1      31.076 -17.092  -5.525  0.00  0.00     0.002 C 
ATOM     21  C   UNL d   1      30.031 -16.598  -6.519  0.00  0.00     0.000 C 
ATOM     22  C   UNL d   1      29.329 -15.366  -5.984  0.00  0.00     0.002 C 
ATOM     23  C   UNL d   1      28.696 -15.650  -4.640  0.00  0.00     0.025 C 
ENDBRANCH  16  18
ENDBRANCH  13  14
BRANCH  13  24
ATOM     24  C   UNL d   1      27.165 -15.144   0.493  0.00  0.00    -0.026 A 
ATOM     25  C   UNL d   1      28.121 -15.201   1.537  0.00  0.00     0.012 A 
ATOM     26  C   UNL d   1      28.234 -14.180   2.467  0.00  0.00     0.037 A 
ATOM     27  C   UNL d   1      27.391 -13.087   2.352  0.00  0.00     0.065 A 
ATOM     28  C   UNL d   1      26.410 -13.028   1.362  0.00  0.00     0.037 A 
ATOM     29  C   UNL d   1      26.292 -14.055   0.423  0.00  0.00     0.012 A 
BRANCH  27  30
ATOM     30  O   UNL d   1      27.522 -12.019   3.188  0.00  0.00    -0.361 OA
ATOM     31  H   UNL d   1      28.349 -11.561   2.961  0.00  0.00     0.217 HD
ENDBRANCH  27  30
ENDBRANCH  13  24
ENDBRANCH   1  13
BRANCH   2  32
ATOM     32  C   UNL d   1      23.780 -18.134  -0.397  0.00  0.00     0.101 C 
ATOM     33  C   UNL d   1      23.345 -18.579  -1.626  0.00  0.00     0.037 C 
ATOM     34  C   UNL d   1      22.008 -18.926  -1.473  0.00  0.00     0.033 C 
ATOM     35  C   UNL d   1      21.691 -18.928  -0.145  0.00  0.00     0.043 C 
ATOM     36  N   UNL d   1      22.843 -18.582   0.524  0.00  0.00    -0.351 N 
ATOM     37  H   UNL d   1      23.018 -18.707   1.515  0.00  0.00     0.166 HD
BRANCH  35  38
ATOM     38  C   UNL d   1      20.491 -19.525   0.398  0.00  0.00    -0.009 C 
ATOM     39  C   UNL d   1      20.281 -19.673   1.761  0.00  0.00     0.013 C 
ATOM     40  C   UNL d   1      19.172 -20.398   2.191  0.00  0.00     0.001 C 
ATOM     41  C   UNL d   1      18.226 -20.866   1.273  0.00  0.00     0.000 C 
ATOM     42  C   UNL d   1      18.383 -20.626  -0.086  0.00  0.00     0.001 C 
ATOM     43  C   UNL d   1      19.513 -19.956  -0.519  0.00  0.00     0.013 C 
ENDBRANCH  35  38
ENDBRANCH   2  32
TORSDOF 13
ENDMDL
MODEL 6
REMARK VINA RESULT:   -10.407      2.016      4.323
REMARK INTER + INTRA:         -18.276
REMARK INTER:                 -14.285
REMARK INTRA:                  -3.991
REMARK CONF_INDEPENDENT:        3.878
REMARK UNBOUND:                -3.991
REMARK  13 active torsions:
REMARK  status: ('A' for Active; 'I' for Inactive)
REMARK    1  A    between atoms: C_2  and  N_3 
REMARK    2  A    between atoms: N_3  and  C_4 
REMARK    3  A    between atoms: N_3  and  C_6 
REMARK    4  A    between atoms: C_6  and  C_7 
REMARK    5  A    between atoms: C_7  and  C_8 
REMARK    6  A    between atoms: C_8  and  N_9 
REMARK       I    between atoms: N_9  and  C_10 
REMARK    7  A    between atoms: N_9  and  C_23 
REMARK    8  A    between atoms: C_10  and  C_12 
REMARK    9  A    between atoms: C_15  and  C_16 
REMARK   10  A    between atoms: C_23  and  C_24 
REMARK   11  A    between atoms: C_23  and  C_33 
REMARK       I    between atoms: C_24  and  N_26 
REMARK   12  A    between atoms: N_26  and  C_27 
REMARK   13  A    between atoms: C_36  and  O_37 
ROOT
ATOM      1  N   UNL d   1      26.095 -16.787  -0.956  0.00  0.00    -0.329 N 
ATOM      2  C   UNL d   1      25.327 -17.653  -0.078  0.00  0.00     0.271 C 
ATOM      3  O   UNL d   1      25.707 -18.111   0.975  0.00  0.00    -0.266 OA
ENDROOT
BRANCH   1   4
ATOM      4  C   UNL d   1      25.702 -16.321  -2.312  0.00  0.00     0.129 C 
BRANCH   4   5
ATOM      5  C   UNL d   1      24.777 -15.151  -2.346  0.00  0.00     0.048 C 
BRANCH   5   6
ATOM      6  C   UNL d   1      24.822 -14.149  -3.449  0.00  0.00     0.236 C 
BRANCH   6   7
ATOM      7  N   UNL d   1      26.244 -13.512  -3.509  0.00  0.00    -0.072 N 
ATOM      8  H   UNL d   1      26.788 -13.922  -2.728  0.00  0.00     0.279 HD
BRANCH   7   9
ATOM      9  C   UNL d   1      26.833 -13.901  -4.831  0.00  0.00     0.230 C 
ATOM     10  C   UNL d   1      26.282 -15.201  -5.359  0.00  0.00     0.034 C 
ENDBRANCH   7   9
BRANCH   7  11
ATOM     11  C   UNL d   1      26.253 -11.991  -3.362  0.00  0.00     0.230 C 
ATOM     12  C   UNL d   1      26.066 -11.217  -4.668  0.00  0.00     0.034 C 
ENDBRANCH   7  11
ENDBRANCH   6   7
ENDBRANCH   5   6
ENDBRANCH   4   5
ENDBRANCH   1   4
BRANCH   1  13
ATOM     13  C   UNL d   1      27.496 -16.352  -0.541  0.00  0.00     0.212 C 
BRANCH  13  14
ATOM     14  C   UNL d   1      28.488 -16.044  -1.739  0.00  0.00     0.245 C 
ATOM     15  O   UNL d   1      28.535 -14.932  -2.268  0.00  0.00    -0.271 OA
ATOM     16  N   UNL d   1      29.343 -17.045  -2.176  0.00  0.00    -0.354 N 
ATOM     17  H   UNL d   1      29.621 -17.773  -1.535  0.00  0.00     0.162 HD
BRANCH  16  18
ATOM     18  C   UNL d   1      30.122 -16.896  -3.411  0.00  0.00     0.084 C 
ATOM     19  C   UNL d   1      30.678 -18.267  -3.845  0.00  0.00     0.025 C 
ATOM     20  C   UNL d   1      31.361 -18.214  -5.213  0.00  0.00     0.002 C 
ATOM     21  C   UNL d   1      30.446 -17.628  -6.283  0.00  0.00     0.000 C 
ATOM     22  C   UNL d   1      29.957 -16.254  -5.871  0.00  0.00     0.002 C 
ATOM     23  C   UNL d   1      29.247 -16.315  -4.536  0.00  0.00     0.025 C 
ENDBRANCH  16  18
ENDBRANCH  13  14
BRANCH  13  24
ATOM     24  C   UNL d   1      27.515 -15.130   0.366  0.00  0.00    -0.026 A 
ATOM     25  C   UNL d   1      26.786 -13.984  -0.039  0.00  0.00     0.012 A 
ATOM     26  C   UNL d   1      26.657 -12.882   0.790  0.00  0.00     0.037 A 
ATOM     27  C   UNL d   1      27.253 -12.924   2.040  0.00  0.00     0.065 A 
ATOM     28  C   UNL d   1      28.016 -14.019   2.444  0.00  0.00     0.037 A 
ATOM     29  C   UNL d   1      28.150 -15.133   1.611  0.00  0.00     0.012 A 
BRANCH  27  30
ATOM     30  O   UNL d   1      27.081 -11.902   2.925  0.00  0.00    -0.361 OA
ATOM     31  H   UNL d   1      26.323 -12.121   3.492  0.00  0.00     0.217 HD
ENDBRANCH  27  30
ENDBRANCH  13  24
ENDBRANCH   1  13
BRANCH   2  32
ATOM     32  C   UNL d   1      23.995 -18.090  -0.414  0.00  0.00     0.101 C 
ATOM     33  C   UNL d   1      23.512 -18.373  -1.674  0.00  0.00     0.037 C 
ATOM     34  C   UNL d   1      22.172 -18.712  -1.518  0.00  0.00     0.033 C 
ATOM     35  C   UNL d   1      21.897 -18.870  -0.190  0.00  0.00     0.043 C 
ATOM     36  N   UNL d   1      23.077 -18.630   0.476  0.00  0.00    -0.351 N 
ATOM     37  H   UNL d   1      23.280 -18.878   1.438  0.00  0.00     0.166 HD
BRANCH  35  38
ATOM     38  C   UNL d   1      20.702 -19.507   0.316  0.00  0.00    -0.009 C 
ATOM     39  C   UNL d   1      19.733 -20.049  -0.516  0.00  0.00     0.013 C 
ATOM     40  C   UNL d   1      18.544 -20.502   0.050  0.00  0.00     0.001 C 
ATOM     41  C   UNL d   1      18.377 -20.521   1.439  0.00  0.00     0.000 C 
ATOM     42  C   UNL d   1      19.390 -20.075   2.278  0.00  0.00     0.001 C 
ATOM     43  C   UNL d   1      20.549 -19.572   1.716  0.00  0.00     0.013 C 
ENDBRANCH  35  38
ENDBRANCH   2  32
TORSDOF 13
ENDMDL
MODEL 7
REMARK VINA RESULT:    -9.902      2.974      7.119
REMARK INTER + INTRA:         -17.512
REMARK INTER:                 -13.780
REMARK INTRA:                  -3.731
REMARK CONF_INDEPENDENT:        3.878
REMARK UNBOUND:                -3.731
REMARK  13 active torsions:
REMARK  status: ('A' for Active; 'I' for Inactive)
REMARK    1  A    between atoms: C_2  and  N_3 
REMARK    2  A    between atoms: N_3  and  C_4 
REMARK    3  A    between atoms: N_3  and  C_6 
REMARK    4  A    between atoms: C_6  and  C_7 
REMARK    5  A    between atoms: C_7  and  C_8 
REMARK    6  A    between atoms: C_8  and  N_9 
REMARK       I    between atoms: N_9  and  C_10 
REMARK    7  A    between atoms: N_9  and  C_23 
REMARK    8  A    between atoms: C_10  and  C_12 
REMARK    9  A    between atoms: C_15  and  C_16 
REMARK   10  A    between atoms: C_23  and  C_24 
REMARK   11  A    between atoms: C_23  and  C_33 
REMARK       I    between atoms: C_24  and  N_26 
REMARK   12  A    between atoms: N_26  and  C_27 
REMARK   13  A    between atoms: C_36  and  O_37 
ROOT
ATOM      1  N   UNL d   1      28.067 -14.414  -0.371  0.00  0.00    -0.329 N 
ATOM      2  C   UNL d   1      27.099 -14.076   0.658  0.00  0.00     0.271 C 
ATOM      3  O   UNL d   1      25.907 -14.270   0.600  0.00  0.00    -0.266 OA
ENDROOT
BRANCH   1   4
ATOM      4  C   UNL d   1      29.514 -14.067  -0.380  0.00  0.00     0.129 C 
BRANCH   4   5
ATOM      5  C   UNL d   1      30.452 -15.225  -0.326  0.00  0.00     0.048 C 
BRANCH   5   6
ATOM      6  C   UNL d   1      31.731 -15.161   0.437  0.00  0.00     0.236 C 
BRANCH   6   7
ATOM      7  N   UNL d   1      31.481 -15.629   1.903  0.00  0.00    -0.072 N 
ATOM      8  H   UNL d   1      30.683 -16.289   1.874  0.00  0.00     0.279 HD
BRANCH   7   9
ATOM      9  C   UNL d   1      32.732 -16.323   2.350  0.00  0.00     0.230 C 
ATOM     10  C   UNL d   1      32.657 -17.821   2.201  0.00  0.00     0.034 C 
ENDBRANCH   7   9
BRANCH   7  11
ATOM     11  C   UNL d   1      31.140 -14.497   2.870  0.00  0.00     0.230 C 
ATOM     12  C   UNL d   1      31.584 -13.105   2.415  0.00  0.00     0.034 C 
ENDBRANCH   7  11
ENDBRANCH   6   7
ENDBRANCH   5   6
ENDBRANCH   4   5
ENDBRANCH   1   4
BRANCH   1  13
ATOM     13  C   UNL d   1      27.598 -15.116  -1.640  0.00  0.00     0.212 C 
BRANCH  13  14
ATOM     14  C   UNL d   1      26.583 -16.314  -1.412  0.00  0.00     0.245 C 
ATOM     15  O   UNL d   1      26.974 -17.476  -1.293  0.00  0.00    -0.271 OA
ATOM     16  N   UNL d   1      25.229 -16.035  -1.315  0.00  0.00    -0.354 N 
ATOM     17  H   UNL d   1      24.932 -15.125  -0.995  0.00  0.00     0.162 HD
BRANCH  16  18
ATOM     18  C   UNL d   1      24.227 -17.107  -1.325  0.00  0.00     0.084 C 
ATOM     19  C   UNL d   1      24.618 -18.196  -0.306  0.00  0.00     0.025 C 
ATOM     20  C   UNL d   1      23.533 -19.263  -0.146  0.00  0.00     0.002 C 
ATOM     21  C   UNL d   1      22.180 -18.650   0.197  0.00  0.00     0.000 C 
ATOM     22  C   UNL d   1      21.780 -17.627  -0.847  0.00  0.00     0.002 C 
ATOM     23  C   UNL d   1      22.835 -16.551  -0.977  0.00  0.00     0.025 C 
ENDBRANCH  16  18
ENDBRANCH  13  14
BRANCH  13  24
ATOM     24  C   UNL d   1      26.951 -14.184  -2.654  0.00  0.00    -0.026 A 
ATOM     25  C   UNL d   1      26.763 -12.827  -2.290  0.00  0.00     0.012 A 
ATOM     26  C   UNL d   1      26.295 -11.895  -3.201  0.00  0.00     0.037 A 
ATOM     27  C   UNL d   1      26.019 -12.315  -4.492  0.00  0.00     0.065 A 
ATOM     28  C   UNL d   1      26.150 -13.653  -4.863  0.00  0.00     0.037 A 
ATOM     29  C   UNL d   1      26.621 -14.597  -3.947  0.00  0.00     0.012 A 
BRANCH  27  30
ATOM     30  O   UNL d   1      25.641 -11.420  -5.447  0.00  0.00    -0.361 OA
ATOM     31  H   UNL d   1      24.780 -11.051  -5.188  0.00  0.00     0.217 HD
ENDBRANCH  27  30
ENDBRANCH  13  24
ENDBRANCH   1  13
BRANCH   2  32
ATOM     32  C   UNL d   1      27.486 -13.419   1.882  0.00  0.00     0.101 C 
ATOM     33  C   UNL d   1      27.294 -12.093   2.203  0.00  0.00     0.037 C 
ATOM     34  C   UNL d   1      27.863 -11.902   3.457  0.00  0.00     0.033 C 
ATOM     35  C   UNL d   1      28.179 -13.115   4.000  0.00  0.00     0.043 C 
ATOM     36  N   UNL d   1      27.799 -14.059   3.073  0.00  0.00    -0.351 N 
ATOM     37  H   UNL d   1      27.685 -15.051   3.245  0.00  0.00     0.166 HD
BRANCH  35  38
ATOM     38  C   UNL d   1      28.503 -13.316   5.394  0.00  0.00    -0.009 C 
ATOM     39  C   UNL d   1      27.874 -12.619   6.416  0.00  0.00     0.013 C 
ATOM     40  C   UNL d   1      28.356 -12.761   7.715  0.00  0.00     0.001 C 
ATOM     41  C   UNL d   1      29.374 -13.675   8.004  0.00  0.00     0.000 C 
ATOM     42  C   UNL d   1      29.933 -14.450   6.995  0.00  0.00     0.001 C 
ATOM     43  C   UNL d   1      29.496 -14.270   5.696  0.00  0.00     0.013 C 
ENDBRANCH  35  38
ENDBRANCH   2  32
TORSDOF 13
ENDMDL
MODEL 8
REMARK VINA RESULT:    -9.560      3.546      7.694
REMARK INTER + INTRA:         -17.509
REMARK INTER:                 -13.438
REMARK INTRA:                  -4.071
REMARK CONF_INDEPENDENT:        3.878
REMARK UNBOUND:                -4.071
REMARK  13 active torsions:
REMARK  status: ('A' for Active; 'I' for Inactive)
REMARK    1  A    between atoms: C_2  and  N_3 
REMARK    2  A    between atoms: N_3  and  C_4 
REMARK    3  A    between atoms: N_3  and  C_6 
REMARK    4  A    between atoms: C_6  and  C_7 
REMARK    5  A    between atoms: C_7  and  C_8 
REMARK    6  A    between atoms: C_8  and  N_9 
REMARK       I    between atoms: N_9  and  C_10 
REMARK    7  A    between atoms: N_9  and  C_23 
REMARK    8  A    between atoms: C_10  and  C_12 
REMARK    9  A    between atoms: C_15  and  C_16 
REMARK   10  A    between atoms: C_23  and  C_24 
REMARK   11  A    between atoms: C_23  and  C_33 
REMARK       I    between atoms: C_24  and  N_26 
REMARK   12  A    between atoms: N_26  and  C_27 
REMARK   13  A    between atoms: C_36  and  O_37 
ROOT
ATOM      1  N   UNL d   1      28.075 -14.112   0.543  0.00  0.00    -0.329 N 
ATOM      2  C   UNL d   1      27.054 -13.449   1.335  0.00  0.00     0.271 C 
ATOM      3  O   UNL d   1      25.859 -13.582   1.206  0.00  0.00    -0.266 OA
ENDROOT
BRANCH   1   4
ATOM      4  C   UNL d   1      29.541 -13.865   0.594  0.00  0.00     0.129 C 
BRANCH   4   5
ATOM      5  C   UNL d   1      30.326 -14.825   1.422  0.00  0.00     0.048 C 
BRANCH   5   6
ATOM      6  C   UNL d   1      31.578 -14.415   2.120  0.00  0.00     0.236 C 
BRANCH   6   7
ATOM      7  N   UNL d   1      31.252 -14.075   3.606  0.00  0.00    -0.072 N 
ATOM      8  H   UNL d   1      31.925 -14.606   4.189  0.00  0.00     0.279 HD
BRANCH   7   9
ATOM      9  C   UNL d   1      31.460 -12.599   3.763  0.00  0.00     0.230 C 
ATOM     10  C   UNL d   1      31.012 -11.812   2.559  0.00  0.00     0.034 C 
ENDBRANCH   7   9
BRANCH   7  11
ATOM     11  C   UNL d   1      29.836 -14.450   4.036  0.00  0.00     0.230 C 
ATOM     12  C   UNL d   1      29.711 -14.947   5.479  0.00  0.00     0.034 C 
ENDBRANCH   7  11
ENDBRANCH   6   7
ENDBRANCH   5   6
ENDBRANCH   4   5
ENDBRANCH   1   4
BRANCH   1  13
ATOM     13  C   UNL d   1      27.660 -15.109  -0.532  0.00  0.00     0.212 C 
BRANCH  13  14
ATOM     14  C   UNL d   1      26.591 -16.189  -0.075  0.00  0.00     0.245 C 
ATOM     15  O   UNL d   1      26.932 -17.257   0.435  0.00  0.00    -0.271 OA
ATOM     16  N   UNL d   1      25.243 -15.903  -0.227  0.00  0.00    -0.354 N 
ATOM     17  H   UNL d   1      24.938 -14.941  -0.234  0.00  0.00     0.162 HD
BRANCH  16  18
ATOM     18  C   UNL d   1      24.219 -16.936  -0.031  0.00  0.00     0.084 C 
ATOM     19  C   UNL d   1      22.919 -16.525  -0.750  0.00  0.00     0.025 C 
ATOM     20  C   UNL d   1      21.863 -17.631  -0.726  0.00  0.00     0.002 C 
ATOM     21  C   UNL d   1      22.404 -18.946  -1.277  0.00  0.00     0.000 C 
ATOM     22  C   UNL d   1      23.646 -19.369  -0.520  0.00  0.00     0.002 C 
ATOM     23  C   UNL d   1      24.705 -18.290  -0.578  0.00  0.00     0.025 C 
ENDBRANCH  16  18
ENDBRANCH  13  14
BRANCH  13  24
ATOM     24  C   UNL d   1      27.108 -14.458  -1.793  0.00  0.00    -0.026 A 
ATOM     25  C   UNL d   1      26.613 -15.300  -2.819  0.00  0.00     0.012 A 
ATOM     26  C   UNL d   1      25.985 -14.779  -3.939  0.00  0.00     0.037 A 
ATOM     27  C   UNL d   1      25.842 -13.404  -4.034  0.00  0.00     0.065 A 
ATOM     28  C   UNL d   1      26.363 -12.551  -3.061  0.00  0.00     0.037 A 
ATOM     29  C   UNL d   1      26.997 -13.071  -1.931  0.00  0.00     0.012 A 
BRANCH  27  30
ATOM     30  O   UNL d   1      25.155 -12.848  -5.072  0.00  0.00    -0.361 OA
ATOM     31  H   UNL d   1      24.769 -12.012  -4.762  0.00  0.00     0.217 HD
ENDBRANCH  27  30
ENDBRANCH  13  24
ENDBRANCH   1  13
BRANCH   2  32
ATOM     32  C   UNL d   1      27.388 -12.503   2.371  0.00  0.00     0.101 C 
ATOM     33  C   UNL d   1      27.192 -11.139   2.339  0.00  0.00     0.037 C 
ATOM     34  C   UNL d   1      27.703 -10.636   3.530  0.00  0.00     0.033 C 
ATOM     35  C   UNL d   1      27.985 -11.672   4.374  0.00  0.00     0.043 C 
ATOM     36  N   UNL d   1      27.641 -12.821   3.698  0.00  0.00    -0.351 N 
ATOM     37  H   UNL d   1      27.512 -13.739   4.109  0.00  0.00     0.166 HD
BRANCH  35  38
ATOM     38  C   UNL d   1      28.242 -11.514   5.788  0.00  0.00    -0.009 C 
ATOM     39  C   UNL d   1      28.835 -10.378   6.318  0.00  0.00     0.013 C 
ATOM     40  C   UNL d   1      29.188 -10.375   7.665  0.00  0.00     0.001 C 
ATOM     41  C   UNL d   1      28.844 -11.447   8.495  0.00  0.00     0.000 C 
ATOM     42  C   UNL d   1      28.156 -12.541   7.986  0.00  0.00     0.001 C 
ATOM     43  C   UNL d   1      27.856 -12.571   6.636  0.00  0.00     0.013 C 
ENDBRANCH  35  38
ENDBRANCH   2  32
TORSDOF 13
ENDMDL
MODEL 9
REMARK VINA RESULT:    -9.271      2.177      4.086
REMARK INTER + INTRA:         -17.566
REMARK INTER:                 -13.148
REMARK INTRA:                  -4.417
REMARK CONF_INDEPENDENT:        3.878
REMARK UNBOUND:                -4.417
REMARK  13 active torsions:
REMARK  status: ('A' for Active; 'I' for Inactive)
REMARK    1  A    between atoms: C_2  and  N_3 
REMARK    2  A    between atoms: N_3  and  C_4 
REMARK    3  A    between atoms: N_3  and  C_6 
REMARK    4  A    between atoms: C_6  and  C_7 
REMARK    5  A    between atoms: C_7  and  C_8 
REMARK    6  A    between atoms: C_8  and  N_9 
REMARK       I    between atoms: N_9  and  C_10 
REMARK    7  A    between atoms: N_9  and  C_23 
REMARK    8  A    between atoms: C_10  and  C_12 
REMARK    9  A    between atoms: C_15  and  C_16 
REMARK   10  A    between atoms: C_23  and  C_24 
REMARK   11  A    between atoms: C_23  and  C_33 
REMARK       I    between atoms: C_24  and  N_26 
REMARK   12  A    between atoms: N_26  and  C_27 
REMARK   13  A    between atoms: C_36  and  O_37 
ROOT
ATOM      1  N   UNL d   1      29.174 -14.448  -3.523  0.00  0.00    -0.329 N 
ATOM      2  C   UNL d   1      28.010 -15.073  -4.126  0.00  0.00     0.271 C 
ATOM      3  O   UNL d   1      27.949 -15.528  -5.245  0.00  0.00    -0.266 OA
ENDROOT
BRANCH   1   4
ATOM      4  C   UNL d   1      29.234 -13.765  -2.204  0.00  0.00     0.129 C 
BRANCH   4   5
ATOM      5  C   UNL d   1      28.582 -14.490  -1.075  0.00  0.00     0.048 C 
BRANCH   5   6
ATOM      6  C   UNL d   1      29.377 -15.065   0.048  0.00  0.00     0.236 C 
BRANCH   6   7
ATOM      7  N   UNL d   1      28.987 -16.562   0.240  0.00  0.00    -0.072 N 
ATOM      8  H   UNL d   1      29.532 -16.911   1.050  0.00  0.00     0.279 HD
BRANCH   7   9
ATOM      9  C   UNL d   1      27.518 -16.588   0.536  0.00  0.00     0.230 C 
ATOM     10  C   UNL d   1      27.029 -17.949   0.962  0.00  0.00     0.034 C 
ENDBRANCH   7   9
BRANCH   7  11
ATOM     11  C   UNL d   1      29.291 -17.447  -0.967  0.00  0.00     0.230 C 
ATOM     12  C   UNL d   1      30.727 -17.357  -1.487  0.00  0.00     0.034 C 
ENDBRANCH   7  11
ENDBRANCH   6   7
ENDBRANCH   5   6
ENDBRANCH   4   5
ENDBRANCH   1   4
BRANCH   1  13
ATOM     13  C   UNL d   1      30.476 -14.370  -4.313  0.00  0.00     0.212 C 
BRANCH  13  14
ATOM     14  C   UNL d   1      31.209 -15.758  -4.543  0.00  0.00     0.245 C 
ATOM     15  O   UNL d   1      32.411 -15.897  -4.312  0.00  0.00    -0.271 OA
ATOM     16  N   UNL d   1      30.467 -16.843  -4.983  0.00  0.00    -0.354 N 
ATOM     17  H   UNL d   1      29.479 -16.883  -4.781  0.00  0.00     0.162 HD
BRANCH  16  18
ATOM     18  C   UNL d   1      31.118 -18.083  -5.422  0.00  0.00     0.084 C 
ATOM     19  C   UNL d   1      30.252 -19.295  -5.026  0.00  0.00     0.025 C 
ATOM     20  C   UNL d   1      30.789 -20.609  -5.598  0.00  0.00     0.002 C 
ATOM     21  C   UNL d   1      30.974 -20.537  -7.109  0.00  0.00     0.000 C 
ATOM     22  C   UNL d   1      31.878 -19.378  -7.480  0.00  0.00     0.002 C 
ATOM     23  C   UNL d   1      31.325 -18.075  -6.947  0.00  0.00     0.025 C 
ENDBRANCH  16  18
ENDBRANCH  13  14
BRANCH  13  24
ATOM     24  C   UNL d   1      30.324 -13.725  -5.683  0.00  0.00    -0.026 A 
ATOM     25  C   UNL d   1      31.284 -14.037  -6.679  0.00  0.00     0.012 A 
ATOM     26  C   UNL d   1      31.143 -13.587  -7.981  0.00  0.00     0.037 A 
ATOM     27  C   UNL d   1      30.031 -12.824  -8.299  0.00  0.00     0.065 A 
ATOM     28  C   UNL d   1      29.097 -12.463  -7.327  0.00  0.00     0.037 A 
ATOM     29  C   UNL d   1      29.235 -12.914  -6.013  0.00  0.00     0.012 A 
BRANCH  27  30
ATOM     30  O   UNL d   1      29.802 -12.432  -9.584  0.00  0.00    -0.361 OA
ATOM     31  H   UNL d   1      29.572 -13.222 -10.101  0.00  0.00     0.217 HD
ENDBRANCH  27  30
ENDBRANCH  13  24
ENDBRANCH   1  13
BRANCH   2  32
ATOM     32  C   UNL d   1      26.755 -15.183  -3.424  0.00  0.00     0.101 C 
ATOM     33  C   UNL d   1      25.616 -14.440  -3.649  0.00  0.00     0.037 C 
ATOM     34  C   UNL d   1      24.677 -14.859  -2.712  0.00  0.00     0.033 C 
ATOM     35  C   UNL d   1      25.132 -15.986  -2.089  0.00  0.00     0.043 C 
ATOM     36  N   UNL d   1      26.359 -16.264  -2.650  0.00  0.00    -0.351 N 
ATOM     37  H   UNL d   1      26.861 -17.142  -2.580  0.00  0.00     0.166 HD
BRANCH  35  38
ATOM     38  C   UNL d   1      24.302 -16.856  -1.287  0.00  0.00    -0.009 C 
ATOM     39  C   UNL d   1      24.691 -18.138  -0.928  0.00  0.00     0.013 C 
ATOM     40  C   UNL d   1      23.767 -18.961  -0.289  0.00  0.00     0.001 C 
ATOM     41  C   UNL d   1      22.514 -18.468   0.091  0.00  0.00     0.000 C 
ATOM     42  C   UNL d   1      22.165 -17.151  -0.175  0.00  0.00     0.001 C 
ATOM     43  C   UNL d   1      23.058 -16.349  -0.861  0.00  0.00     0.013 C 
ENDBRANCH  35  38
ENDBRANCH   2  32
TORSDOF 13
ENDMDL
