MODEL 1
REMARK VINA RESULT:   -21.583      0.000      0.000
REMARK INTER + INTRA:         -23.695
REMARK INTER:                 -23.671
REMARK INTRA:                  -0.023
REMARK CONF_INDEPENDENT:        2.088
REMARK UNBOUND:                -0.023
REMARK  7 active torsions:
REMARK  status: ('A' for Active; 'I' for Inactive)
REMARK    1  A    between atoms: O_2  and  C_3 
REMARK    2  A    between atoms: C_6  and  N_7 
REMARK    3  A    between atoms: N_10  and  C_11 
REMARK    4  A    between atoms: C_11  and  C_12 
REMARK    5  A    between atoms: C_12  and  N_13 
REMARK       I    between atoms: N_13  and  C_14 
REMARK    6  A    between atoms: C_14  and  C_16 
REMARK       I    between atoms: C_16  and  N_18 
REMARK    7  A    between atoms: N_18  and  C_19 
ROOT
ATOM      1  C   UNL d   1      20.707 -19.352   1.995  0.00  0.00     0.057 A 
ATOM      2  C   UNL d   1      20.662 -19.888   3.296  0.00  0.00     0.055 A 
ATOM      3  C   UNL d   1      19.476 -20.465   3.781  0.00  0.00     0.036 A 
ATOM      4 CL   UNL d   1      19.457 -21.277   5.301  0.00  0.00    -0.084 Cl
ATOM      5  C   UNL d   1      18.314 -20.452   3.015  0.00  0.00     0.025 A 
ATOM      6  C   UNL d   1      18.352 -19.932   1.723  0.00  0.00     0.027 A 
ATOM      7  C   UNL d   1      19.536 -19.384   1.205  0.00  0.00     0.071 A 
ATOM      8  C   UNL d   1      19.519 -18.945  -0.159  0.00  0.00     0.102 C 
ATOM      9  N   UNL d   1      19.530 -18.579  -1.270  0.00  0.00    -0.191 NA
ENDROOT
BRANCH   1  10
ATOM     10  N   UNL d   1      21.944 -18.862   1.483  0.00  0.00    -0.318 N 
ATOM     11  C   UNL d   1      22.396 -19.161   0.197  0.00  0.00     0.314 C 
ATOM     12  O   UNL d   1      21.734 -19.694  -0.688  0.00  0.00    -0.262 OA
ATOM     13  H   UNL d   1      22.488 -18.199   2.031  0.00  0.00     0.169 HD
BRANCH  11  14
ATOM     14  C   UNL d   1      23.826 -18.711  -0.154  0.00  0.00     0.309 C 
ATOM     15  N   UNL d   1      24.647 -18.519   0.948  0.00  0.00    -0.351 N 
ATOM     16  H   UNL d   1      24.253 -18.690   1.871  0.00  0.00     0.162 HD
ATOM     17  O   UNL d   1      24.155 -18.574  -1.324  0.00  0.00    -0.262 OA
BRANCH  15  18
ATOM     18  C   UNL d   1      26.045 -18.189   0.780  0.00  0.00     0.153 C 
BRANCH  18  19
ATOM     19  C   UNL d   1      26.330 -17.211  -0.372  0.00  0.00     0.292 C 
BRANCH  19  20
ATOM     20  N   UNL d   1      25.472 -16.002  -0.331  0.00  0.00     0.093 N 
ATOM     21  C   UNL d   1      26.312 -14.774  -0.232  0.00  0.00     0.292 C 
ATOM     22  C   UNL d   1      27.191 -14.504  -1.488  0.00  0.00     0.153 C 
ATOM     23  N   UNL d   1      26.361 -14.508  -2.705  0.00  0.00    -0.378 N 
ATOM     24  C   UNL d   1      25.467 -15.655  -2.855  0.00  0.00     0.153 C 
ATOM     25  C   UNL d   1      24.643 -15.865  -1.563  0.00  0.00     0.292 C 
BRANCH  23  26
ATOM     26  C   UNL d   1      26.333 -13.420  -3.546  0.00  0.00     0.030 A 
ATOM     27  C   UNL d   1      25.818 -12.197  -3.102  0.00  0.00     0.032 A 
ATOM     28  C   UNL d   1      25.659 -11.103  -3.966  0.00  0.00     0.039 A 
ATOM     29  C   UNL d   1      26.084 -11.180  -5.289  0.00  0.00     0.068 A 
ATOM     30  C   UNL d   1      26.652 -12.369  -5.739  0.00  0.00     0.039 A 
ATOM     31  C   UNL d   1      26.779 -13.472  -4.873  0.00  0.00     0.032 A 
BRANCH  29  32
ATOM     32  O   UNL d   1      26.015 -10.025  -6.020  0.00  0.00    -0.356 OA
ATOM     33  C   UNL d   1      25.350  -8.930  -5.395  0.00  0.00     0.210 C 
ENDBRANCH  29  32
ENDBRANCH  23  26
ENDBRANCH  19  20
ENDBRANCH  18  19
ENDBRANCH  15  18
ENDBRANCH  11  14
ENDBRANCH   1  10
TORSDOF 7
ENDMDL
MODEL 2
REMARK VINA RESULT:   -20.954      1.334      2.108
REMARK INTER + INTRA:         -23.681
REMARK INTER:                 -23.042
REMARK INTRA:                  -0.639
REMARK CONF_INDEPENDENT:        2.088
REMARK UNBOUND:                -0.639
REMARK  7 active torsions:
REMARK  status: ('A' for Active; 'I' for Inactive)
REMARK    1  A    between atoms: O_2  and  C_3 
REMARK    2  A    between atoms: C_6  and  N_7 
REMARK    3  A    between atoms: N_10  and  C_11 
REMARK    4  A    between atoms: C_11  and  C_12 
REMARK    5  A    between atoms: C_12  and  N_13 
REMARK       I    between atoms: N_13  and  C_14 
REMARK    6  A    between atoms: C_14  and  C_16 
REMARK       I    between atoms: C_16  and  N_18 
REMARK    7  A    between atoms: N_18  and  C_19 
ROOT
ATOM      1  C   UNL d   1      20.702 -19.487   1.962  0.00  0.00     0.057 A 
ATOM      2  C   UNL d   1      20.671 -20.111   3.223  0.00  0.00     0.055 A 
ATOM      3  C   UNL d   1      19.520 -20.798   3.643  0.00  0.00     0.036 A 
ATOM      4 CL   UNL d   1      19.530 -21.710   5.106  0.00  0.00    -0.084 Cl
ATOM      5  C   UNL d   1      18.373 -20.812   2.855  0.00  0.00     0.025 A 
ATOM      6  C   UNL d   1      18.397 -20.205   1.601  0.00  0.00     0.027 A 
ATOM      7  C   UNL d   1      19.549 -19.545   1.145  0.00  0.00     0.071 A 
ATOM      8  C   UNL d   1      19.525 -19.017  -0.186  0.00  0.00     0.102 C 
ATOM      9  N   UNL d   1      19.530 -18.577  -1.270  0.00  0.00    -0.191 NA
ENDROOT
BRANCH   1  10
ATOM     10  N   UNL d   1      21.910 -18.881   1.510  0.00  0.00    -0.318 N 
ATOM     11  C   UNL d   1      22.425 -19.093   0.230  0.00  0.00     0.314 C 
ATOM     12  O   UNL d   1      21.835 -19.643  -0.695  0.00  0.00    -0.262 OA
ATOM     13  H   UNL d   1      22.382 -18.198   2.100  0.00  0.00     0.169 HD
BRANCH  11  14
ATOM     14  C   UNL d   1      23.824 -18.518  -0.055  0.00  0.00     0.309 C 
ATOM     15  N   UNL d   1      23.958 -17.949  -1.314  0.00  0.00    -0.351 N 
ATOM     16  H   UNL d   1      23.145 -17.953  -1.927  0.00  0.00     0.162 HD
ATOM     17  O   UNL d   1      24.693 -18.568   0.803  0.00  0.00    -0.262 OA
BRANCH  15  18
ATOM     18  C   UNL d   1      25.182 -17.281  -1.697  0.00  0.00     0.153 C 
BRANCH  18  19
ATOM     19  C   UNL d   1      24.970 -15.974  -2.479  0.00  0.00     0.292 C 
BRANCH  19  20
ATOM     20  N   UNL d   1      26.203 -15.492  -3.148  0.00  0.00     0.093 N 
ATOM     21  C   UNL d   1      25.873 -14.887  -4.469  0.00  0.00     0.292 C 
ATOM     22  C   UNL d   1      25.026 -13.584  -4.376  0.00  0.00     0.153 C 
ATOM     23  N   UNL d   1      25.673 -12.617  -3.473  0.00  0.00    -0.378 N 
ATOM     24  C   UNL d   1      26.078 -13.144  -2.170  0.00  0.00     0.153 C 
ATOM     25  C   UNL d   1      26.898 -14.443  -2.349  0.00  0.00     0.292 C 
BRANCH  23  26
ATOM     26  C   UNL d   1      26.003 -11.354  -3.907  0.00  0.00     0.030 A 
ATOM     27  C   UNL d   1      26.438 -10.385  -2.995  0.00  0.00     0.032 A 
ATOM     28  C   UNL d   1      26.663  -9.056  -3.378  0.00  0.00     0.039 A 
ATOM     29  C   UNL d   1      26.532  -8.672  -4.711  0.00  0.00     0.068 A 
ATOM     30  C   UNL d   1      26.154  -9.632  -5.645  0.00  0.00     0.039 A 
ATOM     31  C   UNL d   1      25.899 -10.958  -5.246  0.00  0.00     0.032 A 
BRANCH  29  32
ATOM     32  O   UNL d   1      26.902  -7.391  -5.016  0.00  0.00    -0.356 OA
ATOM     33  C   UNL d   1      26.496  -6.912  -6.295  0.00  0.00     0.210 C 
ENDBRANCH  29  32
ENDBRANCH  23  26
ENDBRANCH  19  20
ENDBRANCH  18  19
ENDBRANCH  15  18
ENDBRANCH  11  14
ENDBRANCH   1  10
TORSDOF 7
ENDMDL
MODEL 3
REMARK VINA RESULT:   -20.939      1.444      2.105
REMARK INTER + INTRA:         -23.783
REMARK INTER:                 -23.027
REMARK INTRA:                  -0.755
REMARK CONF_INDEPENDENT:        2.088
REMARK UNBOUND:                -0.755
REMARK  7 active torsions:
REMARK  status: ('A' for Active; 'I' for Inactive)
REMARK    1  A    between atoms: O_2  and  C_3 
REMARK    2  A    between atoms: C_6  and  N_7 
REMARK    3  A    between atoms: N_10  and  C_11 
REMARK    4  A    between atoms: C_11  and  C_12 
REMARK    5  A    between atoms: C_12  and  N_13 
REMARK       I    between atoms: N_13  and  C_14 
REMARK    6  A    between atoms: C_14  and  C_16 
REMARK       I    between atoms: C_16  and  N_18 
REMARK    7  A    between atoms: N_18  and  C_19 
ROOT
ATOM      1  C   UNL d   1      20.703 -19.489   1.960  0.00  0.00     0.057 A 
ATOM      2  C   UNL d   1      20.672 -20.113   3.222  0.00  0.00     0.055 A 
ATOM      3  C   UNL d   1      19.520 -20.798   3.642  0.00  0.00     0.036 A 
ATOM      4 CL   UNL d   1      19.530 -21.711   5.105  0.00  0.00    -0.084 Cl
ATOM      5  C   UNL d   1      18.372 -20.809   2.855  0.00  0.00     0.025 A 
ATOM      6  C   UNL d   1      18.397 -20.202   1.602  0.00  0.00     0.027 A 
ATOM      7  C   UNL d   1      19.550 -19.544   1.145  0.00  0.00     0.071 A 
ATOM      8  C   UNL d   1      19.526 -19.015  -0.186  0.00  0.00     0.102 C 
ATOM      9  N   UNL d   1      19.531 -18.575  -1.270  0.00  0.00    -0.191 NA
ENDROOT
BRANCH   1  10
ATOM     10  N   UNL d   1      21.912 -18.885   1.508  0.00  0.00    -0.318 N 
ATOM     11  C   UNL d   1      22.429 -19.102   0.230  0.00  0.00     0.314 C 
ATOM     12  O   UNL d   1      21.840 -19.655  -0.694  0.00  0.00    -0.262 OA
ATOM     13  H   UNL d   1      22.384 -18.200   2.096  0.00  0.00     0.169 HD
BRANCH  11  14
ATOM     14  C   UNL d   1      23.828 -18.528  -0.056  0.00  0.00     0.309 C 
ATOM     15  N   UNL d   1      23.970 -17.983  -1.324  0.00  0.00    -0.351 N 
ATOM     16  H   UNL d   1      23.162 -18.001  -1.943  0.00  0.00     0.162 HD
ATOM     17  O   UNL d   1      24.691 -18.559   0.810  0.00  0.00    -0.262 OA
BRANCH  15  18
ATOM     18  C   UNL d   1      25.195 -17.319  -1.710  0.00  0.00     0.153 C 
BRANCH  18  19
ATOM     19  C   UNL d   1      25.156 -15.788  -1.570  0.00  0.00     0.292 C 
BRANCH  19  20
ATOM     20  N   UNL d   1      26.484 -15.155  -1.752  0.00  0.00     0.093 N 
ATOM     21  C   UNL d   1      27.051 -15.511  -3.084  0.00  0.00     0.292 C 
ATOM     22  C   UNL d   1      26.250 -14.933  -4.288  0.00  0.00     0.153 C 
ATOM     23  N   UNL d   1      26.073 -13.479  -4.135  0.00  0.00    -0.378 N 
ATOM     24  C   UNL d   1      25.569 -13.039  -2.835  0.00  0.00     0.153 C 
ATOM     25  C   UNL d   1      26.405 -13.667  -1.695  0.00  0.00     0.292 C 
BRANCH  23  26
ATOM     26  C   UNL d   1      26.507 -12.607  -5.107  0.00  0.00     0.030 A 
ATOM     27  C   UNL d   1      27.409 -13.035  -6.088  0.00  0.00     0.032 A 
ATOM     28  C   UNL d   1      27.968 -12.147  -7.017  0.00  0.00     0.039 A 
ATOM     29  C   UNL d   1      27.580 -10.810  -7.039  0.00  0.00     0.068 A 
ATOM     30  C   UNL d   1      26.642 -10.373  -6.109  0.00  0.00     0.039 A 
ATOM     31  C   UNL d   1      26.109 -11.266  -5.159  0.00  0.00     0.032 A 
BRANCH  29  32
ATOM     32  O   UNL d   1      28.074 -10.049  -8.063  0.00  0.00    -0.356 OA
ATOM     33  C   UNL d   1      27.230  -9.915  -9.204  0.00  0.00     0.210 C 
ENDBRANCH  29  32
ENDBRANCH  23  26
ENDBRANCH  19  20
ENDBRANCH  18  19
ENDBRANCH  15  18
ENDBRANCH  11  14
ENDBRANCH   1  10
TORSDOF 7
ENDMDL
MODEL 4
REMARK VINA RESULT:   -20.895      3.133      4.102
REMARK INTER + INTRA:         -23.521
REMARK INTER:                 -22.983
REMARK INTRA:                  -0.538
REMARK CONF_INDEPENDENT:        2.088
REMARK UNBOUND:                -0.538
REMARK  7 active torsions:
REMARK  status: ('A' for Active; 'I' for Inactive)
REMARK    1  A    between atoms: O_2  and  C_3 
REMARK    2  A    between atoms: C_6  and  N_7 
REMARK    3  A    between atoms: N_10  and  C_11 
REMARK    4  A    between atoms: C_11  and  C_12 
REMARK    5  A    between atoms: C_12  and  N_13 
REMARK       I    between atoms: N_13  and  C_14 
REMARK    6  A    between atoms: C_14  and  C_16 
REMARK       I    between atoms: C_16  and  N_18 
REMARK    7  A    between atoms: N_18  and  C_19 
ROOT
ATOM      1  C   UNL d   1      20.703 -19.483   1.964  0.00  0.00     0.057 A 
ATOM      2  C   UNL d   1      20.672 -20.106   3.226  0.00  0.00     0.055 A 
ATOM      3  C   UNL d   1      19.523 -20.795   3.646  0.00  0.00     0.036 A 
ATOM      4 CL   UNL d   1      19.534 -21.705   5.110  0.00  0.00    -0.084 Cl
ATOM      5  C   UNL d   1      18.377 -20.813   2.856  0.00  0.00     0.025 A 
ATOM      6  C   UNL d   1      18.400 -20.208   1.602  0.00  0.00     0.027 A 
ATOM      7  C   UNL d   1      19.551 -19.546   1.146  0.00  0.00     0.071 A 
ATOM      8  C   UNL d   1      19.527 -19.019  -0.186  0.00  0.00     0.102 C 
ATOM      9  N   UNL d   1      19.532 -18.581  -1.270  0.00  0.00    -0.191 NA
ENDROOT
BRANCH   1  10
ATOM     10  N   UNL d   1      21.910 -18.875   1.512  0.00  0.00    -0.318 N 
ATOM     11  C   UNL d   1      22.423 -19.082   0.231  0.00  0.00     0.314 C 
ATOM     12  O   UNL d   1      21.833 -19.629  -0.695  0.00  0.00    -0.262 OA
ATOM     13  H   UNL d   1      22.382 -18.194   2.104  0.00  0.00     0.169 HD
BRANCH  11  14
ATOM     14  C   UNL d   1      23.821 -18.504  -0.054  0.00  0.00     0.309 C 
ATOM     15  N   UNL d   1      23.957 -17.942  -1.315  0.00  0.00    -0.351 N 
ATOM     16  H   UNL d   1      23.145 -17.952  -1.931  0.00  0.00     0.162 HD
ATOM     17  O   UNL d   1      24.689 -18.547   0.807  0.00  0.00    -0.262 OA
BRANCH  15  18
ATOM     18  C   UNL d   1      25.180 -17.273  -1.700  0.00  0.00     0.153 C 
BRANCH  18  19
ATOM     19  C   UNL d   1      26.423 -17.732  -0.921  0.00  0.00     0.292 C 
BRANCH  19  20
ATOM     20  N   UNL d   1      27.573 -16.807  -1.066  0.00  0.00     0.093 N 
ATOM     21  C   UNL d   1      27.108 -15.471  -1.536  0.00  0.00     0.292 C 
ATOM     22  C   UNL d   1      26.213 -14.715  -0.512  0.00  0.00     0.153 C 
ATOM     23  N   UNL d   1      26.886 -14.635   0.795  0.00  0.00    -0.378 N 
ATOM     24  C   UNL d   1      27.420 -15.897   1.308  0.00  0.00     0.153 C 
ATOM     25  C   UNL d   1      28.282 -16.592   0.228  0.00  0.00     0.292 C 
BRANCH  23  26
ATOM     26  C   UNL d   1      27.121 -13.421   1.398  0.00  0.00     0.030 A 
ATOM     27  C   UNL d   1      27.289 -13.342   2.786  0.00  0.00     0.032 A 
ATOM     28  C   UNL d   1      27.405 -12.112   3.449  0.00  0.00     0.039 A 
ATOM     29  C   UNL d   1      27.432 -10.921   2.729  0.00  0.00     0.068 A 
ATOM     30  C   UNL d   1      27.323 -10.978   1.342  0.00  0.00     0.039 A 
ATOM     31  C   UNL d   1      27.175 -12.216   0.687  0.00  0.00     0.032 A 
BRANCH  29  32
ATOM     32  O   UNL d   1      27.685  -9.782   3.443  0.00  0.00    -0.356 OA
ATOM     33  C   UNL d   1      28.300  -8.717   2.724  0.00  0.00     0.210 C 
ENDBRANCH  29  32
ENDBRANCH  23  26
ENDBRANCH  19  20
ENDBRANCH  18  19
ENDBRANCH  15  18
ENDBRANCH  11  14
ENDBRANCH   1  10
TORSDOF 7
ENDMDL
MODEL 5
REMARK VINA RESULT:   -20.698      3.436      5.335
REMARK INTER + INTRA:         -23.742
REMARK INTER:                 -22.786
REMARK INTRA:                  -0.956
REMARK CONF_INDEPENDENT:        2.088
REMARK UNBOUND:                -0.956
REMARK  7 active torsions:
REMARK  status: ('A' for Active; 'I' for Inactive)
REMARK    1  A    between atoms: O_2  and  C_3 
REMARK    2  A    between atoms: C_6  and  N_7 
REMARK    3  A    between atoms: N_10  and  C_11 
REMARK    4  A    between atoms: C_11  and  C_12 
REMARK    5  A    between atoms: C_12  and  N_13 
REMARK       I    between atoms: N_13  and  C_14 
REMARK    6  A    between atoms: C_14  and  C_16 
REMARK       I    between atoms: C_16  and  N_18 
REMARK    7  A    between atoms: N_18  and  C_19 
ROOT
ATOM      1  C   UNL d   1      20.698 -19.486   1.963  0.00  0.00     0.057 A 
ATOM      2  C   UNL d   1      20.667 -20.113   3.223  0.00  0.00     0.055 A 
ATOM      3  C   UNL d   1      19.519 -20.808   3.638  0.00  0.00     0.036 A 
ATOM      4 CL   UNL d   1      19.531 -21.724   5.099  0.00  0.00    -0.084 Cl
ATOM      5  C   UNL d   1      18.375 -20.827   2.846  0.00  0.00     0.025 A 
ATOM      6  C   UNL d   1      18.398 -20.217   1.595  0.00  0.00     0.027 A 
ATOM      7  C   UNL d   1      19.547 -19.549   1.144  0.00  0.00     0.071 A 
ATOM      8  C   UNL d   1      19.524 -19.017  -0.187  0.00  0.00     0.102 C 
ATOM      9  N   UNL d   1      19.530 -18.575  -1.269  0.00  0.00    -0.191 NA
ENDROOT
BRANCH   1  10
ATOM     10  N   UNL d   1      21.903 -18.871   1.517  0.00  0.00    -0.318 N 
ATOM     11  C   UNL d   1      22.411 -19.058   0.230  0.00  0.00     0.314 C 
ATOM     12  O   UNL d   1      21.816 -19.589  -0.702  0.00  0.00    -0.262 OA
ATOM     13  H   UNL d   1      22.379 -18.200   2.118  0.00  0.00     0.169 HD
BRANCH  11  14
ATOM     14  C   UNL d   1      23.808 -18.477  -0.052  0.00  0.00     0.309 C 
ATOM     15  N   UNL d   1      24.023 -18.135  -1.379  0.00  0.00    -0.351 N 
ATOM     16  H   UNL d   1      23.263 -18.286  -2.039  0.00  0.00     0.162 HD
ATOM     17  O   UNL d   1      24.607 -18.333   0.862  0.00  0.00    -0.262 OA
BRANCH  15  18
ATOM     18  C   UNL d   1      25.251 -17.488  -1.787  0.00  0.00     0.153 C 
BRANCH  18  19
ATOM     19  C   UNL d   1      25.400 -16.042  -1.288  0.00  0.00     0.292 C 
BRANCH  19  20
ATOM     20  N   UNL d   1      26.796 -15.547  -1.350  0.00  0.00     0.093 N 
ATOM     21  C   UNL d   1      26.882 -14.165  -0.800  0.00  0.00     0.292 C 
ATOM     22  C   UNL d   1      26.574 -14.068   0.722  0.00  0.00     0.153 C 
ATOM     23  N   UNL d   1      27.415 -15.014   1.475  0.00  0.00    -0.378 N 
ATOM     24  C   UNL d   1      27.429 -16.386   0.969  0.00  0.00     0.153 C 
ATOM     25  C   UNL d   1      27.725 -16.394  -0.549  0.00  0.00     0.292 C 
BRANCH  23  26
ATOM     26  C   UNL d   1      28.241 -14.578   2.486  0.00  0.00     0.030 A 
ATOM     27  C   UNL d   1      27.734 -14.377   3.775  0.00  0.00     0.032 A 
ATOM     28  C   UNL d   1      28.512 -13.816   4.797  0.00  0.00     0.039 A 
ATOM     29  C   UNL d   1      29.853 -13.510   4.578  0.00  0.00     0.068 A 
ATOM     30  C   UNL d   1      30.394 -13.754   3.319  0.00  0.00     0.039 A 
ATOM     31  C   UNL d   1      29.596 -14.287   2.289  0.00  0.00     0.032 A 
BRANCH  29  32
ATOM     32  O   UNL d   1      30.569 -13.095   5.667  0.00  0.00    -0.356 OA
ATOM     33  C   UNL d   1      30.013 -12.009   6.404  0.00  0.00     0.210 C 
ENDBRANCH  29  32
ENDBRANCH  23  26
ENDBRANCH  19  20
ENDBRANCH  18  19
ENDBRANCH  15  18
ENDBRANCH  11  14
ENDBRANCH   1  10
TORSDOF 7
ENDMDL
