MODEL 1
REMARK VINA RESULT:    -8.970      0.000      0.000
REMARK INTER + INTRA:         -16.116
REMARK INTER:                 -13.146
REMARK INTRA:                  -2.970
REMARK CONF_INDEPENDENT:        4.176
REMARK UNBOUND:                -2.970
REMARK  14 active torsions:
REMARK  status: ('A' for Active; 'I' for Inactive)
REMARK    1  A    between atoms: C_2  and  O_3 
REMARK    2  A    between atoms: O_3  and  C_4 
REMARK    3  A    between atoms: C_6  and  C_7 
REMARK    4  A    between atoms: C_7  and  O_9 
REMARK    5  A    between atoms: O_9  and  C_10 
REMARK    6  A    between atoms: C_10  and  C_11 
REMARK       I    between atoms: C_11  and  N_13 
REMARK    7  A    between atoms: N_13  and  C_14 
REMARK    8  A    between atoms: C_17  and  N_18 
REMARK    9  A    between atoms: N_18  and  C_19 
REMARK   10  A    between atoms: N_18  and  C_25 
REMARK   11  A    between atoms: C_31  and  O_32 
REMARK   12  A    between atoms: O_32  and  C_33 
REMARK   13  A    between atoms: C_35  and  O_36 
REMARK   14  A    between atoms: O_36  and  C_37 
ROOT
ATOM      1  C   UNL d   1      27.563 -13.988   1.925  0.00  0.00     0.246 C 
ATOM      2  O   UNL d   1      27.494 -12.761   2.001  0.00  0.00    -0.271 OA
ATOM      3  N   UNL d   1      27.980 -14.799   2.986  0.00  0.00    -0.325 N 
ATOM      4  H   UNL d   1      28.208 -15.774   2.835  0.00  0.00     0.169 HD
ENDROOT
BRANCH   1   5
ATOM      5  C   UNL d   1      27.229 -14.705   0.602  0.00  0.00     0.282 C 
BRANCH   5   6
ATOM      6  O   UNL d   1      27.357 -16.142   0.782  0.00  0.00    -0.308 OA
BRANCH   6   7
ATOM      7  C   UNL d   1      26.937 -16.931  -0.252  0.00  0.00     0.293 C 
ATOM      8  O   UNL d   1      26.397 -18.003  -0.113  0.00  0.00    -0.259 OA
BRANCH   7   9
ATOM      9  C   UNL d   1      27.157 -16.283  -1.608  0.00  0.00     0.045 A 
ATOM     10  C   UNL d   1      28.457 -16.314  -2.179  0.00  0.00     0.057 A 
ATOM     11  C   UNL d   1      28.712 -15.948  -3.529  0.00  0.00     0.105 A 
ATOM     12  C   UNL d   1      27.604 -15.510  -4.305  0.00  0.00     0.135 A 
ATOM     13  C   UNL d   1      26.313 -15.383  -3.706  0.00  0.00     0.105 A 
ATOM     14  C   UNL d   1      26.106 -15.754  -2.364  0.00  0.00     0.057 A 
BRANCH  11  15
ATOM     15  O   UNL d   1      29.981 -16.331  -3.971  0.00  0.00    -0.349 OA
BRANCH  15  16
ATOM     16  C   UNL d   1      30.267 -17.704  -4.250  0.00  0.00     0.171 C 
ATOM     17  C   UNL d   1      30.405 -18.118  -5.702  0.00  0.00     0.034 C 
ENDBRANCH  15  16
ENDBRANCH  11  15
BRANCH  12  18
ATOM     18  O   UNL d   1      27.539 -15.271  -5.656  0.00  0.00    -0.346 OA
BRANCH  18  19
ATOM     19  C   UNL d   1      28.441 -14.413  -6.226  0.00  0.00     0.171 C 
ATOM     20  C   UNL d   1      29.711 -14.838  -6.895  0.00  0.00     0.034 C 
ENDBRANCH  18  19
ENDBRANCH  12  18
BRANCH  13  21
ATOM     21  O   UNL d   1      25.155 -14.971  -4.367  0.00  0.00    -0.349 OA
BRANCH  21  22
ATOM     22  C   UNL d   1      24.766 -13.599  -4.207  0.00  0.00     0.171 C 
ATOM     23  C   UNL d   1      25.832 -12.619  -4.605  0.00  0.00     0.034 C 
ENDBRANCH  21  22
ENDBRANCH  13  21
ENDBRANCH   7   9
ENDBRANCH   6   7
ENDBRANCH   5   6
ENDBRANCH   1   5
BRANCH   3  24
ATOM     24  C   UNL d   1      28.266 -14.267   4.270  0.00  0.00     0.034 A 
ATOM     25  C   UNL d   1      27.418 -13.348   4.882  0.00  0.00     0.032 A 
ATOM     26  C   UNL d   1      27.772 -12.781   6.122  0.00  0.00     0.032 A 
ATOM     27  C   UNL d   1      28.919 -13.176   6.842  0.00  0.00     0.035 A 
ATOM     28  C   UNL d   1      29.730 -14.122   6.205  0.00  0.00     0.032 A 
ATOM     29  C   UNL d   1      29.433 -14.625   4.934  0.00  0.00     0.032 A 
BRANCH  27  30
ATOM     30  N   UNL d   1      29.218 -12.597   8.110  0.00  0.00    -0.343 N 
BRANCH  30  31
ATOM     31  C   UNL d   1      29.061 -13.283   9.344  0.00  0.00     0.035 C 
ATOM     32  C   UNL d   1      29.821 -14.425   9.636  0.00  0.00     0.029 C 
ATOM     33  C   UNL d   1      29.554 -15.200  10.764  0.00  0.00     0.002 C 
ATOM     34  C   UNL d   1      28.638 -14.752  11.710  0.00  0.00     0.000 C 
ATOM     35  C   UNL d   1      27.937 -13.569  11.489  0.00  0.00     0.002 C 
ATOM     36  C   UNL d   1      28.124 -12.860  10.302  0.00  0.00     0.029 C 
ENDBRANCH  30  31
BRANCH  30  37
ATOM     37  C   UNL d   1      30.089 -11.365   8.149  0.00  0.00     0.082 C 
ATOM     38  C   UNL d   1      29.280 -10.126   7.733  0.00  0.00     0.032 C 
ATOM     39  C   UNL d   1      30.729 -11.035   9.515  0.00  0.00     0.032 C 
ENDBRANCH  30  37
ENDBRANCH  27  30
ENDBRANCH   3  24
TORSDOF 14
ENDMDL
MODEL 2
REMARK VINA RESULT:    -8.799      1.290      3.205
REMARK INTER + INTRA:         -15.906
REMARK INTER:                 -12.975
REMARK INTRA:                  -2.931
REMARK CONF_INDEPENDENT:        4.176
REMARK UNBOUND:                -2.931
REMARK  14 active torsions:
REMARK  status: ('A' for Active; 'I' for Inactive)
REMARK    1  A    between atoms: C_2  and  O_3 
REMARK    2  A    between atoms: O_3  and  C_4 
REMARK    3  A    between atoms: C_6  and  C_7 
REMARK    4  A    between atoms: C_7  and  O_9 
REMARK    5  A    between atoms: O_9  and  C_10 
REMARK    6  A    between atoms: C_10  and  C_11 
REMARK       I    between atoms: C_11  and  N_13 
REMARK    7  A    between atoms: N_13  and  C_14 
REMARK    8  A    between atoms: C_17  and  N_18 
REMARK    9  A    between atoms: N_18  and  C_19 
REMARK   10  A    between atoms: N_18  and  C_25 
REMARK   11  A    between atoms: C_31  and  O_32 
REMARK   12  A    between atoms: O_32  and  C_33 
REMARK   13  A    between atoms: C_35  and  O_36 
REMARK   14  A    between atoms: O_36  and  C_37 
ROOT
ATOM      1  C   UNL d   1      28.155 -13.841   1.750  0.00  0.00     0.246 C 
ATOM      2  O   UNL d   1      27.873 -12.643   1.809  0.00  0.00    -0.271 OA
ATOM      3  N   UNL d   1      28.577 -14.584   2.859  0.00  0.00    -0.325 N 
ATOM      4  H   UNL d   1      28.980 -15.505   2.742  0.00  0.00     0.169 HD
ENDROOT
BRANCH   1   5
ATOM      5  C   UNL d   1      28.098 -14.589   0.403  0.00  0.00     0.282 C 
BRANCH   5   6
ATOM      6  O   UNL d   1      28.383 -15.998   0.617  0.00  0.00    -0.308 OA
BRANCH   6   7
ATOM      7  C   UNL d   1      28.617 -16.754  -0.497  0.00  0.00     0.293 C 
ATOM      8  O   UNL d   1      29.469 -17.607  -0.573  0.00  0.00    -0.259 OA
BRANCH   7   9
ATOM      9  C   UNL d   1      27.638 -16.456  -1.620  0.00  0.00     0.045 A 
ATOM     10  C   UNL d   1      26.245 -16.527  -1.352  0.00  0.00     0.057 A 
ATOM     11  C   UNL d   1      25.263 -16.044  -2.259  0.00  0.00     0.105 A 
ATOM     12  C   UNL d   1      25.723 -15.501  -3.489  0.00  0.00     0.135 A 
ATOM     13  C   UNL d   1      27.117 -15.518  -3.805  0.00  0.00     0.105 A 
ATOM     14  C   UNL d   1      28.056 -16.009  -2.878  0.00  0.00     0.057 A 
BRANCH  11  15
ATOM     15  O   UNL d   1      23.993 -15.935  -1.685  0.00  0.00    -0.349 OA
BRANCH  15  16
ATOM     16  C   UNL d   1      23.643 -16.727  -0.547  0.00  0.00     0.171 C 
ATOM     17  C   UNL d   1      23.318 -18.190  -0.776  0.00  0.00     0.034 C 
ENDBRANCH  15  16
ENDBRANCH  11  15
BRANCH  12  18
ATOM     18  O   UNL d   1      25.016 -14.818  -4.448  0.00  0.00    -0.346 OA
BRANCH  18  19
ATOM     19  C   UNL d   1      24.769 -13.483  -4.271  0.00  0.00     0.171 C 
ATOM     20  C   UNL d   1      25.824 -12.420  -4.247  0.00  0.00     0.034 C 
ENDBRANCH  18  19
ENDBRANCH  12  18
BRANCH  13  21
ATOM     21  O   UNL d   1      27.684 -15.008  -4.974  0.00  0.00    -0.349 OA
BRANCH  21  22
ATOM     22  C   UNL d   1      29.116 -15.035  -5.068  0.00  0.00     0.171 C 
ATOM     23  C   UNL d   1      29.659 -16.302  -5.663  0.00  0.00     0.034 C 
ENDBRANCH  21  22
ENDBRANCH  13  21
ENDBRANCH   7   9
ENDBRANCH   6   7
ENDBRANCH   5   6
ENDBRANCH   1   5
BRANCH   3  24
ATOM     24  C   UNL d   1      28.623 -14.026   4.163  0.00  0.00     0.034 A 
ATOM     25  C   UNL d   1      29.797 -14.018   4.910  0.00  0.00     0.032 A 
ATOM     26  C   UNL d   1      29.787 -13.528   6.230  0.00  0.00     0.032 A 
ATOM     27  C   UNL d   1      28.649 -12.939   6.818  0.00  0.00     0.035 A 
ATOM     28  C   UNL d   1      27.496 -12.940   6.022  0.00  0.00     0.032 A 
ATOM     29  C   UNL d   1      27.473 -13.506   4.743  0.00  0.00     0.032 A 
BRANCH  27  30
ATOM     30  N   UNL d   1      28.697 -12.425   8.147  0.00  0.00    -0.343 N 
BRANCH  30  31
ATOM     31  C   UNL d   1      28.694 -13.244   9.307  0.00  0.00     0.035 C 
ATOM     32  C   UNL d   1      27.961 -12.878  10.445  0.00  0.00     0.029 C 
ATOM     33  C   UNL d   1      28.089 -13.583  11.642  0.00  0.00     0.002 C 
ATOM     34  C   UNL d   1      28.818 -14.767  11.673  0.00  0.00     0.000 C 
ATOM     35  C   UNL d   1      29.478 -15.204  10.527  0.00  0.00     0.002 C 
ATOM     36  C   UNL d   1      29.443 -14.431   9.365  0.00  0.00     0.029 C 
ENDBRANCH  30  31
BRANCH  30  37
ATOM     37  C   UNL d   1      29.155 -11.000   8.349  0.00  0.00     0.082 C 
ATOM     38  C   UNL d   1      30.528 -10.974   9.039  0.00  0.00     0.032 C 
ATOM     39  C   UNL d   1      29.288 -10.148   7.068  0.00  0.00     0.032 C 
ENDBRANCH  30  37
ENDBRANCH  27  30
ENDBRANCH   3  24
TORSDOF 14
ENDMDL
MODEL 3
REMARK VINA RESULT:    -8.454      0.634      2.361
REMARK INTER + INTRA:         -15.547
REMARK INTER:                 -12.631
REMARK INTRA:                  -2.916
REMARK CONF_INDEPENDENT:        4.176
REMARK UNBOUND:                -2.916
REMARK  14 active torsions:
REMARK  status: ('A' for Active; 'I' for Inactive)
REMARK    1  A    between atoms: C_2  and  O_3 
REMARK    2  A    between atoms: O_3  and  C_4 
REMARK    3  A    between atoms: C_6  and  C_7 
REMARK    4  A    between atoms: C_7  and  O_9 
REMARK    5  A    between atoms: O_9  and  C_10 
REMARK    6  A    between atoms: C_10  and  C_11 
REMARK       I    between atoms: C_11  and  N_13 
REMARK    7  A    between atoms: N_13  and  C_14 
REMARK    8  A    between atoms: C_17  and  N_18 
REMARK    9  A    between atoms: N_18  and  C_19 
REMARK   10  A    between atoms: N_18  and  C_25 
REMARK   11  A    between atoms: C_31  and  O_32 
REMARK   12  A    between atoms: O_32  and  C_33 
REMARK   13  A    between atoms: C_35  and  O_36 
REMARK   14  A    between atoms: O_36  and  C_37 
ROOT
ATOM      1  C   UNL d   1      27.680 -13.946   1.999  0.00  0.00     0.246 C 
ATOM      2  O   UNL d   1      27.527 -12.738   2.186  0.00  0.00    -0.271 OA
ATOM      3  N   UNL d   1      28.156 -14.819   2.984  0.00  0.00    -0.325 N 
ATOM      4  H   UNL d   1      28.449 -15.758   2.746  0.00  0.00     0.169 HD
ENDROOT
BRANCH   1   5
ATOM      5  C   UNL d   1      27.392 -14.563   0.616  0.00  0.00     0.282 C 
BRANCH   5   6
ATOM      6  O   UNL d   1      27.575 -16.004   0.678  0.00  0.00    -0.308 OA
BRANCH   6   7
ATOM      7  C   UNL d   1      26.990 -16.741  -0.312  0.00  0.00     0.293 C 
ATOM      8  O   UNL d   1      26.333 -17.736  -0.120  0.00  0.00    -0.259 OA
BRANCH   7   9
ATOM      9  C   UNL d   1      27.192 -16.134  -1.690  0.00  0.00     0.045 A 
ATOM     10  C   UNL d   1      28.474 -16.221  -2.296  0.00  0.00     0.057 A 
ATOM     11  C   UNL d   1      28.702 -15.898  -3.661  0.00  0.00     0.105 A 
ATOM     12  C   UNL d   1      27.587 -15.443  -4.418  0.00  0.00     0.135 A 
ATOM     13  C   UNL d   1      26.318 -15.260  -3.787  0.00  0.00     0.105 A 
ATOM     14  C   UNL d   1      26.137 -15.591  -2.430  0.00  0.00     0.057 A 
BRANCH  11  15
ATOM     15  O   UNL d   1      29.946 -16.331  -4.127  0.00  0.00    -0.349 OA
BRANCH  15  16
ATOM     16  C   UNL d   1      30.029 -17.365  -5.112  0.00  0.00     0.171 C 
ATOM     17  C   UNL d   1      30.718 -17.040  -6.423  0.00  0.00     0.034 C 
ENDBRANCH  15  16
ENDBRANCH  11  15
BRANCH  12  18
ATOM     18  O   UNL d   1      27.491 -15.236  -5.772  0.00  0.00    -0.346 OA
BRANCH  18  19
ATOM     19  C   UNL d   1      28.425 -14.451  -6.394  0.00  0.00     0.171 C 
ATOM     20  C   UNL d   1      28.610 -12.987  -6.138  0.00  0.00     0.034 C 
ENDBRANCH  18  19
ENDBRANCH  12  18
BRANCH  13  21
ATOM     21  O   UNL d   1      25.155 -14.829  -4.427  0.00  0.00    -0.349 OA
BRANCH  21  22
ATOM     22  C   UNL d   1      24.780 -13.456  -4.240  0.00  0.00     0.171 C 
ATOM     23  C   UNL d   1      25.942 -12.541  -3.985  0.00  0.00     0.034 C 
ENDBRANCH  21  22
ENDBRANCH  13  21
ENDBRANCH   7   9
ENDBRANCH   6   7
ENDBRANCH   5   6
ENDBRANCH   1   5
BRANCH   3  24
ATOM     24  C   UNL d   1      28.409 -14.386   4.312  0.00  0.00     0.034 A 
ATOM     25  C   UNL d   1      29.517 -14.836   5.024  0.00  0.00     0.032 A 
ATOM     26  C   UNL d   1      29.696 -14.447   6.366  0.00  0.00     0.032 A 
ATOM     27  C   UNL d   1      28.847 -13.526   7.014  0.00  0.00     0.035 A 
ATOM     28  C   UNL d   1      27.761 -13.076   6.253  0.00  0.00     0.032 A 
ATOM     29  C   UNL d   1      27.525 -13.525   4.949  0.00  0.00     0.032 A 
BRANCH  27  30
ATOM     30  N   UNL d   1      29.088 -13.136   8.364  0.00  0.00    -0.343 N 
BRANCH  30  31
ATOM     31  C   UNL d   1      29.496 -11.830   8.744  0.00  0.00     0.035 C 
ATOM     32  C   UNL d   1      29.010 -10.699   8.074  0.00  0.00     0.029 C 
ATOM     33  C   UNL d   1      29.534  -9.431   8.325  0.00  0.00     0.002 C 
ATOM     34  C   UNL d   1      30.430  -9.249   9.373  0.00  0.00     0.000 C 
ATOM     35  C   UNL d   1      30.857 -10.345  10.118  0.00  0.00     0.002 C 
ATOM     36  C   UNL d   1      30.419 -11.627   9.784  0.00  0.00     0.029 C 
ENDBRANCH  30  31
BRANCH  30  37
ATOM     37  C   UNL d   1      28.530 -13.999   9.470  0.00  0.00     0.082 C 
ATOM     38  C   UNL d   1      29.648 -14.845  10.101  0.00  0.00     0.032 C 
ATOM     39  C   UNL d   1      27.839 -13.247  10.628  0.00  0.00     0.032 C 
ENDBRANCH  30  37
ENDBRANCH  27  30
ENDBRANCH   3  24
TORSDOF 14
ENDMDL
MODEL 4
REMARK VINA RESULT:    -8.155      1.020      3.111
REMARK INTER + INTRA:         -15.366
REMARK INTER:                 -12.331
REMARK INTRA:                  -3.035
REMARK CONF_INDEPENDENT:        4.176
REMARK UNBOUND:                -3.035
REMARK  14 active torsions:
REMARK  status: ('A' for Active; 'I' for Inactive)
REMARK    1  A    between atoms: C_2  and  O_3 
REMARK    2  A    between atoms: O_3  and  C_4 
REMARK    3  A    between atoms: C_6  and  C_7 
REMARK    4  A    between atoms: C_7  and  O_9 
REMARK    5  A    between atoms: O_9  and  C_10 
REMARK    6  A    between atoms: C_10  and  C_11 
REMARK       I    between atoms: C_11  and  N_13 
REMARK    7  A    between atoms: N_13  and  C_14 
REMARK    8  A    between atoms: C_17  and  N_18 
REMARK    9  A    between atoms: N_18  and  C_19 
REMARK   10  A    between atoms: N_18  and  C_25 
REMARK   11  A    between atoms: C_31  and  O_32 
REMARK   12  A    between atoms: O_32  and  C_33 
REMARK   13  A    between atoms: C_35  and  O_36 
REMARK   14  A    between atoms: O_36  and  C_37 
ROOT
ATOM      1  C   UNL d   1      27.468 -13.760   1.875  0.00  0.00     0.246 C 
ATOM      2  O   UNL d   1      27.044 -12.658   2.227  0.00  0.00    -0.271 OA
ATOM      3  N   UNL d   1      28.208 -14.599   2.715  0.00  0.00    -0.325 N 
ATOM      4  H   UNL d   1      28.701 -15.401   2.343  0.00  0.00     0.169 HD
ENDROOT
BRANCH   1   5
ATOM      5  C   UNL d   1      27.237 -14.259   0.435  0.00  0.00     0.282 C 
BRANCH   5   6
ATOM      6  O   UNL d   1      28.100 -15.399   0.171  0.00  0.00    -0.308 OA
BRANCH   6   7
ATOM      7  C   UNL d   1      27.538 -16.457  -0.485  0.00  0.00     0.293 C 
ATOM      8  O   UNL d   1      27.070 -17.426   0.064  0.00  0.00    -0.259 OA
BRANCH   7   9
ATOM      9  C   UNL d   1      27.497 -16.255  -1.990  0.00  0.00     0.045 A 
ATOM     10  C   UNL d   1      26.272 -15.867  -2.596  0.00  0.00     0.057 A 
ATOM     11  C   UNL d   1      26.188 -15.430  -3.946  0.00  0.00     0.105 A 
ATOM     12  C   UNL d   1      27.391 -15.420  -4.704  0.00  0.00     0.135 A 
ATOM     13  C   UNL d   1      28.606 -15.903  -4.128  0.00  0.00     0.105 A 
ATOM     14  C   UNL d   1      28.644 -16.330  -2.787  0.00  0.00     0.057 A 
BRANCH  11  15
ATOM     15  O   UNL d   1      24.968 -14.820  -4.250  0.00  0.00    -0.349 OA
BRANCH  15  16
ATOM     16  C   UNL d   1      24.835 -13.397  -4.185  0.00  0.00     0.171 C 
ATOM     17  C   UNL d   1      25.807 -12.635  -3.306  0.00  0.00     0.034 C 
ENDBRANCH  15  16
ENDBRANCH  11  15
BRANCH  12  18
ATOM     18  O   UNL d   1      27.621 -14.889  -5.950  0.00  0.00    -0.346 OA
BRANCH  18  19
ATOM     19  C   UNL d   1      27.845 -13.544  -6.070  0.00  0.00     0.171 C 
ATOM     20  C   UNL d   1      29.087 -12.846  -5.610  0.00  0.00     0.034 C 
ENDBRANCH  18  19
ENDBRANCH  12  18
BRANCH  13  21
ATOM     21  O   UNL d   1      29.845 -15.935  -4.770  0.00  0.00    -0.349 OA
BRANCH  21  22
ATOM     22  C   UNL d   1      30.031 -16.941  -5.777  0.00  0.00     0.171 C 
ATOM     23  C   UNL d   1      31.119 -16.617  -6.760  0.00  0.00     0.034 C 
ENDBRANCH  21  22
ENDBRANCH  13  21
ENDBRANCH   7   9
ENDBRANCH   6   7
ENDBRANCH   5   6
ENDBRANCH   1   5
BRANCH   3  24
ATOM     24  C   UNL d   1      28.446 -14.278   4.077  0.00  0.00     0.034 A 
ATOM     25  C   UNL d   1      29.591 -14.712   4.738  0.00  0.00     0.032 A 
ATOM     26  C   UNL d   1      29.757 -14.442   6.110  0.00  0.00     0.032 A 
ATOM     27  C   UNL d   1      28.852 -13.650   6.847  0.00  0.00     0.035 A 
ATOM     28  C   UNL d   1      27.728 -13.209   6.138  0.00  0.00     0.032 A 
ATOM     29  C   UNL d   1      27.510 -13.548   4.799  0.00  0.00     0.032 A 
BRANCH  27  30
ATOM     30  N   UNL d   1      29.080 -13.375   8.227  0.00  0.00    -0.343 N 
BRANCH  30  31
ATOM     31  C   UNL d   1      29.996 -14.103   9.033  0.00  0.00     0.035 C 
ATOM     32  C   UNL d   1      31.376 -13.873   8.942  0.00  0.00     0.029 C 
ATOM     33  C   UNL d   1      32.289 -14.697   9.599  0.00  0.00     0.002 C 
ATOM     34  C   UNL d   1      31.833 -15.658  10.495  0.00  0.00     0.000 C 
ATOM     35  C   UNL d   1      30.465 -15.842  10.677  0.00  0.00     0.002 C 
ATOM     36  C   UNL d   1      29.556 -15.093   9.927  0.00  0.00     0.029 C 
ENDBRANCH  30  31
BRANCH  30  37
ATOM     37  C   UNL d   1      28.640 -12.039   8.775  0.00  0.00     0.082 C 
ATOM     38  C   UNL d   1      28.148 -12.193  10.224  0.00  0.00     0.032 C 
ATOM     39  C   UNL d   1      29.715 -10.930   8.789  0.00  0.00     0.032 C 
ENDBRANCH  30  37
ENDBRANCH  27  30
ENDBRANCH   3  24
TORSDOF 14
ENDMDL
MODEL 5
REMARK VINA RESULT:    -8.119      0.686      2.884
REMARK INTER + INTRA:         -15.371
REMARK INTER:                 -12.295
REMARK INTRA:                  -3.076
REMARK CONF_INDEPENDENT:        4.176
REMARK UNBOUND:                -3.076
REMARK  14 active torsions:
REMARK  status: ('A' for Active; 'I' for Inactive)
REMARK    1  A    between atoms: C_2  and  O_3 
REMARK    2  A    between atoms: O_3  and  C_4 
REMARK    3  A    between atoms: C_6  and  C_7 
REMARK    4  A    between atoms: C_7  and  O_9 
REMARK    5  A    between atoms: O_9  and  C_10 
REMARK    6  A    between atoms: C_10  and  C_11 
REMARK       I    between atoms: C_11  and  N_13 
REMARK    7  A    between atoms: N_13  and  C_14 
REMARK    8  A    between atoms: C_17  and  N_18 
REMARK    9  A    between atoms: N_18  and  C_19 
REMARK   10  A    between atoms: N_18  and  C_25 
REMARK   11  A    between atoms: C_31  and  O_32 
REMARK   12  A    between atoms: O_32  and  C_33 
REMARK   13  A    between atoms: C_35  and  O_36 
REMARK   14  A    between atoms: O_36  and  C_37 
ROOT
ATOM      1  C   UNL d   1      28.163 -13.623   1.706  0.00  0.00     0.246 C 
ATOM      2  O   UNL d   1      28.013 -12.407   1.835  0.00  0.00    -0.271 OA
ATOM      3  N   UNL d   1      28.461 -14.475   2.775  0.00  0.00    -0.325 N 
ATOM      4  H   UNL d   1      28.765 -15.427   2.609  0.00  0.00     0.169 HD
ENDROOT
BRANCH   1   5
ATOM      5  C   UNL d   1      28.073 -14.274   0.311  0.00  0.00     0.282 C 
BRANCH   5   6
ATOM      6  O   UNL d   1      28.148 -15.719   0.444  0.00  0.00    -0.308 OA
BRANCH   6   7
ATOM      7  C   UNL d   1      27.203 -16.447  -0.221  0.00  0.00     0.293 C 
ATOM      8  O   UNL d   1      26.337 -17.092   0.319  0.00  0.00    -0.259 OA
BRANCH   7   9
ATOM      9  C   UNL d   1      27.311 -16.304  -1.730  0.00  0.00     0.045 A 
ATOM     10  C   UNL d   1      26.171 -15.874  -2.461  0.00  0.00     0.057 A 
ATOM     11  C   UNL d   1      26.236 -15.488  -3.827  0.00  0.00     0.105 A 
ATOM     12  C   UNL d   1      27.501 -15.574  -4.470  0.00  0.00     0.135 A 
ATOM     13  C   UNL d   1      28.628 -16.099  -3.766  0.00  0.00     0.105 A 
ATOM     14  C   UNL d   1      28.520 -16.473  -2.413  0.00  0.00     0.057 A 
BRANCH  11  15
ATOM     15  O   UNL d   1      25.086 -14.824  -4.265  0.00  0.00    -0.349 OA
BRANCH  15  16
ATOM     16  C   UNL d   1      24.676 -13.603  -3.644  0.00  0.00     0.171 C 
ATOM     17  C   UNL d   1      25.532 -12.372  -3.870  0.00  0.00     0.034 C 
ENDBRANCH  15  16
ENDBRANCH  11  15
BRANCH  12  18
ATOM     18  O   UNL d   1      27.874 -15.106  -5.706  0.00  0.00    -0.346 OA
BRANCH  18  19
ATOM     19  C   UNL d   1      27.941 -13.755  -5.916  0.00  0.00     0.171 C 
ATOM     20  C   UNL d   1      28.556 -13.112  -7.120  0.00  0.00     0.034 C 
ENDBRANCH  18  19
ENDBRANCH  12  18
BRANCH  13  21
ATOM     21  O   UNL d   1      29.917 -16.224  -4.289  0.00  0.00    -0.349 OA
BRANCH  21  22
ATOM     22  C   UNL d   1      30.081 -17.095  -5.417  0.00  0.00     0.171 C 
ATOM     23  C   UNL d   1      30.713 -16.431  -6.606  0.00  0.00     0.034 C 
ENDBRANCH  21  22
ENDBRANCH  13  21
ENDBRANCH   7   9
ENDBRANCH   6   7
ENDBRANCH   5   6
ENDBRANCH   1   5
BRANCH   3  24
ATOM     24  C   UNL d   1      28.521 -14.008   4.114  0.00  0.00     0.034 A 
ATOM     25  C   UNL d   1      27.403 -13.471   4.746  0.00  0.00     0.032 A 
ATOM     26  C   UNL d   1      27.517 -12.945   6.048  0.00  0.00     0.032 A 
ATOM     27  C   UNL d   1      28.706 -13.025   6.802  0.00  0.00     0.035 A 
ATOM     28  C   UNL d   1      29.798 -13.598   6.139  0.00  0.00     0.032 A 
ATOM     29  C   UNL d   1      29.719 -14.042   4.815  0.00  0.00     0.032 A 
BRANCH  27  30
ATOM     30  N   UNL d   1      28.763 -12.509   8.130  0.00  0.00    -0.343 N 
BRANCH  30  31
ATOM     31  C   UNL d   1      28.815 -13.327   9.290  0.00  0.00     0.035 C 
ATOM     32  C   UNL d   1      27.993 -13.063  10.395  0.00  0.00     0.029 C 
ATOM     33  C   UNL d   1      28.158 -13.751  11.597  0.00  0.00     0.002 C 
ATOM     34  C   UNL d   1      29.031 -14.832  11.661  0.00  0.00     0.000 C 
ATOM     35  C   UNL d   1      29.791 -15.175  10.546  0.00  0.00     0.002 C 
ATOM     36  C   UNL d   1      29.707 -14.408   9.383  0.00  0.00     0.029 C 
ENDBRANCH  30  31
BRANCH  30  37
ATOM     37  C   UNL d   1      29.171 -11.068   8.323  0.00  0.00     0.082 C 
ATOM     38  C   UNL d   1      30.506 -10.989   9.080  0.00  0.00     0.032 C 
ATOM     39  C   UNL d   1      29.346 -10.240   7.032  0.00  0.00     0.032 C 
ENDBRANCH  30  37
ENDBRANCH  27  30
ENDBRANCH   3  24
TORSDOF 14
ENDMDL
MODEL 6
REMARK VINA RESULT:    -7.964      1.424      3.705
REMARK INTER + INTRA:         -14.996
REMARK INTER:                 -12.140
REMARK INTRA:                  -2.856
REMARK CONF_INDEPENDENT:        4.176
REMARK UNBOUND:                -2.856
REMARK  14 active torsions:
REMARK  status: ('A' for Active; 'I' for Inactive)
REMARK    1  A    between atoms: C_2  and  O_3 
REMARK    2  A    between atoms: O_3  and  C_4 
REMARK    3  A    between atoms: C_6  and  C_7 
REMARK    4  A    between atoms: C_7  and  O_9 
REMARK    5  A    between atoms: O_9  and  C_10 
REMARK    6  A    between atoms: C_10  and  C_11 
REMARK       I    between atoms: C_11  and  N_13 
REMARK    7  A    between atoms: N_13  and  C_14 
REMARK    8  A    between atoms: C_17  and  N_18 
REMARK    9  A    between atoms: N_18  and  C_19 
REMARK   10  A    between atoms: N_18  and  C_25 
REMARK   11  A    between atoms: C_31  and  O_32 
REMARK   12  A    between atoms: O_32  and  C_33 
REMARK   13  A    between atoms: C_35  and  O_36 
REMARK   14  A    between atoms: O_36  and  C_37 
ROOT
ATOM      1  C   UNL d   1      27.560 -13.874   2.558  0.00  0.00     0.246 C 
ATOM      2  O   UNL d   1      27.319 -12.680   2.737  0.00  0.00    -0.271 OA
ATOM      3  N   UNL d   1      28.178 -14.683   3.518  0.00  0.00    -0.325 N 
ATOM      4  H   UNL d   1      28.531 -15.600   3.273  0.00  0.00     0.169 HD
ENDROOT
BRANCH   1   5
ATOM      5  C   UNL d   1      27.223 -14.542   1.210  0.00  0.00     0.282 C 
BRANCH   5   6
ATOM      6  O   UNL d   1      27.653 -15.931   1.234  0.00  0.00    -0.308 OA
BRANCH   6   7
ATOM      7  C   UNL d   1      28.232 -16.415   0.096  0.00  0.00     0.293 C 
ATOM      8  O   UNL d   1      29.289 -16.998   0.066  0.00  0.00    -0.259 OA
BRANCH   7   9
ATOM      9  C   UNL d   1      27.365 -16.206  -1.135  0.00  0.00     0.045 A 
ATOM     10  C   UNL d   1      25.977 -16.496  -1.052  0.00  0.00     0.057 A 
ATOM     11  C   UNL d   1      25.051 -16.115  -2.062  0.00  0.00     0.105 A 
ATOM     12  C   UNL d   1      25.571 -15.444  -3.202  0.00  0.00     0.135 A 
ATOM     13  C   UNL d   1      26.979 -15.240  -3.334  0.00  0.00     0.105 A 
ATOM     14  C   UNL d   1      27.860 -15.635  -2.311  0.00  0.00     0.057 A 
BRANCH  11  15
ATOM     15  O   UNL d   1      23.719 -16.226  -1.654  0.00  0.00    -0.349 OA
BRANCH  15  16
ATOM     16  C   UNL d   1      23.368 -17.055  -0.543  0.00  0.00     0.171 C 
ATOM     17  C   UNL d   1      23.226 -18.544  -0.788  0.00  0.00     0.034 C 
ENDBRANCH  15  16
ENDBRANCH  11  15
BRANCH  12  18
ATOM     18  O   UNL d   1      24.891 -14.823  -4.221  0.00  0.00    -0.346 OA
BRANCH  18  19
ATOM     19  C   UNL d   1      24.637 -13.481  -4.132  0.00  0.00     0.171 C 
ATOM     20  C   UNL d   1      25.536 -12.489  -3.462  0.00  0.00     0.034 C 
ENDBRANCH  18  19
ENDBRANCH  12  18
BRANCH  13  21
ATOM     21  O   UNL d   1      27.601 -14.589  -4.402  0.00  0.00    -0.349 OA
BRANCH  21  22
ATOM     22  C   UNL d   1      28.305 -15.412  -5.344  0.00  0.00     0.171 C 
ATOM     23  C   UNL d   1      29.303 -14.659  -6.175  0.00  0.00     0.034 C 
ENDBRANCH  21  22
ENDBRANCH  13  21
ENDBRANCH   7   9
ENDBRANCH   6   7
ENDBRANCH   5   6
ENDBRANCH   1   5
BRANCH   3  24
ATOM     24  C   UNL d   1      28.491 -14.203   4.816  0.00  0.00     0.034 A 
ATOM     25  C   UNL d   1      27.651 -13.316   5.485  0.00  0.00     0.032 A 
ATOM     26  C   UNL d   1      28.031 -12.798   6.738  0.00  0.00     0.032 A 
ATOM     27  C   UNL d   1      29.197 -13.214   7.415  0.00  0.00     0.035 A 
ATOM     28  C   UNL d   1      29.998 -14.128   6.720  0.00  0.00     0.032 A 
ATOM     29  C   UNL d   1      29.674 -14.580   5.437  0.00  0.00     0.032 A 
BRANCH  27  30
ATOM     30  N   UNL d   1      29.522 -12.686   8.699  0.00  0.00    -0.343 N 
BRANCH  30  31
ATOM     31  C   UNL d   1      29.961 -11.353   8.913  0.00  0.00     0.035 C 
ATOM     32  C   UNL d   1      31.128 -11.087   9.643  0.00  0.00     0.029 C 
ATOM     33  C   UNL d   1      31.472  -9.784  10.003  0.00  0.00     0.002 C 
ATOM     34  C   UNL d   1      30.749  -8.712   9.492  0.00  0.00     0.000 C 
ATOM     35  C   UNL d   1      29.640  -8.947   8.684  0.00  0.00     0.002 C 
ATOM     36  C   UNL d   1      29.232 -10.256   8.425  0.00  0.00     0.029 C 
ENDBRANCH  30  31
BRANCH  30  37
ATOM     37  C   UNL d   1      29.027 -13.420   9.923  0.00  0.00     0.082 C 
ATOM     38  C   UNL d   1      27.775 -12.729  10.488  0.00  0.00     0.032 C 
ATOM     39  C   UNL d   1      28.656 -14.904   9.714  0.00  0.00     0.032 C 
ENDBRANCH  30  37
ENDBRANCH  27  30
ENDBRANCH   3  24
TORSDOF 14
ENDMDL
MODEL 7
REMARK VINA RESULT:    -7.888      5.872      8.953
REMARK INTER + INTRA:         -15.409
REMARK INTER:                 -12.064
REMARK INTRA:                  -3.344
REMARK CONF_INDEPENDENT:        4.176
REMARK UNBOUND:                -3.344
REMARK  14 active torsions:
REMARK  status: ('A' for Active; 'I' for Inactive)
REMARK    1  A    between atoms: C_2  and  O_3 
REMARK    2  A    between atoms: O_3  and  C_4 
REMARK    3  A    between atoms: C_6  and  C_7 
REMARK    4  A    between atoms: C_7  and  O_9 
REMARK    5  A    between atoms: O_9  and  C_10 
REMARK    6  A    between atoms: C_10  and  C_11 
REMARK       I    between atoms: C_11  and  N_13 
REMARK    7  A    between atoms: N_13  and  C_14 
REMARK    8  A    between atoms: C_17  and  N_18 
REMARK    9  A    between atoms: N_18  and  C_19 
REMARK   10  A    between atoms: N_18  and  C_25 
REMARK   11  A    between atoms: C_31  and  O_32 
REMARK   12  A    between atoms: O_32  and  C_33 
REMARK   13  A    between atoms: C_35  and  O_36 
REMARK   14  A    between atoms: O_36  and  C_37 
ROOT
ATOM      1  C   UNL d   1      27.948 -14.172  -6.073  0.00  0.00     0.246 C 
ATOM      2  O   UNL d   1      27.754 -15.367  -6.299  0.00  0.00    -0.271 OA
ATOM      3  N   UNL d   1      27.605 -13.556  -4.864  0.00  0.00    -0.325 N 
ATOM      4  H   UNL d   1      27.600 -12.547  -4.780  0.00  0.00     0.169 HD
ENDROOT
BRANCH   1   5
ATOM      5  C   UNL d   1      28.553 -13.263  -7.161  0.00  0.00     0.282 C 
BRANCH   5   6
ATOM      6  O   UNL d   1      29.874 -13.751  -7.523  0.00  0.00    -0.308 OA
BRANCH   6   7
ATOM      7  C   UNL d   1      30.714 -14.072  -6.495  0.00  0.00     0.293 C 
ATOM      8  O   UNL d   1      31.304 -13.262  -5.821  0.00  0.00    -0.259 OA
BRANCH   7   9
ATOM      9  C   UNL d   1      30.776 -15.568  -6.237  0.00  0.00     0.045 A 
ATOM     10  C   UNL d   1      30.579 -16.044  -4.913  0.00  0.00     0.057 A 
ATOM     11  C   UNL d   1      30.386 -17.419  -4.611  0.00  0.00     0.105 A 
ATOM     12  C   UNL d   1      30.426 -18.336  -5.697  0.00  0.00     0.135 A 
ATOM     13  C   UNL d   1      30.722 -17.873  -7.016  0.00  0.00     0.105 A 
ATOM     14  C   UNL d   1      30.909 -16.501  -7.270  0.00  0.00     0.057 A 
BRANCH  11  15
ATOM     15  O   UNL d   1      29.918 -17.636  -3.312  0.00  0.00    -0.349 OA
BRANCH  15  16
ATOM     16  C   UNL d   1      30.801 -17.505  -2.194  0.00  0.00     0.171 C 
ATOM     17  C   UNL d   1      30.190 -17.498  -0.807  0.00  0.00     0.034 C 
ENDBRANCH  15  16
ENDBRANCH  11  15
BRANCH  12  18
ATOM     18  O   UNL d   1      30.102 -19.670  -5.711  0.00  0.00    -0.346 OA
BRANCH  18  19
ATOM     19  C   UNL d   1      31.057 -20.592  -5.375  0.00  0.00     0.171 C 
ATOM     20  C   UNL d   1      31.483 -20.899  -3.973  0.00  0.00     0.034 C 
ENDBRANCH  18  19
ENDBRANCH  12  18
BRANCH  13  21
ATOM     21  O   UNL d   1      30.780 -18.676  -8.157  0.00  0.00    -0.349 OA
BRANCH  21  22
ATOM     22  C   UNL d   1      32.086 -19.003  -8.657  0.00  0.00     0.171 C 
ATOM     23  C   UNL d   1      33.179 -18.845  -7.640  0.00  0.00     0.034 C 
ENDBRANCH  21  22
ENDBRANCH  13  21
ENDBRANCH   7   9
ENDBRANCH   6   7
ENDBRANCH   5   6
ENDBRANCH   1   5
BRANCH   3  24
ATOM     24  C   UNL d   1      27.088 -14.292  -3.766  0.00  0.00     0.034 A 
ATOM     25  C   UNL d   1      27.790 -15.358  -3.211  0.00  0.00     0.032 A 
ATOM     26  C   UNL d   1      27.212 -16.116  -2.174  0.00  0.00     0.032 A 
ATOM     27  C   UNL d   1      25.973 -15.785  -1.585  0.00  0.00     0.035 A 
ATOM     28  C   UNL d   1      25.313 -14.689  -2.154  0.00  0.00     0.032 A 
ATOM     29  C   UNL d   1      25.838 -13.985  -3.243  0.00  0.00     0.032 A 
BRANCH  27  30
ATOM     30  N   UNL d   1      25.445 -16.563  -0.514  0.00  0.00    -0.343 N 
BRANCH  30  31
ATOM     31  C   UNL d   1      24.199 -17.242  -0.575  0.00  0.00     0.035 C 
ATOM     32  C   UNL d   1      24.131 -18.637  -0.456  0.00  0.00     0.029 C 
ATOM     33  C   UNL d   1      22.939 -19.323  -0.686  0.00  0.00     0.002 C 
ATOM     34  C   UNL d   1      21.757 -18.614  -0.868  0.00  0.00     0.000 C 
ATOM     35  C   UNL d   1      21.781 -17.222  -0.895  0.00  0.00     0.002 C 
ATOM     36  C   UNL d   1      22.997 -16.545  -0.782  0.00  0.00     0.029 C 
ENDBRANCH  30  31
BRANCH  30  37
ATOM     37  C   UNL d   1      26.385 -17.013   0.579  0.00  0.00     0.082 C 
ATOM     38  C   UNL d   1      27.107 -18.305   0.162  0.00  0.00     0.032 C 
ATOM     39  C   UNL d   1      27.483 -16.003   0.979  0.00  0.00     0.032 C 
ENDBRANCH  30  37
ENDBRANCH  27  30
ENDBRANCH   3  24
TORSDOF 14
ENDMDL
MODEL 8
REMARK VINA RESULT:    -7.292      6.061      9.765
REMARK INTER + INTRA:         -15.063
REMARK INTER:                 -11.468
REMARK INTRA:                  -3.594
REMARK CONF_INDEPENDENT:        4.176
REMARK UNBOUND:                -3.594
REMARK  14 active torsions:
REMARK  status: ('A' for Active; 'I' for Inactive)
REMARK    1  A    between atoms: C_2  and  O_3 
REMARK    2  A    between atoms: O_3  and  C_4 
REMARK    3  A    between atoms: C_6  and  C_7 
REMARK    4  A    between atoms: C_7  and  O_9 
REMARK    5  A    between atoms: O_9  and  C_10 
REMARK    6  A    between atoms: C_10  and  C_11 
REMARK       I    between atoms: C_11  and  N_13 
REMARK    7  A    between atoms: N_13  and  C_14 
REMARK    8  A    between atoms: C_17  and  N_18 
REMARK    9  A    between atoms: N_18  and  C_19 
REMARK   10  A    between atoms: N_18  and  C_25 
REMARK   11  A    between atoms: C_31  and  O_32 
REMARK   12  A    between atoms: O_32  and  C_33 
REMARK   13  A    between atoms: C_35  and  O_36 
REMARK   14  A    between atoms: O_36  and  C_37 
ROOT
ATOM      1  C   UNL d   1      27.863 -13.978  -6.288  0.00  0.00     0.246 C 
ATOM      2  O   UNL d   1      27.916 -15.200  -6.436  0.00  0.00    -0.271 OA
ATOM      3  N   UNL d   1      27.322 -13.367  -5.151  0.00  0.00    -0.325 N 
ATOM      4  H   UNL d   1      27.119 -12.376  -5.143  0.00  0.00     0.169 HD
ENDROOT
BRANCH   1   5
ATOM      5  C   UNL d   1      28.362 -13.037  -7.402  0.00  0.00     0.282 C 
BRANCH   5   6
ATOM      6  O   UNL d   1      28.321 -11.662  -6.932  0.00  0.00    -0.308 OA
BRANCH   6   7
ATOM      7  C   UNL d   1      27.121 -11.016  -7.023  0.00  0.00     0.293 C 
ATOM      8  O   UNL d   1      26.378 -11.094  -7.973  0.00  0.00    -0.259 OA
BRANCH   7   9
ATOM      9  C   UNL d   1      26.779 -10.238  -5.764  0.00  0.00     0.045 A 
ATOM     10  C   UNL d   1      25.585  -9.469  -5.737  0.00  0.00     0.057 A 
ATOM     11  C   UNL d   1      25.063  -8.903  -4.542  0.00  0.00     0.105 A 
ATOM     12  C   UNL d   1      25.805  -9.106  -3.346  0.00  0.00     0.135 A 
ATOM     13  C   UNL d   1      27.057  -9.794  -3.388  0.00  0.00     0.105 A 
ATOM     14  C   UNL d   1      27.538 -10.337  -4.594  0.00  0.00     0.057 A 
BRANCH  11  15
ATOM     15  O   UNL d   1      23.748  -8.449  -4.678  0.00  0.00    -0.349 OA
BRANCH  15  16
ATOM     16  C   UNL d   1      23.482  -7.156  -5.227  0.00  0.00     0.171 C 
ATOM     17  C   UNL d   1      23.197  -7.063  -6.713  0.00  0.00     0.034 C 
ENDBRANCH  15  16
ENDBRANCH  11  15
BRANCH  12  18
ATOM     18  O   UNL d   1      25.447  -8.825  -2.051  0.00  0.00    -0.346 OA
BRANCH  18  19
ATOM     19  C   UNL d   1      25.530  -7.535  -1.601  0.00  0.00     0.171 C 
ATOM     20  C   UNL d   1      26.576  -6.552  -2.028  0.00  0.00     0.034 C 
ENDBRANCH  18  19
ENDBRANCH  12  18
BRANCH  13  21
ATOM     21  O   UNL d   1      27.867 -10.059  -2.282  0.00  0.00    -0.349 OA
BRANCH  21  22
ATOM     22  C   UNL d   1      28.237 -11.427  -2.058  0.00  0.00     0.171 C 
ATOM     23  C   UNL d   1      27.385 -12.124  -1.036  0.00  0.00     0.034 C 
ENDBRANCH  21  22
ENDBRANCH  13  21
ENDBRANCH   7   9
ENDBRANCH   6   7
ENDBRANCH   5   6
ENDBRANCH   1   5
BRANCH   3  24
ATOM     24  C   UNL d   1      26.876 -14.121  -4.034  0.00  0.00     0.034 A 
ATOM     25  C   UNL d   1      27.702 -15.049  -3.406  0.00  0.00     0.032 A 
ATOM     26  C   UNL d   1      27.201 -15.836  -2.351  0.00  0.00     0.032 A 
ATOM     27  C   UNL d   1      25.908 -15.662  -1.816  0.00  0.00     0.035 A 
ATOM     28  C   UNL d   1      25.120 -14.699  -2.457  0.00  0.00     0.032 A 
ATOM     29  C   UNL d   1      25.577 -13.975  -3.563  0.00  0.00     0.032 A 
BRANCH  27  30
ATOM     30  N   UNL d   1      25.458 -16.459  -0.723  0.00  0.00    -0.343 N 
BRANCH  30  31
ATOM     31  C   UNL d   1      24.253 -17.211  -0.743  0.00  0.00     0.035 C 
ATOM     32  C   UNL d   1      23.016 -16.585  -0.951  0.00  0.00     0.029 C 
ATOM     33  C   UNL d   1      21.819 -17.285  -0.801  0.00  0.00     0.002 C 
ATOM     34  C   UNL d   1      21.843 -18.663  -0.611  0.00  0.00     0.000 C 
ATOM     35  C   UNL d   1      23.063 -19.325  -0.496  0.00  0.00     0.002 C 
ATOM     36  C   UNL d   1      24.255 -18.600  -0.529  0.00  0.00     0.029 C 
ENDBRANCH  30  31
BRANCH  30  37
ATOM     37  C   UNL d   1      26.454 -16.841   0.345  0.00  0.00     0.082 C 
ATOM     38  C   UNL d   1      27.344 -17.995  -0.145  0.00  0.00     0.032 C 
ATOM     39  C   UNL d   1      27.405 -15.718   0.811  0.00  0.00     0.032 C 
ENDBRANCH  30  37
ENDBRANCH  27  30
ENDBRANCH   3  24
TORSDOF 14
ENDMDL
MODEL 9
REMARK VINA RESULT:    -6.105      5.889      8.809
REMARK INTER + INTRA:         -15.072
REMARK INTER:                 -10.281
REMARK INTRA:                  -4.791
REMARK CONF_INDEPENDENT:        4.176
REMARK UNBOUND:                -4.791
REMARK  14 active torsions:
REMARK  status: ('A' for Active; 'I' for Inactive)
REMARK    1  A    between atoms: C_2  and  O_3 
REMARK    2  A    between atoms: O_3  and  C_4 
REMARK    3  A    between atoms: C_6  and  C_7 
REMARK    4  A    between atoms: C_7  and  O_9 
REMARK    5  A    between atoms: O_9  and  C_10 
REMARK    6  A    between atoms: C_10  and  C_11 
REMARK       I    between atoms: C_11  and  N_13 
REMARK    7  A    between atoms: N_13  and  C_14 
REMARK    8  A    between atoms: C_17  and  N_18 
REMARK    9  A    between atoms: N_18  and  C_19 
REMARK   10  A    between atoms: N_18  and  C_25 
REMARK   11  A    between atoms: C_31  and  O_32 
REMARK   12  A    between atoms: O_32  and  C_33 
REMARK   13  A    between atoms: C_35  and  O_36 
REMARK   14  A    between atoms: O_36  and  C_37 
ROOT
ATOM      1  C   UNL d   1      25.898 -11.130  -5.276  0.00  0.00     0.246 C 
ATOM      2  O   UNL d   1      25.686 -10.571  -4.199  0.00  0.00    -0.271 OA
ATOM      3  N   UNL d   1      26.093 -12.511  -5.396  0.00  0.00    -0.325 N 
ATOM      4  H   UNL d   1      26.451 -12.911  -6.254  0.00  0.00     0.169 HD
ENDROOT
BRANCH   1   5
ATOM      5  C   UNL d   1      26.008 -10.305  -6.573  0.00  0.00     0.282 C 
BRANCH   5   6
ATOM      6  O   UNL d   1      26.672 -11.096  -7.597  0.00  0.00    -0.308 OA
BRANCH   6   7
ATOM      7  C   UNL d   1      28.037 -11.056  -7.615  0.00  0.00     0.293 C 
ATOM      8  O   UNL d   1      28.687 -10.311  -8.309  0.00  0.00    -0.259 OA
BRANCH   7   9
ATOM      9  C   UNL d   1      28.662 -12.008  -6.609  0.00  0.00     0.045 A 
ATOM     10  C   UNL d   1      29.158 -11.482  -5.386  0.00  0.00     0.057 A 
ATOM     11  C   UNL d   1      29.541 -12.309  -4.294  0.00  0.00     0.105 A 
ATOM     12  C   UNL d   1      29.440 -13.715  -4.475  0.00  0.00     0.135 A 
ATOM     13  C   UNL d   1      29.035 -14.249  -5.737  0.00  0.00     0.105 A 
ATOM     14  C   UNL d   1      28.667 -13.394  -6.793  0.00  0.00     0.057 A 
BRANCH  11  15
ATOM     15  O   UNL d   1      29.712 -11.599  -3.102  0.00  0.00    -0.349 OA
BRANCH  15  16
ATOM     16  C   UNL d   1      28.908 -11.901  -1.959  0.00  0.00     0.171 C 
ATOM     17  C   UNL d   1      29.524 -12.750  -0.864  0.00  0.00     0.034 C 
ENDBRANCH  15  16
ENDBRANCH  11  15
BRANCH  12  18
ATOM     18  O   UNL d   1      29.574 -14.716  -3.544  0.00  0.00    -0.346 OA
BRANCH  18  19
ATOM     19  C   UNL d   1      30.797 -14.931  -2.967  0.00  0.00     0.171 C 
ATOM     20  C   UNL d   1      31.726 -16.044  -3.338  0.00  0.00     0.034 C 
ENDBRANCH  18  19
ENDBRANCH  12  18
BRANCH  13  21
ATOM     21  O   UNL d   1      28.893 -15.607  -6.029  0.00  0.00    -0.349 OA
BRANCH  21  22
ATOM     22  C   UNL d   1      30.055 -16.293  -6.518  0.00  0.00     0.171 C 
ATOM     23  C   UNL d   1      30.292 -17.622  -5.861  0.00  0.00     0.034 C 
ENDBRANCH  21  22
ENDBRANCH  13  21
ENDBRANCH   7   9
ENDBRANCH   6   7
ENDBRANCH   5   6
ENDBRANCH   1   5
BRANCH   3  24
ATOM     24  C   UNL d   1      25.967 -13.386  -4.286  0.00  0.00     0.034 A 
ATOM     25  C   UNL d   1      26.115 -12.929  -2.979  0.00  0.00     0.032 A 
ATOM     26  C   UNL d   1      26.061 -13.840  -1.906  0.00  0.00     0.032 A 
ATOM     27  C   UNL d   1      25.760 -15.207  -2.078  0.00  0.00     0.035 A 
ATOM     28  C   UNL d   1      25.590 -15.620  -3.405  0.00  0.00     0.032 A 
ATOM     29  C   UNL d   1      25.730 -14.740  -4.484  0.00  0.00     0.032 A 
BRANCH  27  30
ATOM     30  N   UNL d   1      25.683 -16.084  -0.956  0.00  0.00    -0.343 N 
BRANCH  30  31
ATOM     31  C   UNL d   1      24.565 -16.916  -0.684  0.00  0.00     0.035 C 
ATOM     32  C   UNL d   1      24.739 -18.239  -0.256  0.00  0.00     0.029 C 
ATOM     33  C   UNL d   1      23.656 -19.112  -0.153  0.00  0.00     0.002 C 
ATOM     34  C   UNL d   1      22.361 -18.629  -0.309  0.00  0.00     0.000 C 
ATOM     35  C   UNL d   1      22.156 -17.293  -0.641  0.00  0.00     0.002 C 
ATOM     36  C   UNL d   1      23.250 -16.453  -0.859  0.00  0.00     0.029 C 
ENDBRANCH  30  31
BRANCH  30  37
ATOM     37  C   UNL d   1      26.961 -16.444  -0.239  0.00  0.00     0.082 C 
ATOM     38  C   UNL d   1      28.076 -16.746  -1.254  0.00  0.00     0.032 C 
ATOM     39  C   UNL d   1      27.519 -15.373   0.723  0.00  0.00     0.032 C 
ENDBRANCH  30  37
ENDBRANCH  27  30
ENDBRANCH   3  24
TORSDOF 14
ENDMDL
