MODEL 1
REMARK VINA RESULT:    -9.701      0.000      0.000
REMARK INTER + INTRA:         -12.182
REMARK INTER:                 -11.192
REMARK INTRA:                  -0.990
REMARK CONF_INDEPENDENT:        1.492
REMARK UNBOUND:                -0.990
REMARK  5 active torsions:
REMARK  status: ('A' for Active; 'I' for Inactive)
REMARK    1  A    between atoms: S_2  and  C_3 
REMARK    2  A    between atoms: C_3  and  C_5 
REMARK       I    between atoms: C_5  and  N_7 
REMARK    3  A    between atoms: N_7  and  C_8 
REMARK    4  A    between atoms: C_10  and  C_11 
REMARK       I    between atoms: C_11  and  N_13 
REMARK    5  A    between atoms: N_13  and  C_14 
ROOT
ATOM      1  C   UNL d   1      25.175 -15.966  -1.386  0.00  0.00     0.041 A 
ATOM      2  C   UNL d   1      23.838 -16.386  -1.264  0.00  0.00     0.047 A 
ATOM      3  C   UNL d   1      23.485 -17.504  -0.506  0.00  0.00     0.034 A 
ATOM      4  C   UNL d   1      24.503 -18.216   0.143  0.00  0.00     0.018 A 
ATOM      5  C   UNL d   1      25.839 -17.818   0.025  0.00  0.00     0.010 A 
ATOM      6  C   UNL d   1      26.194 -16.696  -0.749  0.00  0.00    -0.035 A 
ATOM      7  C   UNL d   1      27.631 -16.261  -0.776  0.00  0.00     0.050 C 
ENDROOT
BRANCH   3   8
ATOM      8  C   UNL d   1      22.071 -17.967  -0.347  0.00  0.00     0.256 C 
ATOM      9  O   UNL d   1      21.204 -17.399  -1.021  0.00  0.00    -0.267 OA
ATOM     10  N   UNL d   1      21.797 -18.961   0.585  0.00  0.00    -0.323 N 
ATOM     11  H   UNL d   1      22.509 -19.272   1.231  0.00  0.00     0.169 HD
BRANCH  10  12
ATOM     12  C   UNL d   1      20.517 -19.529   0.768  0.00  0.00     0.035 A 
ATOM     13  C   UNL d   1      20.064 -19.825   2.059  0.00  0.00     0.029 A 
ATOM     14  C   UNL d   1      18.825 -20.451   2.240  0.00  0.00     0.002 A 
ATOM     15  C   UNL d   1      18.030 -20.764   1.138  0.00  0.00     0.000 A 
ATOM     16  C   UNL d   1      18.485 -20.481  -0.147  0.00  0.00     0.002 A 
ATOM     17  C   UNL d   1      19.722 -19.865  -0.328  0.00  0.00     0.029 A 
ENDBRANCH  10  12
ENDBRANCH   3   8
BRANCH   1  18
ATOM     18  N   UNL d   1      25.463 -14.797  -2.152  0.00  0.00    -0.326 N 
ATOM     19  C   UNL d   1      25.618 -14.870  -3.540  0.00  0.00     0.235 C 
ATOM     20  O   UNL d   1      25.530 -15.944  -4.140  0.00  0.00    -0.272 OA
ATOM     21  H   UNL d   1      25.279 -13.903  -1.719  0.00  0.00     0.169 HD
BRANCH  19  22
ATOM     22  C   UNL d   1      25.900 -13.532  -4.289  0.00  0.00     0.135 C 
ATOM     23  C   UNL d   1      26.951 -13.712  -5.377  0.00  0.00     0.031 C 
BRANCH  22  24
ATOM     24  S   UNL d   1      26.476 -12.290  -3.010  0.00  0.00    -0.160 SA
ATOM     25  C   UNL d   1      25.710 -10.741  -3.526  0.00  0.00     0.090 C 
ENDBRANCH  22  24
ENDBRANCH  19  22
ENDBRANCH   1  18
TORSDOF 5
ENDMDL
MODEL 2
REMARK VINA RESULT:    -9.345      0.976      1.459
REMARK INTER + INTRA:         -11.725
REMARK INTER:                 -10.836
REMARK INTRA:                  -0.889
REMARK CONF_INDEPENDENT:        1.492
REMARK UNBOUND:                -0.889
REMARK  5 active torsions:
REMARK  status: ('A' for Active; 'I' for Inactive)
REMARK    1  A    between atoms: S_2  and  C_3 
REMARK    2  A    between atoms: C_3  and  C_5 
REMARK       I    between atoms: C_5  and  N_7 
REMARK    3  A    between atoms: N_7  and  C_8 
REMARK    4  A    between atoms: C_10  and  C_11 
REMARK       I    between atoms: C_11  and  N_13 
REMARK    5  A    between atoms: N_13  and  C_14 
ROOT
ATOM      1  C   UNL d   1      25.627 -16.190  -1.373  0.00  0.00     0.041 A 
ATOM      2  C   UNL d   1      24.259 -16.494  -1.253  0.00  0.00     0.047 A 
ATOM      3  C   UNL d   1      23.814 -17.629  -0.572  0.00  0.00     0.034 A 
ATOM      4  C   UNL d   1      24.771 -18.479  -0.001  0.00  0.00     0.018 A 
ATOM      5  C   UNL d   1      26.137 -18.196  -0.118  0.00  0.00     0.010 A 
ATOM      6  C   UNL d   1      26.583 -17.056  -0.814  0.00  0.00    -0.035 A 
ATOM      7  C   UNL d   1      28.054 -16.753  -0.840  0.00  0.00     0.050 C 
ENDROOT
BRANCH   3   8
ATOM      8  C   UNL d   1      22.366 -17.973  -0.418  0.00  0.00     0.256 C 
ATOM      9  O   UNL d   1      21.539 -17.188  -0.895  0.00  0.00    -0.267 OA
ATOM     10  N   UNL d   1      22.025 -19.112   0.301  0.00  0.00    -0.323 N 
ATOM     11  H   UNL d   1      22.727 -19.625   0.816  0.00  0.00     0.169 HD
BRANCH  10  12
ATOM     12  C   UNL d   1      20.699 -19.576   0.448  0.00  0.00     0.035 A 
ATOM     13  C   UNL d   1      20.240 -19.984   1.705  0.00  0.00     0.029 A 
ATOM     14  C   UNL d   1      18.949 -20.508   1.843  0.00  0.00     0.002 A 
ATOM     15  C   UNL d   1      18.111 -20.607   0.732  0.00  0.00     0.000 A 
ATOM     16  C   UNL d   1      18.571 -20.212  -0.520  0.00  0.00     0.002 A 
ATOM     17  C   UNL d   1      19.859 -19.697  -0.659  0.00  0.00     0.029 A 
ENDBRANCH  10  12
ENDBRANCH   3   8
BRANCH   1  18
ATOM     18  N   UNL d   1      26.011 -14.997  -2.055  0.00  0.00    -0.326 N 
ATOM     19  C   UNL d   1      25.922 -14.909  -3.449  0.00  0.00     0.235 C 
ATOM     20  O   UNL d   1      25.530 -15.860  -4.128  0.00  0.00    -0.272 OA
ATOM     21  H   UNL d   1      26.077 -14.151  -1.507  0.00  0.00     0.169 HD
BRANCH  19  22
ATOM     22  C   UNL d   1      26.336 -13.552  -4.096  0.00  0.00     0.135 C 
ATOM     23  C   UNL d   1      25.161 -12.893  -4.809  0.00  0.00     0.031 C 
BRANCH  22  24
ATOM     24  S   UNL d   1      27.724 -13.912  -5.301  0.00  0.00    -0.160 SA
ATOM     25  C   UNL d   1      28.331 -15.534  -4.799  0.00  0.00     0.090 C 
ENDBRANCH  22  24
ENDBRANCH  19  22
ENDBRANCH   1  18
TORSDOF 5
ENDMDL
MODEL 3
REMARK VINA RESULT:    -8.217      1.187      1.725
REMARK INTER + INTRA:         -10.690
REMARK INTER:                  -9.708
REMARK INTRA:                  -0.982
REMARK CONF_INDEPENDENT:        1.492
REMARK UNBOUND:                -0.982
REMARK  5 active torsions:
REMARK  status: ('A' for Active; 'I' for Inactive)
REMARK    1  A    between atoms: S_2  and  C_3 
REMARK    2  A    between atoms: C_3  and  C_5 
REMARK       I    between atoms: C_5  and  N_7 
REMARK    3  A    between atoms: N_7  and  C_8 
REMARK    4  A    between atoms: C_10  and  C_11 
REMARK       I    between atoms: C_11  and  N_13 
REMARK    5  A    between atoms: N_13  and  C_14 
ROOT
ATOM      1  C   UNL d   1      25.894 -15.473  -2.340  0.00  0.00     0.041 A 
ATOM      2  C   UNL d   1      24.599 -15.823  -1.920  0.00  0.00     0.047 A 
ATOM      3  C   UNL d   1      24.369 -16.901  -1.062  0.00  0.00     0.034 A 
ATOM      4  C   UNL d   1      25.471 -17.645  -0.621  0.00  0.00     0.018 A 
ATOM      5  C   UNL d   1      26.767 -17.318  -1.037  0.00  0.00     0.010 A 
ATOM      6  C   UNL d   1      26.994 -16.236  -1.910  0.00  0.00    -0.035 A 
ATOM      7  C   UNL d   1      28.410 -15.874  -2.260  0.00  0.00     0.050 C 
ENDROOT
BRANCH   3   8
ATOM      8  C   UNL d   1      23.004 -17.289  -0.588  0.00  0.00     0.256 C 
ATOM      9  O   UNL d   1      22.275 -16.392  -0.151  0.00  0.00    -0.267 OA
ATOM     10  N   UNL d   1      22.651 -18.633  -0.604  0.00  0.00    -0.323 N 
ATOM     11  H   UNL d   1      23.339 -19.344  -0.808  0.00  0.00     0.169 HD
BRANCH  10  12
ATOM     12  C   UNL d   1      21.368 -19.108  -0.254  0.00  0.00     0.035 A 
ATOM     13  C   UNL d   1      20.403 -19.304  -1.247  0.00  0.00     0.029 A 
ATOM     14  C   UNL d   1      19.109 -19.710  -0.896  0.00  0.00     0.002 A 
ATOM     15  C   UNL d   1      18.785 -19.939   0.441  0.00  0.00     0.000 A 
ATOM     16  C   UNL d   1      19.742 -19.734   1.430  0.00  0.00     0.002 A 
ATOM     17  C   UNL d   1      21.028 -19.323   1.082  0.00  0.00     0.029 A 
ENDBRANCH  10  12
ENDBRANCH   3   8
BRANCH   1  18
ATOM     18  N   UNL d   1      26.061 -14.341  -3.192  0.00  0.00    -0.326 N 
ATOM     19  C   UNL d   1      26.452 -14.499  -4.527  0.00  0.00     0.235 C 
ATOM     20  O   UNL d   1      26.681 -15.615  -5.000  0.00  0.00    -0.272 OA
ATOM     21  H   UNL d   1      25.632 -13.475  -2.900  0.00  0.00     0.169 HD
BRANCH  19  22
ATOM     22  C   UNL d   1      26.575 -13.203  -5.383  0.00  0.00     0.135 C 
ATOM     23  C   UNL d   1      27.862 -13.193  -6.198  0.00  0.00     0.031 C 
BRANCH  22  24
ATOM     24  S   UNL d   1      26.527 -11.750  -4.202  0.00  0.00    -0.160 SA
ATOM     25  C   UNL d   1      26.081 -10.349  -5.248  0.00  0.00     0.090 C 
ENDBRANCH  22  24
ENDBRANCH  19  22
ENDBRANCH   1  18
TORSDOF 5
ENDMDL
MODEL 4
REMARK VINA RESULT:    -7.535      2.682      4.019
REMARK INTER + INTRA:          -9.820
REMARK INTER:                  -9.027
REMARK INTRA:                  -0.793
REMARK CONF_INDEPENDENT:        1.492
REMARK UNBOUND:                -0.793
REMARK  5 active torsions:
REMARK  status: ('A' for Active; 'I' for Inactive)
REMARK    1  A    between atoms: S_2  and  C_3 
REMARK    2  A    between atoms: C_3  and  C_5 
REMARK       I    between atoms: C_5  and  N_7 
REMARK    3  A    between atoms: N_7  and  C_8 
REMARK    4  A    between atoms: C_10  and  C_11 
REMARK       I    between atoms: C_11  and  N_13 
REMARK    5  A    between atoms: N_13  and  C_14 
ROOT
ATOM      1  C   UNL d   1      26.201 -16.438  -0.144  0.00  0.00     0.041 A 
ATOM      2  C   UNL d   1      25.070 -17.260   0.016  0.00  0.00     0.047 A 
ATOM      3  C   UNL d   1      24.218 -17.554  -1.051  0.00  0.00     0.034 A 
ATOM      4  C   UNL d   1      24.511 -17.004  -2.306  0.00  0.00     0.018 A 
ATOM      5  C   UNL d   1      25.626 -16.177  -2.481  0.00  0.00     0.010 A 
ATOM      6  C   UNL d   1      26.478 -15.874  -1.401  0.00  0.00    -0.035 A 
ATOM      7  C   UNL d   1      27.707 -15.049  -1.659  0.00  0.00     0.050 C 
ENDROOT
BRANCH   3   8
ATOM      8  C   UNL d   1      23.016 -18.434  -0.914  0.00  0.00     0.256 C 
ATOM      9  O   UNL d   1      22.861 -19.325  -1.758  0.00  0.00    -0.267 OA
ATOM     10  N   UNL d   1      22.110 -18.171   0.106  0.00  0.00    -0.323 N 
ATOM     11  H   UNL d   1      22.191 -17.331   0.662  0.00  0.00     0.169 HD
BRANCH  10  12
ATOM     12  C   UNL d   1      20.983 -18.977   0.378  0.00  0.00     0.035 A 
ATOM     13  C   UNL d   1      20.145 -19.378  -0.667  0.00  0.00     0.029 A 
ATOM     14  C   UNL d   1      18.990 -20.121  -0.394  0.00  0.00     0.002 A 
ATOM     15  C   UNL d   1      18.681 -20.479   0.918  0.00  0.00     0.000 A 
ATOM     16  C   UNL d   1      19.508 -20.070   1.960  0.00  0.00     0.002 A 
ATOM     17  C   UNL d   1      20.655 -19.325   1.689  0.00  0.00     0.029 A 
ENDBRANCH  10  12
ENDBRANCH   3   8
BRANCH   1  18
ATOM     18  N   UNL d   1      27.046 -16.203   0.981  0.00  0.00    -0.326 N 
ATOM     19  C   UNL d   1      27.262 -14.905   1.457  0.00  0.00     0.235 C 
ATOM     20  O   UNL d   1      26.746 -13.927   0.910  0.00  0.00    -0.272 OA
ATOM     21  H   UNL d   1      27.252 -16.991   1.578  0.00  0.00     0.169 HD
BRANCH  19  22
ATOM     22  C   UNL d   1      28.177 -14.757   2.710  0.00  0.00     0.135 C 
ATOM     23  C   UNL d   1      27.553 -13.836   3.751  0.00  0.00     0.031 C 
BRANCH  22  24
ATOM     24  S   UNL d   1      29.820 -14.075   2.122  0.00  0.00    -0.160 SA
ATOM     25  C   UNL d   1      30.149 -14.979   0.597  0.00  0.00     0.090 C 
ENDBRANCH  22  24
ENDBRANCH  19  22
ENDBRANCH   1  18
TORSDOF 5
ENDMDL
MODEL 5
REMARK VINA RESULT:    -7.477      1.974      2.641
REMARK INTER + INTRA:          -9.875
REMARK INTER:                  -8.969
REMARK INTRA:                  -0.906
REMARK CONF_INDEPENDENT:        1.492
REMARK UNBOUND:                -0.906
REMARK  5 active torsions:
REMARK  status: ('A' for Active; 'I' for Inactive)
REMARK    1  A    between atoms: S_2  and  C_3 
REMARK    2  A    between atoms: C_3  and  C_5 
REMARK       I    between atoms: C_5  and  N_7 
REMARK    3  A    between atoms: N_7  and  C_8 
REMARK    4  A    between atoms: C_10  and  C_11 
REMARK       I    between atoms: C_11  and  N_13 
REMARK    5  A    between atoms: N_13  and  C_14 
ROOT
ATOM      1  C   UNL d   1      26.767 -15.861  -0.670  0.00  0.00     0.041 A 
ATOM      2  C   UNL d   1      25.382 -16.090  -0.750  0.00  0.00     0.047 A 
ATOM      3  C   UNL d   1      24.797 -17.252  -0.244  0.00  0.00     0.034 A 
ATOM      4  C   UNL d   1      25.629 -18.208   0.355  0.00  0.00     0.018 A 
ATOM      5  C   UNL d   1      27.011 -18.002   0.435  0.00  0.00     0.010 A 
ATOM      6  C   UNL d   1      27.599 -16.833  -0.085  0.00  0.00    -0.035 A 
ATOM      7  C   UNL d   1      29.074 -16.621   0.101  0.00  0.00     0.050 C 
ENDROOT
BRANCH   3   8
ATOM      8  C   UNL d   1      23.325 -17.517  -0.304  0.00  0.00     0.256 C 
ATOM      9  O   UNL d   1      22.595 -16.601  -0.699  0.00  0.00    -0.267 OA
ATOM     10  N   UNL d   1      22.852 -18.746   0.141  0.00  0.00    -0.323 N 
ATOM     11  H   UNL d   1      23.466 -19.395   0.612  0.00  0.00     0.169 HD
BRANCH  10  12
ATOM     12  C   UNL d   1      21.497 -19.136   0.062  0.00  0.00     0.035 A 
ATOM     13  C   UNL d   1      20.882 -19.267  -1.188  0.00  0.00     0.029 A 
ATOM     14  C   UNL d   1      19.521 -19.588  -1.269  0.00  0.00     0.002 A 
ATOM     15  C   UNL d   1      18.780 -19.796  -0.106  0.00  0.00     0.000 A 
ATOM     16  C   UNL d   1      19.388 -19.655   1.138  0.00  0.00     0.002 A 
ATOM     17  C   UNL d   1      20.741 -19.328   1.219  0.00  0.00     0.029 A 
ENDBRANCH  10  12
ENDBRANCH   3   8
BRANCH   1  18
ATOM     18  N   UNL d   1      27.295 -14.638  -1.179  0.00  0.00    -0.326 N 
ATOM     19  C   UNL d   1      27.008 -13.418  -0.556  0.00  0.00     0.235 C 
ATOM     20  O   UNL d   1      26.279 -13.361   0.436  0.00  0.00    -0.272 OA
ATOM     21  H   UNL d   1      28.083 -14.700  -1.809  0.00  0.00     0.169 HD
BRANCH  19  22
ATOM     22  C   UNL d   1      27.660 -12.142  -1.171  0.00  0.00     0.135 C 
ATOM     23  C   UNL d   1      27.805 -11.035  -0.134  0.00  0.00     0.031 C 
BRANCH  22  24
ATOM     24  S   UNL d   1      26.565 -11.586  -2.585  0.00  0.00    -0.160 SA
ATOM     25  C   UNL d   1      26.013 -13.126  -3.345  0.00  0.00     0.090 C 
ENDBRANCH  22  24
ENDBRANCH  19  22
ENDBRANCH   1  18
TORSDOF 5
ENDMDL
MODEL 6
REMARK VINA RESULT:    -7.154      3.721      6.516
REMARK INTER + INTRA:          -9.379
REMARK INTER:                  -8.645
REMARK INTRA:                  -0.734
REMARK CONF_INDEPENDENT:        1.492
REMARK UNBOUND:                -0.734
REMARK  5 active torsions:
REMARK  status: ('A' for Active; 'I' for Inactive)
REMARK    1  A    between atoms: S_2  and  C_3 
REMARK    2  A    between atoms: C_3  and  C_5 
REMARK       I    between atoms: C_5  and  N_7 
REMARK    3  A    between atoms: N_7  and  C_8 
REMARK    4  A    between atoms: C_10  and  C_11 
REMARK       I    between atoms: C_11  and  N_13 
REMARK    5  A    between atoms: N_13  and  C_14 
ROOT
ATOM      1  C   UNL d   1      28.050 -14.177  -6.199  0.00  0.00     0.041 A 
ATOM      2  C   UNL d   1      27.312 -14.836  -5.200  0.00  0.00     0.047 A 
ATOM      3  C   UNL d   1      26.344 -14.173  -4.443  0.00  0.00     0.034 A 
ATOM      4  C   UNL d   1      26.117 -12.814  -4.698  0.00  0.00     0.018 A 
ATOM      5  C   UNL d   1      26.849 -12.140  -5.682  0.00  0.00     0.010 A 
ATOM      6  C   UNL d   1      27.832 -12.809  -6.437  0.00  0.00    -0.035 A 
ATOM      7  C   UNL d   1      28.530 -12.063  -7.537  0.00  0.00     0.050 C 
ENDROOT
BRANCH   3   8
ATOM      8  C   UNL d   1      25.534 -14.850  -3.382  0.00  0.00     0.256 C 
ATOM      9  O   UNL d   1      24.378 -14.451  -3.203  0.00  0.00    -0.267 OA
ATOM     10  N   UNL d   1      26.137 -15.841  -2.616  0.00  0.00    -0.323 N 
ATOM     11  H   UNL d   1      27.130 -16.012  -2.683  0.00  0.00     0.169 HD
BRANCH  10  12
ATOM     12  C   UNL d   1      25.452 -16.599  -1.641  0.00  0.00     0.035 A 
ATOM     13  C   UNL d   1      26.176 -17.338  -0.699  0.00  0.00     0.029 A 
ATOM     14  C   UNL d   1      25.503 -18.145   0.227  0.00  0.00     0.002 A 
ATOM     15  C   UNL d   1      24.110 -18.200   0.225  0.00  0.00     0.000 A 
ATOM     16  C   UNL d   1      23.389 -17.474  -0.719  0.00  0.00     0.002 A 
ATOM     17  C   UNL d   1      24.059 -16.676  -1.645  0.00  0.00     0.029 A 
ENDBRANCH  10  12
ENDBRANCH   3   8
BRANCH   1  18
ATOM     18  N   UNL d   1      29.002 -14.922  -6.957  0.00  0.00    -0.326 N 
ATOM     19  C   UNL d   1      29.791 -15.906  -6.349  0.00  0.00     0.235 C 
ATOM     20  O   UNL d   1      29.701 -16.145  -5.143  0.00  0.00    -0.272 OA
ATOM     21  H   UNL d   1      28.898 -14.920  -7.962  0.00  0.00     0.169 HD
BRANCH  19  22
ATOM     22  C   UNL d   1      30.778 -16.685  -7.270  0.00  0.00     0.135 C 
ATOM     23  C   UNL d   1      31.016 -18.102  -6.761  0.00  0.00     0.031 C 
BRANCH  22  24
ATOM     24  S   UNL d   1      32.382 -15.718  -7.309  0.00  0.00    -0.160 SA
ATOM     25  C   UNL d   1      31.918 -14.128  -8.024  0.00  0.00     0.090 C 
ENDBRANCH  22  24
ENDBRANCH  19  22
ENDBRANCH   1  18
TORSDOF 5
ENDMDL
MODEL 7
REMARK VINA RESULT:    -6.951      3.888      6.822
REMARK INTER + INTRA:          -9.315
REMARK INTER:                  -8.443
REMARK INTRA:                  -0.873
REMARK CONF_INDEPENDENT:        1.492
REMARK UNBOUND:                -0.873
REMARK  5 active torsions:
REMARK  status: ('A' for Active; 'I' for Inactive)
REMARK    1  A    between atoms: S_2  and  C_3 
REMARK    2  A    between atoms: C_3  and  C_5 
REMARK       I    between atoms: C_5  and  N_7 
REMARK    3  A    between atoms: N_7  and  C_8 
REMARK    4  A    between atoms: C_10  and  C_11 
REMARK       I    between atoms: C_11  and  N_13 
REMARK    5  A    between atoms: N_13  and  C_14 
ROOT
ATOM      1  C   UNL d   1      28.552 -14.519  -6.238  0.00  0.00     0.041 A 
ATOM      2  C   UNL d   1      27.776 -15.121  -5.231  0.00  0.00     0.047 A 
ATOM      3  C   UNL d   1      26.719 -14.447  -4.615  0.00  0.00     0.034 A 
ATOM      4  C   UNL d   1      26.440 -13.136  -5.021  0.00  0.00     0.018 A 
ATOM      5  C   UNL d   1      27.208 -12.517  -6.015  0.00  0.00     0.010 A 
ATOM      6  C   UNL d   1      28.279 -13.196  -6.627  0.00  0.00    -0.035 A 
ATOM      7  C   UNL d   1      29.019 -12.519  -7.746  0.00  0.00     0.050 C 
ENDROOT
BRANCH   3   8
ATOM      8  C   UNL d   1      25.869 -15.066  -3.550  0.00  0.00     0.256 C 
ATOM      9  O   UNL d   1      24.701 -14.673  -3.451  0.00  0.00    -0.267 OA
ATOM     10  N   UNL d   1      26.446 -15.997  -2.695  0.00  0.00    -0.323 N 
ATOM     11  H   UNL d   1      27.443 -16.158  -2.705  0.00  0.00     0.169 HD
BRANCH  10  12
ATOM     12  C   UNL d   1      25.725 -16.700  -1.705  0.00  0.00     0.035 A 
ATOM     13  C   UNL d   1      26.359 -17.070  -0.513  0.00  0.00     0.029 A 
ATOM     14  C   UNL d   1      25.668 -17.826   0.442  0.00  0.00     0.002 A 
ATOM     15  C   UNL d   1      24.343 -18.197   0.217  0.00  0.00     0.000 A 
ATOM     16  C   UNL d   1      23.716 -17.840  -0.973  0.00  0.00     0.002 A 
ATOM     17  C   UNL d   1      24.405 -17.093  -1.927  0.00  0.00     0.029 A 
ENDBRANCH  10  12
ENDBRANCH   3   8
BRANCH   1  18
ATOM     18  N   UNL d   1      29.597 -15.275  -6.847  0.00  0.00    -0.326 N 
ATOM     19  C   UNL d   1      30.461 -16.058  -6.074  0.00  0.00     0.235 C 
ATOM     20  O   UNL d   1      30.358 -16.104  -4.846  0.00  0.00    -0.272 OA
ATOM     21  H   UNL d   1      29.525 -15.448  -7.840  0.00  0.00     0.169 HD
BRANCH  19  22
ATOM     22  C   UNL d   1      31.550 -16.871  -6.838  0.00  0.00     0.135 C 
ATOM     23  C   UNL d   1      32.047 -16.119  -8.066  0.00  0.00     0.031 C 
BRANCH  22  24
ATOM     24  S   UNL d   1      30.780 -18.506  -7.329  0.00  0.00    -0.160 SA
ATOM     25  C   UNL d   1      30.405 -19.304  -5.755  0.00  0.00     0.090 C 
ENDBRANCH  22  24
ENDBRANCH  19  22
ENDBRANCH   1  18
TORSDOF 5
ENDMDL
MODEL 8
REMARK VINA RESULT:    -6.869      3.535      8.739
REMARK INTER + INTRA:          -9.267
REMARK INTER:                  -8.360
REMARK INTRA:                  -0.907
REMARK CONF_INDEPENDENT:        1.492
REMARK UNBOUND:                -0.907
REMARK  5 active torsions:
REMARK  status: ('A' for Active; 'I' for Inactive)
REMARK    1  A    between atoms: S_2  and  C_3 
REMARK    2  A    between atoms: C_3  and  C_5 
REMARK       I    between atoms: C_5  and  N_7 
REMARK    3  A    between atoms: N_7  and  C_8 
REMARK    4  A    between atoms: C_10  and  C_11 
REMARK       I    between atoms: C_11  and  N_13 
REMARK    5  A    between atoms: N_13  and  C_14 
ROOT
ATOM      1  C   UNL d   1      23.763 -17.771  -0.085  0.00  0.00     0.041 A 
ATOM      2  C   UNL d   1      25.083 -18.227   0.079  0.00  0.00     0.047 A 
ATOM      3  C   UNL d   1      26.178 -17.495  -0.383  0.00  0.00     0.034 A 
ATOM      4  C   UNL d   1      25.936 -16.275  -1.029  0.00  0.00     0.018 A 
ATOM      5  C   UNL d   1      24.629 -15.810  -1.210  0.00  0.00     0.010 A 
ATOM      6  C   UNL d   1      23.526 -16.556  -0.752  0.00  0.00    -0.035 A 
ATOM      7  C   UNL d   1      22.149 -15.974  -0.896  0.00  0.00     0.050 C 
ENDROOT
BRANCH   3   8
ATOM      8  C   UNL d   1      27.594 -17.948  -0.212  0.00  0.00     0.256 C 
ATOM      9  O   UNL d   1      27.779 -19.087   0.232  0.00  0.00    -0.267 OA
ATOM     10  N   UNL d   1      28.618 -17.054  -0.497  0.00  0.00    -0.323 N 
ATOM     11  H   UNL d   1      28.416 -16.083  -0.692  0.00  0.00     0.169 HD
BRANCH  10  12
ATOM     12  C   UNL d   1      29.988 -17.392  -0.446  0.00  0.00     0.035 A 
ATOM     13  C   UNL d   1      30.424 -18.614  -0.971  0.00  0.00     0.029 A 
ATOM     14  C   UNL d   1      31.770 -18.983  -0.861  0.00  0.00     0.002 A 
ATOM     15  C   UNL d   1      32.684 -18.128  -0.246  0.00  0.00     0.000 A 
ATOM     16  C   UNL d   1      32.249 -16.918   0.287  0.00  0.00     0.002 A 
ATOM     17  C   UNL d   1      30.908 -16.553   0.184  0.00  0.00     0.029 A 
ENDBRANCH  10  12
ENDBRANCH   3   8
BRANCH   1  18
ATOM     18  N   UNL d   1      22.692 -18.554   0.439  0.00  0.00    -0.326 N 
ATOM     19  C   UNL d   1      21.737 -19.123  -0.412  0.00  0.00     0.235 C 
ATOM     20  O   UNL d   1      21.781 -18.950  -1.632  0.00  0.00    -0.272 OA
ATOM     21  H   UNL d   1      22.796 -18.912   1.378  0.00  0.00     0.169 HD
BRANCH  19  22
ATOM     22  C   UNL d   1      20.626 -19.988   0.256  0.00  0.00     0.135 C 
ATOM     23  C   UNL d   1      19.323 -19.927  -0.531  0.00  0.00     0.031 C 
BRANCH  22  24
ATOM     24  S   UNL d   1      20.380 -19.333   1.994  0.00  0.00    -0.160 SA
ATOM     25  C   UNL d   1      19.162 -20.450   2.716  0.00  0.00     0.090 C 
ENDBRANCH  22  24
ENDBRANCH  19  22
ENDBRANCH   1  18
TORSDOF 5
ENDMDL
MODEL 9
REMARK VINA RESULT:    -6.852      4.777      8.413
REMARK INTER + INTRA:          -9.196
REMARK INTER:                  -8.343
REMARK INTRA:                  -0.853
REMARK CONF_INDEPENDENT:        1.492
REMARK UNBOUND:                -0.853
REMARK  5 active torsions:
REMARK  status: ('A' for Active; 'I' for Inactive)
REMARK    1  A    between atoms: S_2  and  C_3 
REMARK    2  A    between atoms: C_3  and  C_5 
REMARK       I    between atoms: C_5  and  N_7 
REMARK    3  A    between atoms: N_7  and  C_8 
REMARK    4  A    between atoms: C_10  and  C_11 
REMARK       I    between atoms: C_11  and  N_13 
REMARK    5  A    between atoms: N_13  and  C_14 
ROOT
ATOM      1  C   UNL d   1      26.968 -15.619   0.051  0.00  0.00     0.041 A 
ATOM      2  C   UNL d   1      26.679 -14.659  -0.935  0.00  0.00     0.047 A 
ATOM      3  C   UNL d   1      25.869 -14.953  -2.033  0.00  0.00     0.034 A 
ATOM      4  C   UNL d   1      25.339 -16.246  -2.141  0.00  0.00     0.018 A 
ATOM      5  C   UNL d   1      25.624 -17.217  -1.174  0.00  0.00     0.010 A 
ATOM      6  C   UNL d   1      26.450 -16.920  -0.073  0.00  0.00    -0.035 A 
ATOM      7  C   UNL d   1      26.657 -17.971   0.980  0.00  0.00     0.050 C 
ENDROOT
BRANCH   3   8
ATOM      8  C   UNL d   1      25.534 -13.949  -3.091  0.00  0.00     0.256 C 
ATOM      9  O   UNL d   1      24.709 -14.279  -3.951  0.00  0.00    -0.267 OA
ATOM     10  N   UNL d   1      26.206 -12.733  -3.091  0.00  0.00    -0.323 N 
ATOM     11  H   UNL d   1      26.990 -12.577  -2.473  0.00  0.00     0.169 HD
BRANCH  10  12
ATOM     12  C   UNL d   1      25.921 -11.682  -3.990  0.00  0.00     0.035 A 
ATOM     13  C   UNL d   1      26.092 -11.877  -5.365  0.00  0.00     0.029 A 
ATOM     14  C   UNL d   1      25.876 -10.818  -6.255  0.00  0.00     0.002 A 
ATOM     15  C   UNL d   1      25.472  -9.572  -5.777  0.00  0.00     0.000 A 
ATOM     16  C   UNL d   1      25.312  -9.374  -4.409  0.00  0.00     0.002 A 
ATOM     17  C   UNL d   1      25.534 -10.426  -3.521  0.00  0.00     0.029 A 
ENDBRANCH  10  12
ENDBRANCH   3   8
BRANCH   1  18
ATOM     18  N   UNL d   1      27.778 -15.243   1.164  0.00  0.00    -0.326 N 
ATOM     19  C   UNL d   1      27.471 -14.109   1.924  0.00  0.00     0.235 C 
ATOM     20  O   UNL d   1      26.507 -13.392   1.646  0.00  0.00    -0.272 OA
ATOM     21  H   UNL d   1      28.392 -15.947   1.549  0.00  0.00     0.169 HD
BRANCH  19  22
ATOM     22  C   UNL d   1      28.400 -13.802   3.138  0.00  0.00     0.135 C 
ATOM     23  C   UNL d   1      29.854 -14.131   2.825  0.00  0.00     0.031 C 
BRANCH  22  24
ATOM     24  S   UNL d   1      27.784 -14.825   4.581  0.00  0.00    -0.160 SA
ATOM     25  C   UNL d   1      28.882 -14.373   5.939  0.00  0.00     0.090 C 
ENDBRANCH  22  24
ENDBRANCH  19  22
ENDBRANCH   1  18
TORSDOF 5
ENDMDL
