MODEL 1
REMARK VINA RESULT:   -10.952      0.000      0.000
REMARK INTER + INTRA:         -14.836
REMARK INTER:                 -13.338
REMARK INTRA:                  -1.498
REMARK CONF_INDEPENDENT:        2.386
REMARK UNBOUND:                -1.498
REMARK  8 active torsions:
REMARK  status: ('A' for Active; 'I' for Inactive)
REMARK    1  A    between atoms: C_2  and  C_3 
REMARK    2  A    between atoms: C_7  and  N_8 
REMARK       I    between atoms: N_8  and  C_9 
REMARK       I    between atoms: C_9  and  N_23 
REMARK       I    between atoms: N_10  and  C_11 
REMARK    3  A    between atoms: C_11  and  C_13 
REMARK    4  A    between atoms: C_16  and  O_17 
REMARK    5  A    between atoms: C_19  and  O_20 
REMARK    6  A    between atoms: N_23  and  C_24 
REMARK    7  A    between atoms: C_24  and  C_25 
REMARK    8  A    between atoms: C_25  and  C_26 
ROOT
ATOM      1  N   UNL d   1      29.070 -14.564   3.752  0.00  0.00    -0.190 N 
ATOM      2  C   UNL d   1      28.622 -14.164   2.480  0.00  0.00     0.704 C 
ATOM      3  N   UNL d   1      28.211 -13.020   1.994  0.00  0.00    -0.023 NA
ATOM      4  C   UNL d   1      28.698 -11.838   2.515  0.00  0.00     0.294 C 
ATOM      5  O   UNL d   1      29.822 -11.706   2.915  0.00  0.00    -0.265 OA
ATOM      6  N   UNL d   1      28.628 -15.185   1.516  0.00  0.00    -0.224 N 
ATOM      7  H   UNL d   1      29.584 -15.431   3.825  0.00  0.00     0.184 HD
ATOM      8  H   UNL d   1      29.281 -15.953   1.637  0.00  0.00     0.177 HD
ENDROOT
BRANCH   1   9
ATOM      9  C   UNL d   1      28.984 -13.862   4.999  0.00  0.00     0.049 C 
ATOM     10  C   UNL d   1      27.942 -12.993   5.356  0.00  0.00     0.030 C 
ATOM     11  C   UNL d   1      27.780 -12.542   6.697  0.00  0.00     0.003 C 
ATOM     12  C   UNL d   1      28.625 -12.973   7.714  0.00  0.00     0.007 C 
ATOM     13  C   UNL d   1      29.694 -13.765   7.367  0.00  0.00    -0.056 C 
ATOM     14  C   UNL d   1      29.914 -14.069   6.007  0.00  0.00     0.037 C 
BRANCH  13  15
ATOM     15  C   UNL d   1      30.504 -14.450   8.425  0.00  0.00     0.034 C 
ATOM     16  C   UNL d   1      29.702 -14.636   9.700  0.00  0.00     0.010 C 
ENDBRANCH  13  15
ENDBRANCH   1   9
BRANCH   6  17
ATOM     17  C   UNL d   1      28.320 -14.805   0.117  0.00  0.00     0.142 C 
BRANCH  17  18
ATOM     18  C   UNL d   1      26.916 -15.149  -0.340  0.00  0.00     0.057 C 
BRANCH  18  19
ATOM     19  C   UNL d   1      26.482 -16.589  -0.203  0.00  0.00    -0.048 A 
ATOM     20  C   UNL d   1      25.216 -16.925  -0.459  0.00  0.00    -0.006 A 
ATOM     21  C   UNL d   1      24.117 -16.123  -0.857  0.00  0.00     0.014 A 
ATOM     22  C   UNL d   1      25.088 -18.363  -0.200  0.00  0.00     0.038 A 
ATOM     23  C   UNL d   1      22.905 -16.684  -0.894  0.00  0.00     0.001 A 
ATOM     24  C   UNL d   1      22.730 -18.110  -0.672  0.00  0.00     0.002 A 
ATOM     25  C   UNL d   1      23.736 -18.950  -0.343  0.00  0.00     0.030 A 
ATOM     26  N   UNL d   1      26.213 -18.879   0.125  0.00  0.00    -0.385 N 
ATOM     27  C   UNL d   1      27.264 -17.809   0.212  0.00  0.00     0.155 A 
ATOM     28  H   UNL d   1      26.330 -19.880   0.288  0.00  0.00     0.160 HD
ENDBRANCH  18  19
ENDBRANCH  17  18
ENDBRANCH   6  17
BRANCH   4  29
ATOM     29  C   UNL d   1      27.782 -10.631   2.479  0.00  0.00     0.037 C 
ATOM     30  C   UNL d   1      26.974 -10.459   1.348  0.00  0.00     0.020 C 
ATOM     31  C   UNL d   1      26.349  -9.230   1.089  0.00  0.00     0.040 C 
ATOM     32  C   UNL d   1      26.294  -8.250   2.075  0.00  0.00     0.101 C 
ATOM     33  C   UNL d   1      27.042  -8.440   3.252  0.00  0.00     0.102 C 
ATOM     34  C   UNL d   1      27.832  -9.599   3.414  0.00  0.00     0.056 C 
BRANCH  32  35
ATOM     35  O   UNL d   1      25.530  -7.161   1.731  0.00  0.00    -0.353 OA
ATOM     36  C   UNL d   1      25.345  -6.951   0.335  0.00  0.00     0.210 C 
ENDBRANCH  32  35
BRANCH  33  37
ATOM     37  O   UNL d   1      27.030  -7.430   4.175  0.00  0.00    -0.353 OA
ATOM     38  C   UNL d   1      28.146  -7.332   5.036  0.00  0.00     0.210 C 
ENDBRANCH  33  37
ENDBRANCH   4  29
TORSDOF 8
ENDMDL
MODEL 2
REMARK VINA RESULT:   -10.454      1.763      7.642
REMARK INTER + INTRA:         -14.574
REMARK INTER:                 -12.840
REMARK INTRA:                  -1.734
REMARK CONF_INDEPENDENT:        2.386
REMARK UNBOUND:                -1.734
REMARK  8 active torsions:
REMARK  status: ('A' for Active; 'I' for Inactive)
REMARK    1  A    between atoms: C_2  and  C_3 
REMARK    2  A    between atoms: C_7  and  N_8 
REMARK       I    between atoms: N_8  and  C_9 
REMARK       I    between atoms: C_9  and  N_23 
REMARK       I    between atoms: N_10  and  C_11 
REMARK    3  A    between atoms: C_11  and  C_13 
REMARK    4  A    between atoms: C_16  and  O_17 
REMARK    5  A    between atoms: C_19  and  O_20 
REMARK    6  A    between atoms: N_23  and  C_24 
REMARK    7  A    between atoms: C_24  and  C_25 
REMARK    8  A    between atoms: C_25  and  C_26 
ROOT
ATOM      1  N   UNL d   1      28.691 -14.953   2.032  0.00  0.00    -0.190 N 
ATOM      2  C   UNL d   1      28.953 -14.144   3.153  0.00  0.00     0.704 C 
ATOM      3  N   UNL d   1      28.548 -12.951   3.511  0.00  0.00    -0.023 NA
ATOM      4  C   UNL d   1      27.308 -12.497   3.108  0.00  0.00     0.294 C 
ATOM      5  O   UNL d   1      26.350 -13.211   2.991  0.00  0.00    -0.265 OA
ATOM      6  N   UNL d   1      29.808 -14.727   4.102  0.00  0.00    -0.224 N 
ATOM      7  H   UNL d   1      28.904 -15.939   2.097  0.00  0.00     0.184 HD
ATOM      8  H   UNL d   1      29.845 -15.741   4.153  0.00  0.00     0.177 HD
ENDROOT
BRANCH   1   9
ATOM      9  C   UNL d   1      28.064 -14.599   0.793  0.00  0.00     0.049 C 
ATOM     10  C   UNL d   1      28.637 -13.773  -0.185  0.00  0.00     0.030 C 
ATOM     11  C   UNL d   1      28.082 -13.679  -1.493  0.00  0.00     0.003 C 
ATOM     12  C   UNL d   1      26.973 -14.430  -1.866  0.00  0.00     0.007 C 
ATOM     13  C   UNL d   1      26.357 -15.188  -0.898  0.00  0.00    -0.056 C 
ATOM     14  C   UNL d   1      26.840 -15.140   0.426  0.00  0.00     0.037 C 
BRANCH  13  15
ATOM     15  C   UNL d   1      25.309 -16.191  -1.274  0.00  0.00     0.034 C 
ATOM     16  C   UNL d   1      25.315 -17.375  -0.324  0.00  0.00     0.010 C 
ENDBRANCH  13  15
ENDBRANCH   1   9
BRANCH   6  17
ATOM     17  C   UNL d   1      30.005 -14.002   5.380  0.00  0.00     0.142 C 
BRANCH  17  18
ATOM     18  C   UNL d   1      28.887 -14.180   6.389  0.00  0.00     0.057 C 
BRANCH  18  19
ATOM     19  C   UNL d   1      28.772 -13.141   7.478  0.00  0.00    -0.048 A 
ATOM     20  C   UNL d   1      28.794 -13.519   8.758  0.00  0.00    -0.006 A 
ATOM     21  C   UNL d   1      28.905 -14.811   9.330  0.00  0.00     0.014 A 
ATOM     22  C   UNL d   1      28.621 -12.310   9.571  0.00  0.00     0.038 A 
ATOM     23  C   UNL d   1      28.741 -14.935  10.650  0.00  0.00     0.001 A 
ATOM     24  C   UNL d   1      28.593 -13.765  11.502  0.00  0.00     0.002 A 
ATOM     25  C   UNL d   1      28.534 -12.498  11.037  0.00  0.00     0.030 A 
ATOM     26  N   UNL d   1      28.565 -11.262   8.839  0.00  0.00    -0.385 N 
ATOM     27  C   UNL d   1      28.611 -11.645   7.386  0.00  0.00     0.155 A 
ATOM     28  H   UNL d   1      28.502 -10.322   9.232  0.00  0.00     0.160 HD
ENDBRANCH  18  19
ENDBRANCH  17  18
ENDBRANCH   6  17
BRANCH   4  29
ATOM     29  C   UNL d   1      27.144 -11.004   2.906  0.00  0.00     0.037 C 
ATOM     30  C   UNL d   1      27.912 -10.150   3.707  0.00  0.00     0.020 C 
ATOM     31  C   UNL d   1      27.599  -8.787   3.814  0.00  0.00     0.040 C 
ATOM     32  C   UNL d   1      26.699  -8.203   2.928  0.00  0.00     0.101 C 
ATOM     33  C   UNL d   1      25.970  -9.041   2.063  0.00  0.00     0.102 C 
ATOM     34  C   UNL d   1      26.152 -10.441   2.107  0.00  0.00     0.056 C 
BRANCH  32  35
ATOM     35  O   UNL d   1      26.598  -6.839   3.059  0.00  0.00    -0.353 OA
ATOM     36  C   UNL d   1      27.779  -6.100   2.765  0.00  0.00     0.210 C 
ENDBRANCH  32  35
BRANCH  33  37
ATOM     37  O   UNL d   1      25.039  -8.452   1.252  0.00  0.00    -0.353 OA
ATOM     38  C   UNL d   1      25.522  -7.707   0.153  0.00  0.00     0.210 C 
ENDBRANCH  33  37
ENDBRANCH   4  29
TORSDOF 8
ENDMDL
MODEL 3
REMARK VINA RESULT:    -9.386      6.699      9.129
REMARK INTER + INTRA:         -13.736
REMARK INTER:                 -11.773
REMARK INTRA:                  -1.963
REMARK CONF_INDEPENDENT:        2.386
REMARK UNBOUND:                -1.963
REMARK  8 active torsions:
REMARK  status: ('A' for Active; 'I' for Inactive)
REMARK    1  A    between atoms: C_2  and  C_3 
REMARK    2  A    between atoms: C_7  and  N_8 
REMARK       I    between atoms: N_8  and  C_9 
REMARK       I    between atoms: C_9  and  N_23 
REMARK       I    between atoms: N_10  and  C_11 
REMARK    3  A    between atoms: C_11  and  C_13 
REMARK    4  A    between atoms: C_16  and  O_17 
REMARK    5  A    between atoms: C_19  and  O_20 
REMARK    6  A    between atoms: N_23  and  C_24 
REMARK    7  A    between atoms: C_24  and  C_25 
REMARK    8  A    between atoms: C_25  and  C_26 
ROOT
ATOM      1  N   UNL d   1      28.396 -17.736  -0.421  0.00  0.00    -0.190 N 
ATOM      2  C   UNL d   1      29.599 -17.627  -1.142  0.00  0.00     0.704 C 
ATOM      3  N   UNL d   1      29.972 -16.886  -2.156  0.00  0.00    -0.023 NA
ATOM      4  C   UNL d   1      29.410 -15.638  -2.337  0.00  0.00     0.294 C 
ATOM      5  O   UNL d   1      29.092 -14.919  -1.430  0.00  0.00    -0.265 OA
ATOM      6  N   UNL d   1      30.628 -18.465  -0.683  0.00  0.00    -0.224 N 
ATOM      7  H   UNL d   1      28.423 -18.183   0.486  0.00  0.00     0.184 HD
ATOM      8  H   UNL d   1      30.612 -18.752   0.291  0.00  0.00     0.177 HD
ENDROOT
BRANCH   1   9
ATOM      9  C   UNL d   1      27.101 -17.214  -0.745  0.00  0.00     0.049 C 
ATOM     10  C   UNL d   1      26.812 -16.444  -1.882  0.00  0.00     0.030 C 
ATOM     11  C   UNL d   1      25.469 -16.186  -2.280  0.00  0.00     0.003 C 
ATOM     12  C   UNL d   1      24.391 -16.717  -1.581  0.00  0.00     0.007 C 
ATOM     13  C   UNL d   1      24.656 -17.411  -0.424  0.00  0.00    -0.056 C 
ATOM     14  C   UNL d   1      25.989 -17.519   0.026  0.00  0.00     0.037 C 
BRANCH  13  15
ATOM     15  C   UNL d   1      23.576 -18.200   0.251  0.00  0.00     0.034 C 
ATOM     16  C   UNL d   1      22.794 -19.032  -0.749  0.00  0.00     0.010 C 
ENDBRANCH  13  15
ENDBRANCH   1   9
BRANCH   6  17
ATOM     17  C   UNL d   1      31.970 -18.293  -1.291  0.00  0.00     0.142 C 
BRANCH  17  18
ATOM     18  C   UNL d   1      32.570 -19.558  -1.871  0.00  0.00     0.057 C 
BRANCH  18  19
ATOM     19  C   UNL d   1      31.765 -20.281  -2.925  0.00  0.00    -0.048 A 
ATOM     20  C   UNL d   1      31.624 -19.741  -4.136  0.00  0.00    -0.006 A 
ATOM     21  C   UNL d   1      32.118 -18.518  -4.658  0.00  0.00     0.014 A 
ATOM     22  C   UNL d   1      30.767 -20.640  -4.916  0.00  0.00     0.038 A 
ATOM     23  C   UNL d   1      31.698 -18.130  -5.865  0.00  0.00     0.001 A 
ATOM     24  C   UNL d   1      30.869 -18.998  -6.687  0.00  0.00     0.002 A 
ATOM     25  C   UNL d   1      30.405 -20.200  -6.283  0.00  0.00     0.030 A 
ATOM     26  N   UNL d   1      30.463 -21.688  -4.247  0.00  0.00    -0.385 N 
ATOM     27  C   UNL d   1      31.024 -21.593  -2.856  0.00  0.00     0.155 A 
ATOM     28  H   UNL d   1      29.919 -22.454  -4.646  0.00  0.00     0.160 HD
ENDBRANCH  18  19
ENDBRANCH  17  18
ENDBRANCH   6  17
BRANCH   4  29
ATOM     29  C   UNL d   1      29.291 -15.127  -3.759  0.00  0.00     0.037 C 
ATOM     30  C   UNL d   1      28.283 -14.196  -4.036  0.00  0.00     0.020 C 
ATOM     31  C   UNL d   1      27.900 -13.919  -5.357  0.00  0.00     0.040 C 
ATOM     32  C   UNL d   1      28.687 -14.351  -6.419  0.00  0.00     0.101 C 
ATOM     33  C   UNL d   1      29.752 -15.231  -6.151  0.00  0.00     0.102 C 
ATOM     34  C   UNL d   1      30.004 -15.663  -4.830  0.00  0.00     0.056 C 
BRANCH  32  35
ATOM     35  O   UNL d   1      28.269 -13.887  -7.643  0.00  0.00    -0.353 OA
ATOM     36  C   UNL d   1      28.818 -12.638  -8.051  0.00  0.00     0.210 C 
ENDBRANCH  32  35
BRANCH  33  37
ATOM     37  O   UNL d   1      30.466 -15.700  -7.220  0.00  0.00    -0.353 OA
ATOM     38  C   UNL d   1      31.756 -15.159  -7.419  0.00  0.00     0.210 C 
ENDBRANCH  33  37
ENDBRANCH   4  29
TORSDOF 8
ENDMDL
MODEL 4
REMARK VINA RESULT:    -8.997      1.960      6.662
REMARK INTER + INTRA:         -14.546
REMARK INTER:                 -11.383
REMARK INTRA:                  -3.163
REMARK CONF_INDEPENDENT:        2.386
REMARK UNBOUND:                -3.163
REMARK  8 active torsions:
REMARK  status: ('A' for Active; 'I' for Inactive)
REMARK    1  A    between atoms: C_2  and  C_3 
REMARK    2  A    between atoms: C_7  and  N_8 
REMARK       I    between atoms: N_8  and  C_9 
REMARK       I    between atoms: C_9  and  N_23 
REMARK       I    between atoms: N_10  and  C_11 
REMARK    3  A    between atoms: C_11  and  C_13 
REMARK    4  A    between atoms: C_16  and  O_17 
REMARK    5  A    between atoms: C_19  and  O_20 
REMARK    6  A    between atoms: N_23  and  C_24 
REMARK    7  A    between atoms: C_24  and  C_25 
REMARK    8  A    between atoms: C_25  and  C_26 
ROOT
ATOM      1  N   UNL d   1      28.403 -16.844   0.187  0.00  0.00    -0.190 N 
ATOM      2  C   UNL d   1      29.331 -15.874   0.605  0.00  0.00     0.704 C 
ATOM      3  N   UNL d   1      29.218 -14.615   0.948  0.00  0.00    -0.023 NA
ATOM      4  C   UNL d   1      28.046 -14.163   1.521  0.00  0.00     0.294 C 
ATOM      5  O   UNL d   1      27.374 -14.827   2.262  0.00  0.00    -0.265 OA
ATOM      6  N   UNL d   1      30.654 -16.337   0.696  0.00  0.00    -0.224 N 
ATOM      7  H   UNL d   1      28.678 -17.816   0.230  0.00  0.00     0.184 HD
ATOM      8  H   UNL d   1      30.802 -17.328   0.863  0.00  0.00     0.177 HD
ENDROOT
BRANCH   1   9
ATOM      9  C   UNL d   1      27.041 -16.670  -0.225  0.00  0.00     0.049 C 
ATOM     10  C   UNL d   1      26.608 -15.730  -1.173  0.00  0.00     0.030 C 
ATOM     11  C   UNL d   1      25.298 -15.788  -1.729  0.00  0.00     0.003 C 
ATOM     12  C   UNL d   1      24.408 -16.800  -1.384  0.00  0.00     0.007 C 
ATOM     13  C   UNL d   1      24.791 -17.684  -0.403  0.00  0.00    -0.056 C 
ATOM     14  C   UNL d   1      26.036 -17.508   0.237  0.00  0.00     0.037 C 
BRANCH  13  15
ATOM     15  C   UNL d   1      23.990 -18.924  -0.145  0.00  0.00     0.034 C 
ATOM     16  C   UNL d   1      22.552 -18.755  -0.599  0.00  0.00     0.010 C 
ENDBRANCH  13  15
ENDBRANCH   1   9
BRANCH   6  17
ATOM     17  C   UNL d   1      31.660 -15.419   1.278  0.00  0.00     0.142 C 
BRANCH  17  18
ATOM     18  C   UNL d   1      31.530 -15.200   2.772  0.00  0.00     0.057 C 
BRANCH  18  19
ATOM     19  C   UNL d   1      30.980 -13.869   3.228  0.00  0.00    -0.048 A 
ATOM     20  C   UNL d   1      29.983 -13.833   4.113  0.00  0.00    -0.006 A 
ATOM     21  C   UNL d   1      29.281 -14.889   4.747  0.00  0.00     0.014 A 
ATOM     22  C   UNL d   1      29.640 -12.422   4.324  0.00  0.00     0.038 A 
ATOM     23  C   UNL d   1      28.206 -14.585   5.480  0.00  0.00     0.001 A 
ATOM     24  C   UNL d   1      27.842 -13.201   5.741  0.00  0.00     0.002 A 
ATOM     25  C   UNL d   1      28.494 -12.139   5.218  0.00  0.00     0.030 A 
ATOM     26  N   UNL d   1      30.421 -11.651   3.666  0.00  0.00    -0.385 N 
ATOM     27  C   UNL d   1      31.369 -12.467   2.832  0.00  0.00     0.155 A 
ATOM     28  H   UNL d   1      30.370 -10.634   3.732  0.00  0.00     0.160 HD
ENDBRANCH  18  19
ENDBRANCH  17  18
ENDBRANCH   6  17
BRANCH   4  29
ATOM     29  C   UNL d   1      27.660 -12.719   1.271  0.00  0.00     0.037 C 
ATOM     30  C   UNL d   1      28.085 -12.128   0.075  0.00  0.00     0.020 C 
ATOM     31  C   UNL d   1      28.053 -10.736  -0.093  0.00  0.00     0.040 C 
ATOM     32  C   UNL d   1      27.353  -9.938   0.806  0.00  0.00     0.101 C 
ATOM     33  C   UNL d   1      26.854 -10.530   1.981  0.00  0.00     0.102 C 
ATOM     34  C   UNL d   1      27.069 -11.902   2.234  0.00  0.00     0.056 C 
BRANCH  32  35
ATOM     35  O   UNL d   1      27.288  -8.615   0.439  0.00  0.00    -0.353 OA
ATOM     36  C   UNL d   1      25.978  -8.088   0.253  0.00  0.00     0.210 C 
ENDBRANCH  32  35
BRANCH  33  37
ATOM     37  O   UNL d   1      26.233  -9.711   2.884  0.00  0.00    -0.353 OA
ATOM     38  C   UNL d   1      27.020  -9.207   3.943  0.00  0.00     0.210 C 
ENDBRANCH  33  37
ENDBRANCH   4  29
TORSDOF 8
ENDMDL
MODEL 5
REMARK VINA RESULT:    -8.518      6.596      8.972
REMARK INTER + INTRA:         -13.944
REMARK INTER:                 -10.905
REMARK INTRA:                  -3.039
REMARK CONF_INDEPENDENT:        2.386
REMARK UNBOUND:                -3.039
REMARK  8 active torsions:
REMARK  status: ('A' for Active; 'I' for Inactive)
REMARK    1  A    between atoms: C_2  and  C_3 
REMARK    2  A    between atoms: C_7  and  N_8 
REMARK       I    between atoms: N_8  and  C_9 
REMARK       I    between atoms: C_9  and  N_23 
REMARK       I    between atoms: N_10  and  C_11 
REMARK    3  A    between atoms: C_11  and  C_13 
REMARK    4  A    between atoms: C_16  and  O_17 
REMARK    5  A    between atoms: C_19  and  O_20 
REMARK    6  A    between atoms: N_23  and  C_24 
REMARK    7  A    between atoms: C_24  and  C_25 
REMARK    8  A    between atoms: C_25  and  C_26 
ROOT
ATOM      1  N   UNL d   1      28.189 -17.584  -0.279  0.00  0.00    -0.190 N 
ATOM      2  C   UNL d   1      29.423 -17.365  -0.919  0.00  0.00     0.704 C 
ATOM      3  N   UNL d   1      29.794 -16.598  -1.913  0.00  0.00    -0.023 NA
ATOM      4  C   UNL d   1      29.131 -15.410  -2.146  0.00  0.00     0.294 C 
ATOM      5  O   UNL d   1      28.685 -14.720  -1.271  0.00  0.00    -0.265 OA
ATOM      6  N   UNL d   1      30.493 -18.100  -0.381  0.00  0.00    -0.224 N 
ATOM      7  H   UNL d   1      28.196 -18.022   0.632  0.00  0.00     0.184 HD
ATOM      8  H   UNL d   1      30.436 -18.383   0.593  0.00  0.00     0.177 HD
ENDROOT
BRANCH   1   9
ATOM      9  C   UNL d   1      26.876 -17.188  -0.696  0.00  0.00     0.049 C 
ATOM     10  C   UNL d   1      26.576 -16.598  -1.933  0.00  0.00     0.030 C 
ATOM     11  C   UNL d   1      25.232 -16.476  -2.388  0.00  0.00     0.003 C 
ATOM     12  C   UNL d   1      24.166 -16.970  -1.644  0.00  0.00     0.007 C 
ATOM     13  C   UNL d   1      24.438 -17.485  -0.398  0.00  0.00    -0.056 C 
ATOM     14  C   UNL d   1      25.762 -17.451   0.087  0.00  0.00     0.037 C 
BRANCH  13  15
ATOM     15  C   UNL d   1      23.386 -18.238   0.357  0.00  0.00     0.034 C 
ATOM     16  C   UNL d   1      22.271 -18.699  -0.563  0.00  0.00     0.010 C 
ENDBRANCH  13  15
ENDBRANCH   1   9
BRANCH   6  17
ATOM     17  C   UNL d   1      31.850 -17.806  -0.898  0.00  0.00     0.142 C 
BRANCH  17  18
ATOM     18  C   UNL d   1      32.247 -18.599  -2.127  0.00  0.00     0.057 C 
BRANCH  18  19
ATOM     19  C   UNL d   1      32.140 -17.900  -3.461  0.00  0.00    -0.048 A 
ATOM     20  C   UNL d   1      31.491 -18.489  -4.467  0.00  0.00    -0.006 A 
ATOM     21  C   UNL d   1      30.841 -19.748  -4.526  0.00  0.00     0.014 A 
ATOM     22  C   UNL d   1      31.592 -17.600  -5.629  0.00  0.00     0.038 A 
ATOM     23  C   UNL d   1      30.400 -20.178  -5.712  0.00  0.00     0.001 A 
ATOM     24  C   UNL d   1      30.453 -19.323  -6.887  0.00  0.00     0.002 A 
ATOM     25  C   UNL d   1      31.005 -18.090  -6.898  0.00  0.00     0.030 A 
ATOM     26  N   UNL d   1      32.201 -16.515  -5.333  0.00  0.00    -0.385 N 
ATOM     27  C   UNL d   1      32.679 -16.565  -3.909  0.00  0.00     0.155 A 
ATOM     28  H   UNL d   1      32.317 -15.751  -6.000  0.00  0.00     0.160 HD
ENDBRANCH  18  19
ENDBRANCH  17  18
ENDBRANCH   6  17
BRANCH   4  29
ATOM     29  C   UNL d   1      29.063 -14.920  -3.579  0.00  0.00     0.037 C 
ATOM     30  C   UNL d   1      27.815 -14.932  -4.214  0.00  0.00     0.020 C 
ATOM     31  C   UNL d   1      27.714 -14.805  -5.607  0.00  0.00     0.040 C 
ATOM     32  C   UNL d   1      28.813 -14.396  -6.355  0.00  0.00     0.101 C 
ATOM     33  C   UNL d   1      30.064 -14.307  -5.716  0.00  0.00     0.102 C 
ATOM     34  C   UNL d   1      30.189 -14.634  -4.348  0.00  0.00     0.056 C 
BRANCH  32  35
ATOM     35  O   UNL d   1      28.530 -14.178  -7.682  0.00  0.00    -0.353 OA
ATOM     36  C   UNL d   1      28.822 -12.873  -8.170  0.00  0.00     0.210 C 
ENDBRANCH  32  35
BRANCH  33  37
ATOM     37  O   UNL d   1      31.143 -13.974  -6.488  0.00  0.00    -0.353 OA
ATOM     38  C   UNL d   1      31.922 -12.874  -6.064  0.00  0.00     0.210 C 
ENDBRANCH  33  37
ENDBRANCH   4  29
TORSDOF 8
ENDMDL
MODEL 6
REMARK VINA RESULT:    -8.408      2.174      6.751
REMARK INTER + INTRA:         -14.338
REMARK INTER:                 -10.795
REMARK INTRA:                  -3.544
REMARK CONF_INDEPENDENT:        2.386
REMARK UNBOUND:                -3.544
REMARK  8 active torsions:
REMARK  status: ('A' for Active; 'I' for Inactive)
REMARK    1  A    between atoms: C_2  and  C_3 
REMARK    2  A    between atoms: C_7  and  N_8 
REMARK       I    between atoms: N_8  and  C_9 
REMARK       I    between atoms: C_9  and  N_23 
REMARK       I    between atoms: N_10  and  C_11 
REMARK    3  A    between atoms: C_11  and  C_13 
REMARK    4  A    between atoms: C_16  and  O_17 
REMARK    5  A    between atoms: C_19  and  O_20 
REMARK    6  A    between atoms: N_23  and  C_24 
REMARK    7  A    between atoms: C_24  and  C_25 
REMARK    8  A    between atoms: C_25  and  C_26 
ROOT
ATOM      1  N   UNL d   1      28.679 -17.118   0.149  0.00  0.00    -0.190 N 
ATOM      2  C   UNL d   1      29.513 -16.072   0.587  0.00  0.00     0.704 C 
ATOM      3  N   UNL d   1      29.291 -14.818   0.893  0.00  0.00    -0.023 NA
ATOM      4  C   UNL d   1      28.063 -14.442   1.398  0.00  0.00     0.294 C 
ATOM      5  O   UNL d   1      27.405 -15.138   2.121  0.00  0.00    -0.265 OA
ATOM      6  N   UNL d   1      30.859 -16.435   0.752  0.00  0.00    -0.224 N 
ATOM      7  H   UNL d   1      29.022 -18.065   0.229  0.00  0.00     0.184 HD
ATOM      8  H   UNL d   1      31.070 -17.409   0.952  0.00  0.00     0.177 HD
ENDROOT
BRANCH   1   9
ATOM      9  C   UNL d   1      27.331 -17.052  -0.333  0.00  0.00     0.049 C 
ATOM     10  C   UNL d   1      26.249 -17.750   0.225  0.00  0.00     0.030 C 
ATOM     11  C   UNL d   1      24.905 -17.438  -0.128  0.00  0.00     0.003 C 
ATOM     12  C   UNL d   1      24.608 -16.405  -1.011  0.00  0.00     0.007 C 
ATOM     13  C   UNL d   1      25.659 -15.762  -1.622  0.00  0.00    -0.056 C 
ATOM     14  C   UNL d   1      26.976 -16.197  -1.366  0.00  0.00     0.037 C 
BRANCH  13  15
ATOM     15  C   UNL d   1      25.428 -14.503  -2.400  0.00  0.00     0.034 C 
ATOM     16  C   UNL d   1      25.533 -14.750  -3.893  0.00  0.00     0.010 C 
ENDBRANCH  13  15
ENDBRANCH   1   9
BRANCH   6  17
ATOM     17  C   UNL d   1      31.766 -15.433   1.360  0.00  0.00     0.142 C 
BRANCH  17  18
ATOM     18  C   UNL d   1      31.537 -15.183   2.837  0.00  0.00     0.057 C 
BRANCH  18  19
ATOM     19  C   UNL d   1      30.893 -13.872   3.222  0.00  0.00    -0.048 A 
ATOM     20  C   UNL d   1      29.888 -13.861   4.099  0.00  0.00    -0.006 A 
ATOM     21  C   UNL d   1      29.254 -14.930   4.781  0.00  0.00     0.014 A 
ATOM     22  C   UNL d   1      29.447 -12.469   4.236  0.00  0.00     0.038 A 
ATOM     23  C   UNL d   1      28.154 -14.665   5.491  0.00  0.00     0.001 A 
ATOM     24  C   UNL d   1      27.694 -13.298   5.680  0.00  0.00     0.002 A 
ATOM     25  C   UNL d   1      28.276 -12.221   5.108  0.00  0.00     0.030 A 
ATOM     26  N   UNL d   1      30.179 -11.679   3.544  0.00  0.00    -0.385 N 
ATOM     27  C   UNL d   1      31.188 -12.469   2.759  0.00  0.00     0.155 A 
ATOM     28  H   UNL d   1      30.058 -10.666   3.559  0.00  0.00     0.160 HD
ENDBRANCH  18  19
ENDBRANCH  17  18
ENDBRANCH   6  17
BRANCH   4  29
ATOM     29  C   UNL d   1      27.586 -13.036   1.093  0.00  0.00     0.037 C 
ATOM     30  C   UNL d   1      27.976 -12.464  -0.124  0.00  0.00     0.020 C 
ATOM     31  C   UNL d   1      27.855 -11.084  -0.344  0.00  0.00     0.040 C 
ATOM     32  C   UNL d   1      27.104 -10.299   0.524  0.00  0.00     0.101 C 
ATOM     33  C   UNL d   1      26.641 -10.877   1.721  0.00  0.00     0.102 C 
ATOM     34  C   UNL d   1      26.943 -12.223   2.025  0.00  0.00     0.056 C 
BRANCH  32  35
ATOM     35  O   UNL d   1      26.956  -8.998   0.107  0.00  0.00    -0.353 OA
ATOM     36  C   UNL d   1      26.750  -8.816  -1.290  0.00  0.00     0.210 C 
ENDBRANCH  32  35
BRANCH  33  37
ATOM     37  O   UNL d   1      25.967 -10.067   2.593  0.00  0.00    -0.353 OA
ATOM     38  C   UNL d   1      26.701  -9.536   3.677  0.00  0.00     0.210 C 
ENDBRANCH  33  37
ENDBRANCH   4  29
TORSDOF 8
ENDMDL
MODEL 7
REMARK VINA RESULT:    -8.271      4.938      7.399
REMARK INTER + INTRA:         -13.759
REMARK INTER:                 -10.657
REMARK INTRA:                  -3.102
REMARK CONF_INDEPENDENT:        2.386
REMARK UNBOUND:                -3.102
REMARK  8 active torsions:
REMARK  status: ('A' for Active; 'I' for Inactive)
REMARK    1  A    between atoms: C_2  and  C_3 
REMARK    2  A    between atoms: C_7  and  N_8 
REMARK       I    between atoms: N_8  and  C_9 
REMARK       I    between atoms: C_9  and  N_23 
REMARK       I    between atoms: N_10  and  C_11 
REMARK    3  A    between atoms: C_11  and  C_13 
REMARK    4  A    between atoms: C_16  and  O_17 
REMARK    5  A    between atoms: C_19  and  O_20 
REMARK    6  A    between atoms: N_23  and  C_24 
REMARK    7  A    between atoms: C_24  and  C_25 
REMARK    8  A    between atoms: C_25  and  C_26 
ROOT
ATOM      1  N   UNL d   1      26.562 -17.816  -0.144  0.00  0.00    -0.190 N 
ATOM      2  C   UNL d   1      27.713 -17.100  -0.522  0.00  0.00     0.704 C 
ATOM      3  N   UNL d   1      27.919 -15.855  -0.871  0.00  0.00    -0.023 NA
ATOM      4  C   UNL d   1      27.108 -14.857  -0.367  0.00  0.00     0.294 C 
ATOM      5  O   UNL d   1      26.650 -14.876   0.742  0.00  0.00    -0.265 OA
ATOM      6  N   UNL d   1      28.896 -17.856  -0.509  0.00  0.00    -0.224 N 
ATOM      7  H   UNL d   1      26.686 -18.697   0.336  0.00  0.00     0.184 HD
ATOM      8  H   UNL d   1      28.944 -18.658   0.112  0.00  0.00     0.177 HD
ENDROOT
BRANCH   1   9
ATOM      9  C   UNL d   1      25.186 -17.434  -0.260  0.00  0.00     0.049 C 
ATOM     10  C   UNL d   1      24.723 -16.325  -0.984  0.00  0.00     0.030 C 
ATOM     11  C   UNL d   1      23.340 -16.157  -1.278  0.00  0.00     0.003 C 
ATOM     12  C   UNL d   1      22.396 -17.104  -0.894  0.00  0.00     0.007 C 
ATOM     13  C   UNL d   1      22.824 -18.158  -0.122  0.00  0.00    -0.056 C 
ATOM     14  C   UNL d   1      24.175 -18.215   0.281  0.00  0.00     0.037 C 
BRANCH  13  15
ATOM     15  C   UNL d   1      21.921 -19.327   0.133  0.00  0.00     0.034 C 
ATOM     16  C   UNL d   1      20.683 -19.267  -0.742  0.00  0.00     0.010 C 
ENDBRANCH  13  15
ENDBRANCH   1   9
BRANCH   6  17
ATOM     17  C   UNL d   1      30.170 -17.134  -0.742  0.00  0.00     0.142 C 
BRANCH  17  18
ATOM     18  C   UNL d   1      30.437 -16.769  -2.189  0.00  0.00     0.057 C 
BRANCH  18  19
ATOM     19  C   UNL d   1      30.301 -15.314  -2.569  0.00  0.00    -0.048 A 
ATOM     20  C   UNL d   1      29.584 -14.974  -3.641  0.00  0.00    -0.006 A 
ATOM     21  C   UNL d   1      28.880 -15.785  -4.568  0.00  0.00     0.014 A 
ATOM     22  C   UNL d   1      29.671 -13.517  -3.778  0.00  0.00     0.038 A 
ATOM     23  C   UNL d   1      28.369 -15.203  -5.657  0.00  0.00     0.001 A 
ATOM     24  C   UNL d   1      28.407 -13.759  -5.825  0.00  0.00     0.002 A 
ATOM     25  C   UNL d   1      29.010 -12.915  -4.959  0.00  0.00     0.030 A 
ATOM     26  N   UNL d   1      30.338 -12.999  -2.817  0.00  0.00    -0.385 N 
ATOM     27  C   UNL d   1      30.876 -14.080  -1.922  0.00  0.00     0.155 A 
ATOM     28  H   UNL d   1      30.457 -11.990  -2.713  0.00  0.00     0.160 HD
ENDBRANCH  18  19
ENDBRANCH  17  18
ENDBRANCH   6  17
BRANCH   4  29
ATOM     29  C   UNL d   1      26.880 -13.639  -1.239  0.00  0.00     0.037 C 
ATOM     30  C   UNL d   1      26.021 -13.773  -2.337  0.00  0.00     0.020 C 
ATOM     31  C   UNL d   1      26.003 -12.814  -3.360  0.00  0.00     0.040 C 
ATOM     32  C   UNL d   1      26.629 -11.585  -3.178  0.00  0.00     0.101 C 
ATOM     33  C   UNL d   1      27.439 -11.405  -2.041  0.00  0.00     0.102 C 
ATOM     34  C   UNL d   1      27.609 -12.458  -1.115  0.00  0.00     0.056 C 
BRANCH  32  35
ATOM     35  O   UNL d   1      26.409 -10.695  -4.202  0.00  0.00    -0.353 OA
ATOM     36  C   UNL d   1      25.886 -11.252  -5.404  0.00  0.00     0.210 C 
ENDBRANCH  32  35
BRANCH  33  37
ATOM     37  O   UNL d   1      28.102 -10.214  -1.922  0.00  0.00    -0.353 OA
ATOM     38  C   UNL d   1      27.330  -9.078  -1.591  0.00  0.00     0.210 C 
ENDBRANCH  33  37
ENDBRANCH   4  29
TORSDOF 8
ENDMDL
MODEL 8
REMARK VINA RESULT:    -8.188      2.962      7.347
REMARK INTER + INTRA:         -13.835
REMARK INTER:                 -10.574
REMARK INTRA:                  -3.260
REMARK CONF_INDEPENDENT:        2.386
REMARK UNBOUND:                -3.260
REMARK  8 active torsions:
REMARK  status: ('A' for Active; 'I' for Inactive)
REMARK    1  A    between atoms: C_2  and  C_3 
REMARK    2  A    between atoms: C_7  and  N_8 
REMARK       I    between atoms: N_8  and  C_9 
REMARK       I    between atoms: C_9  and  N_23 
REMARK       I    between atoms: N_10  and  C_11 
REMARK    3  A    between atoms: C_11  and  C_13 
REMARK    4  A    between atoms: C_16  and  O_17 
REMARK    5  A    between atoms: C_19  and  O_20 
REMARK    6  A    between atoms: N_23  and  C_24 
REMARK    7  A    between atoms: C_24  and  C_25 
REMARK    8  A    between atoms: C_25  and  C_26 
ROOT
ATOM      1  N   UNL d   1      28.327 -17.075   0.105  0.00  0.00    -0.190 N 
ATOM      2  C   UNL d   1      29.267 -16.031   0.171  0.00  0.00     0.704 C 
ATOM      3  N   UNL d   1      29.200 -14.748  -0.081  0.00  0.00    -0.023 NA
ATOM      4  C   UNL d   1      28.007 -14.076   0.092  0.00  0.00     0.294 C 
ATOM      5  O   UNL d   1      27.220 -14.340   0.959  0.00  0.00    -0.265 OA
ATOM      6  N   UNL d   1      30.541 -16.424   0.614  0.00  0.00    -0.224 N 
ATOM      7  H   UNL d   1      28.533 -17.934   0.598  0.00  0.00     0.184 HD
ATOM      8  H   UNL d   1      30.607 -17.243   1.211  0.00  0.00     0.177 HD
ENDROOT
BRANCH   1   9
ATOM      9  C   UNL d   1      27.030 -17.082  -0.504  0.00  0.00     0.049 C 
ATOM     10  C   UNL d   1      25.849 -17.488   0.136  0.00  0.00     0.030 C 
ATOM     11  C   UNL d   1      24.570 -17.220  -0.431  0.00  0.00     0.003 C 
ATOM     12  C   UNL d   1      24.437 -16.513  -1.621  0.00  0.00     0.007 C 
ATOM     13  C   UNL d   1      25.586 -16.174  -2.296  0.00  0.00    -0.056 C 
ATOM     14  C   UNL d   1      26.834 -16.587  -1.785  0.00  0.00     0.037 C 
BRANCH  13  15
ATOM     15  C   UNL d   1      25.532 -15.222  -3.452  0.00  0.00     0.034 C 
ATOM     16  C   UNL d   1      26.847 -15.200  -4.209  0.00  0.00     0.010 C 
ENDBRANCH  13  15
ENDBRANCH   1   9
BRANCH   6  17
ATOM     17  C   UNL d   1      31.538 -15.356   0.859  0.00  0.00     0.142 C 
BRANCH  17  18
ATOM     18  C   UNL d   1      31.537 -14.798   2.268  0.00  0.00     0.057 C 
BRANCH  18  19
ATOM     19  C   UNL d   1      30.615 -13.635   2.547  0.00  0.00    -0.048 A 
ATOM     20  C   UNL d   1      29.686 -13.740   3.499  0.00  0.00    -0.006 A 
ATOM     21  C   UNL d   1      29.371 -14.825   4.357  0.00  0.00     0.014 A 
ATOM     22  C   UNL d   1      28.927 -12.485   3.506  0.00  0.00     0.038 A 
ATOM     23  C   UNL d   1      28.280 -14.730   5.122  0.00  0.00     0.001 A 
ATOM     24  C   UNL d   1      27.511 -13.497   5.184  0.00  0.00     0.002 A 
ATOM     25  C   UNL d   1      27.780 -12.403   4.439  0.00  0.00     0.030 A 
ATOM     26  N   UNL d   1      29.405 -11.648   2.664  0.00  0.00    -0.385 N 
ATOM     27  C   UNL d   1      30.532 -12.278   1.895  0.00  0.00     0.155 A 
ATOM     28  H   UNL d   1      29.041 -10.699   2.568  0.00  0.00     0.160 HD
ENDBRANCH  18  19
ENDBRANCH  17  18
ENDBRANCH   6  17
BRANCH   4  29
ATOM     29  C   UNL d   1      27.743 -12.882  -0.804  0.00  0.00     0.037 C 
ATOM     30  C   UNL d   1      28.370 -11.673  -0.482  0.00  0.00     0.020 C 
ATOM     31  C   UNL d   1      27.941 -10.464  -1.050  0.00  0.00     0.040 C 
ATOM     32  C   UNL d   1      27.076 -10.470  -2.139  0.00  0.00     0.101 C 
ATOM     33  C   UNL d   1      26.492 -11.691  -2.525  0.00  0.00     0.102 C 
ATOM     34  C   UNL d   1      26.780 -12.875  -1.812  0.00  0.00     0.056 C 
BRANCH  32  35
ATOM     35  O   UNL d   1      26.857  -9.226  -2.679  0.00  0.00    -0.353 OA
ATOM     36  C   UNL d   1      25.505  -8.777  -2.670  0.00  0.00     0.210 C 
ENDBRANCH  32  35
BRANCH  33  37
ATOM     37  O   UNL d   1      25.589 -11.660  -3.552  0.00  0.00    -0.353 OA
ATOM     38  C   UNL d   1      26.084 -11.906  -4.852  0.00  0.00     0.210 C 
ENDBRANCH  33  37
ENDBRANCH   4  29
TORSDOF 8
ENDMDL
