MODEL 1
REMARK VINA RESULT:    -7.651      0.000      0.000
REMARK INTER + INTRA:         -14.772
REMARK INTER:                 -11.529
REMARK INTRA:                  -3.243
REMARK CONF_INDEPENDENT:        3.878
REMARK UNBOUND:                -3.243
REMARK  13 active torsions:
REMARK  status: ('A' for Active; 'I' for Inactive)
REMARK    1  A    between atoms: C_2  and  C_3 
REMARK    2  A    between atoms: C_3  and  C_4 
REMARK    3  A    between atoms: C_4  and  C_5 
REMARK    4  A    between atoms: C_5  and  C_6 
REMARK    5  A    between atoms: C_6  and  N_7 
REMARK       I    between atoms: N_7  and  C_8 
REMARK    6  A    between atoms: C_17  and  N_7 
REMARK    7  A    between atoms: C_8  and  C_10 
REMARK    8  A    between atoms: C_17  and  C_25 
REMARK    9  A    between atoms: C_17  and  C_18 
REMARK       I    between atoms: C_18  and  N_20 
REMARK   10  A    between atoms: N_20  and  C_21 
REMARK   11  A    between atoms: C_26  and  O_27 
REMARK   12  A    between atoms: C_29  and  O_30 
REMARK   13  A    between atoms: C_32  and  O_33 
ROOT
ATOM      1  C   UNL d   1      27.924 -16.576   0.066  0.00  0.00     0.218 C 
ENDROOT
BRANCH   1   2
ATOM      2  C   UNL d   1      29.204 -16.278  -0.881  0.00  0.00     0.040 C 
ATOM      3  C   UNL d   1      29.270 -15.055  -1.605  0.00  0.00     0.080 C 
ATOM      4  C   UNL d   1      30.262 -14.766  -2.565  0.00  0.00     0.073 C 
ATOM      5  C   UNL d   1      31.237 -15.691  -2.861  0.00  0.00     0.071 C 
ATOM      6  C   UNL d   1      31.265 -16.867  -2.179  0.00  0.00     0.073 C 
ATOM      7  C   UNL d   1      30.345 -17.093  -1.153  0.00  0.00     0.080 C 
BRANCH   3   8
ATOM      8  O   UNL d   1      28.460 -13.969  -1.415  0.00  0.00    -0.360 OA
ATOM      9  H   UNL d   1      27.594 -14.249  -1.091  0.00  0.00     0.217 HD
ENDBRANCH   3   8
BRANCH   5  10
ATOM     10  O   UNL d   1      32.255 -15.467  -3.728  0.00  0.00    -0.361 OA
ATOM     11  H   UNL d   1      33.005 -16.018  -3.461  0.00  0.00     0.217 HD
ENDBRANCH   5  10
BRANCH   7  12
ATOM     12  O   UNL d   1      30.859 -18.104  -0.380  0.00  0.00    -0.360 OA
ATOM     13  H   UNL d   1      30.140 -18.396   0.215  0.00  0.00     0.217 HD
ENDBRANCH   7  12
ENDBRANCH   1   2
BRANCH   1  14
ATOM     14  C   UNL d   1      27.684 -15.279   0.944  0.00  0.00     0.246 C 
ATOM     15  O   UNL d   1      26.641 -14.631   0.821  0.00  0.00    -0.271 OA
ATOM     16  N   UNL d   1      28.744 -14.850   1.780  0.00  0.00    -0.351 N 
ATOM     17  H   UNL d   1      29.366 -15.559   2.165  0.00  0.00     0.163 HD
BRANCH  16  18
ATOM     18  C   UNL d   1      28.571 -13.648   2.643  0.00  0.00     0.022 C 
ATOM     19  C   UNL d   1      28.259 -12.394   1.801  0.00  0.00     0.037 C 
ATOM     20  C   UNL d   1      27.457 -13.907   3.667  0.00  0.00     0.037 C 
ATOM     21  C   UNL d   1      29.872 -13.347   3.419  0.00  0.00     0.037 C 
ENDBRANCH  16  18
ENDBRANCH   1  14
BRANCH   1  22
ATOM     22  N   UNL d   1      26.537 -16.864  -0.561  0.00  0.00    -0.330 N 
ATOM     23  C   UNL d   1      25.615 -17.743   0.060  0.00  0.00     0.254 C 
ATOM     24  O   UNL d   1      25.884 -18.386   1.091  0.00  0.00    -0.267 OA
BRANCH  22  25
ATOM     25  C   UNL d   1      26.295 -16.174  -1.798  0.00  0.00     0.127 C 
BRANCH  25  26
ATOM     26  C   UNL d   1      25.539 -14.908  -1.955  0.00  0.00     0.020 C 
BRANCH  26  27
ATOM     27  C   UNL d   1      25.063 -14.407  -3.293  0.00  0.00     0.002 C 
BRANCH  27  28
ATOM     28  C   UNL d   1      26.360 -14.120  -4.055  0.00  0.00    -0.000 C 
BRANCH  28  29
ATOM     29  C   UNL d   1      26.696 -15.220  -5.021  0.00  0.00    -0.005 C 
ATOM     30  C   UNL d   1      28.156 -15.128  -5.417  0.00  0.00     0.005 C 
ENDBRANCH  28  29
ENDBRANCH  27  28
ENDBRANCH  26  27
ENDBRANCH  25  26
ENDBRANCH  22  25
BRANCH  23  31
ATOM     31  C   UNL d   1      24.214 -17.918  -0.441  0.00  0.00     0.032 C 
ATOM     32  C   UNL d   1      23.435 -16.803  -0.783  0.00  0.00     0.020 C 
ATOM     33  C   UNL d   1      22.041 -16.928  -0.890  0.00  0.00     0.043 C 
ATOM     34  C   UNL d   1      21.461 -18.187  -0.886  0.00  0.00     0.116 C 
ATOM     35  F   UNL d   1      20.128 -18.298  -0.981  0.00  0.00    -0.206 F 
ATOM     36  C   UNL d   1      22.253 -19.323  -0.772  0.00  0.00     0.043 C 
ATOM     37  C   UNL d   1      23.628 -19.192  -0.504  0.00  0.00     0.020 C 
ENDBRANCH  23  31
ENDBRANCH   1  22
TORSDOF 13
ENDMDL
MODEL 2
REMARK VINA RESULT:    -7.494      0.543      1.536
REMARK INTER + INTRA:         -14.627
REMARK INTER:                 -11.372
REMARK INTRA:                  -3.255
REMARK CONF_INDEPENDENT:        3.878
REMARK UNBOUND:                -3.255
REMARK  13 active torsions:
REMARK  status: ('A' for Active; 'I' for Inactive)
REMARK    1  A    between atoms: C_2  and  C_3 
REMARK    2  A    between atoms: C_3  and  C_4 
REMARK    3  A    between atoms: C_4  and  C_5 
REMARK    4  A    between atoms: C_5  and  C_6 
REMARK    5  A    between atoms: C_6  and  N_7 
REMARK       I    between atoms: N_7  and  C_8 
REMARK    6  A    between atoms: C_17  and  N_7 
REMARK    7  A    between atoms: C_8  and  C_10 
REMARK    8  A    between atoms: C_17  and  C_25 
REMARK    9  A    between atoms: C_17  and  C_18 
REMARK       I    between atoms: C_18  and  N_20 
REMARK   10  A    between atoms: N_20  and  C_21 
REMARK   11  A    between atoms: C_26  and  O_27 
REMARK   12  A    between atoms: C_29  and  O_30 
REMARK   13  A    between atoms: C_32  and  O_33 
ROOT
ATOM      1  C   UNL d   1      28.039 -16.471   0.054  0.00  0.00     0.218 C 
ENDROOT
BRANCH   1   2
ATOM      2  C   UNL d   1      29.327 -16.199  -0.889  0.00  0.00     0.040 C 
ATOM      3  C   UNL d   1      30.232 -17.261  -1.162  0.00  0.00     0.080 C 
ATOM      4  C   UNL d   1      31.455 -17.093  -1.845  0.00  0.00     0.073 C 
ATOM      5  C   UNL d   1      31.844 -15.848  -2.283  0.00  0.00     0.071 C 
ATOM      6  C   UNL d   1      31.011 -14.789  -2.097  0.00  0.00     0.073 C 
ATOM      7  C   UNL d   1      29.755 -14.990  -1.520  0.00  0.00     0.080 C 
BRANCH   3   8
ATOM      8  O   UNL d   1      30.014 -18.585  -0.895  0.00  0.00    -0.360 OA
ATOM      9  H   UNL d   1      29.697 -18.697   0.011  0.00  0.00     0.217 HD
ENDBRANCH   3   8
BRANCH   5  10
ATOM     10  O   UNL d   1      32.974 -15.614  -2.994  0.00  0.00    -0.361 OA
ATOM     11  H   UNL d   1      33.732 -15.749  -2.407  0.00  0.00     0.217 HD
ENDBRANCH   5  10
BRANCH   7  12
ATOM     12  O   UNL d   1      28.992 -13.899  -1.849  0.00  0.00    -0.360 OA
ATOM     13  H   UNL d   1      28.247 -13.875  -1.215  0.00  0.00     0.217 HD
ENDBRANCH   7  12
ENDBRANCH   1   2
BRANCH   1  14
ATOM     14  C   UNL d   1      27.765 -15.136   0.863  0.00  0.00     0.246 C 
ATOM     15  O   UNL d   1      26.853 -14.379   0.520  0.00  0.00    -0.271 OA
ATOM     16  N   UNL d   1      28.662 -14.809   1.909  0.00  0.00    -0.351 N 
ATOM     17  H   UNL d   1      29.103 -15.575   2.418  0.00  0.00     0.163 HD
BRANCH  16  18
ATOM     18  C   UNL d   1      28.446 -13.577   2.717  0.00  0.00     0.022 C 
ATOM     19  C   UNL d   1      28.444 -12.317   1.828  0.00  0.00     0.037 C 
ATOM     20  C   UNL d   1      27.127 -13.697   3.494  0.00  0.00     0.037 C 
ATOM     21  C   UNL d   1      29.588 -13.394   3.741  0.00  0.00     0.037 C 
ENDBRANCH  16  18
ENDBRANCH   1  14
BRANCH   1  22
ATOM     22  N   UNL d   1      26.666 -16.813  -0.577  0.00  0.00    -0.330 N 
ATOM     23  C   UNL d   1      25.731 -17.640   0.095  0.00  0.00     0.254 C 
ATOM     24  O   UNL d   1      25.978 -18.196   1.180  0.00  0.00    -0.267 OA
BRANCH  22  25
ATOM     25  C   UNL d   1      26.451 -16.228  -1.871  0.00  0.00     0.127 C 
BRANCH  25  26
ATOM     26  C   UNL d   1      25.965 -14.852  -2.135  0.00  0.00     0.020 C 
BRANCH  26  27
ATOM     27  C   UNL d   1      25.340 -14.449  -3.444  0.00  0.00     0.002 C 
BRANCH  27  28
ATOM     28  C   UNL d   1      25.905 -15.461  -4.444  0.00  0.00    -0.000 C 
BRANCH  28  29
ATOM     29  C   UNL d   1      27.345 -15.184  -4.767  0.00  0.00    -0.005 C 
ATOM     30  C   UNL d   1      27.464 -13.850  -5.479  0.00  0.00     0.005 C 
ENDBRANCH  28  29
ENDBRANCH  27  28
ENDBRANCH  26  27
ENDBRANCH  25  26
ENDBRANCH  22  25
BRANCH  23  31
ATOM     31  C   UNL d   1      24.342 -17.859  -0.421  0.00  0.00     0.032 C 
ATOM     32  C   UNL d   1      23.532 -16.770  -0.773  0.00  0.00     0.020 C 
ATOM     33  C   UNL d   1      22.143 -16.938  -0.894  0.00  0.00     0.043 C 
ATOM     34  C   UNL d   1      21.603 -18.214  -0.894  0.00  0.00     0.116 C 
ATOM     35  F   UNL d   1      20.275 -18.367  -1.003  0.00  0.00    -0.206 F 
ATOM     36  C   UNL d   1      22.428 -19.325  -0.770  0.00  0.00     0.043 C 
ATOM     37  C   UNL d   1      23.796 -19.151  -0.488  0.00  0.00     0.020 C 
ENDBRANCH  23  31
ENDBRANCH   1  22
TORSDOF 13
ENDMDL
MODEL 3
REMARK VINA RESULT:    -6.785      1.947      3.184
REMARK INTER + INTRA:         -14.562
REMARK INTER:                 -10.663
REMARK INTRA:                  -3.899
REMARK CONF_INDEPENDENT:        3.878
REMARK UNBOUND:                -3.899
REMARK  13 active torsions:
REMARK  status: ('A' for Active; 'I' for Inactive)
REMARK    1  A    between atoms: C_2  and  C_3 
REMARK    2  A    between atoms: C_3  and  C_4 
REMARK    3  A    between atoms: C_4  and  C_5 
REMARK    4  A    between atoms: C_5  and  C_6 
REMARK    5  A    between atoms: C_6  and  N_7 
REMARK       I    between atoms: N_7  and  C_8 
REMARK    6  A    between atoms: C_17  and  N_7 
REMARK    7  A    between atoms: C_8  and  C_10 
REMARK    8  A    between atoms: C_17  and  C_25 
REMARK    9  A    between atoms: C_17  and  C_18 
REMARK       I    between atoms: C_18  and  N_20 
REMARK   10  A    between atoms: N_20  and  C_21 
REMARK   11  A    between atoms: C_26  and  O_27 
REMARK   12  A    between atoms: C_29  and  O_30 
REMARK   13  A    between atoms: C_32  and  O_33 
ROOT
ATOM      1  C   UNL d   1      27.923 -15.697  -2.346  0.00  0.00     0.218 C 
ENDROOT
BRANCH   1   2
ATOM      2  C   UNL d   1      28.380 -15.177  -3.810  0.00  0.00     0.040 C 
ATOM      3  C   UNL d   1      29.677 -14.617  -3.982  0.00  0.00     0.080 C 
ATOM      4  C   UNL d   1      30.114 -14.004  -5.175  0.00  0.00     0.073 C 
ATOM      5  C   UNL d   1      29.272 -13.908  -6.260  0.00  0.00     0.071 C 
ATOM      6  C   UNL d   1      28.031 -14.459  -6.186  0.00  0.00     0.073 C 
ATOM      7  C   UNL d   1      27.652 -15.161  -5.040  0.00  0.00     0.080 C 
BRANCH   3   8
ATOM      8  O   UNL d   1      30.698 -14.672  -3.074  0.00  0.00    -0.360 OA
ATOM      9  H   UNL d   1      30.348 -14.635  -2.174  0.00  0.00     0.217 HD
ENDBRANCH   3   8
BRANCH   5  10
ATOM     10  O   UNL d   1      29.634 -13.386  -7.457  0.00  0.00    -0.361 OA
ATOM     11  H   UNL d   1      29.318 -13.979  -8.153  0.00  0.00     0.217 HD
ENDBRANCH   5  10
BRANCH   7  12
ATOM     12  O   UNL d   1      26.587 -15.950  -5.395  0.00  0.00    -0.360 OA
ATOM     13  H   UNL d   1      26.106 -15.472  -6.100  0.00  0.00     0.217 HD
ENDBRANCH   7  12
ENDBRANCH   1   2
BRANCH   1  14
ATOM     14  C   UNL d   1      28.102 -14.482  -1.345  0.00  0.00     0.246 C 
ATOM     15  O   UNL d   1      28.560 -13.409  -1.747  0.00  0.00    -0.271 OA
ATOM     16  N   UNL d   1      27.819 -14.714   0.023  0.00  0.00    -0.351 N 
ATOM     17  H   UNL d   1      27.099 -15.399   0.252  0.00  0.00     0.163 HD
BRANCH  16  18
ATOM     18  C   UNL d   1      27.951 -13.606   1.009  0.00  0.00     0.022 C 
ATOM     19  C   UNL d   1      27.536 -14.061   2.423  0.00  0.00     0.037 C 
ATOM     20  C   UNL d   1      29.396 -13.086   1.006  0.00  0.00     0.037 C 
ATOM     21  C   UNL d   1      27.021 -12.432   0.631  0.00  0.00     0.037 C 
ENDBRANCH  16  18
ENDBRANCH   1  14
BRANCH   1  22
ATOM     22  N   UNL d   1      26.469 -16.169  -2.103  0.00  0.00    -0.330 N 
ATOM     23  C   UNL d   1      26.143 -17.034  -1.029  0.00  0.00     0.254 C 
ATOM     24  O   UNL d   1      27.001 -17.520  -0.269  0.00  0.00    -0.267 OA
BRANCH  22  25
ATOM     25  C   UNL d   1      25.518 -15.660  -3.053  0.00  0.00     0.127 C 
BRANCH  25  26
ATOM     26  C   UNL d   1      24.780 -14.378  -2.945  0.00  0.00     0.020 C 
BRANCH  26  27
ATOM     27  C   UNL d   1      24.797 -13.337  -4.032  0.00  0.00     0.002 C 
BRANCH  27  28
ATOM     28  C   UNL d   1      26.148 -12.641  -3.847  0.00  0.00    -0.000 C 
BRANCH  28  29
ATOM     29  C   UNL d   1      25.989 -11.241  -3.328  0.00  0.00    -0.005 C 
ATOM     30  C   UNL d   1      27.350 -10.592  -3.173  0.00  0.00     0.005 C 
ENDBRANCH  28  29
ENDBRANCH  27  28
ENDBRANCH  26  27
ENDBRANCH  25  26
ENDBRANCH  22  25
BRANCH  23  31
ATOM     31  C   UNL d   1      24.728 -17.380  -0.680  0.00  0.00     0.032 C 
ATOM     32  C   UNL d   1      24.353 -18.713  -0.463  0.00  0.00     0.020 C 
ATOM     33  C   UNL d   1      22.998 -19.077  -0.507  0.00  0.00     0.043 C 
ATOM     34  C   UNL d   1      22.022 -18.094  -0.534  0.00  0.00     0.116 C 
ATOM     35  F   UNL d   1      20.730 -18.448  -0.583  0.00  0.00    -0.206 F 
ATOM     36  C   UNL d   1      22.380 -16.751  -0.522  0.00  0.00     0.043 C 
ATOM     37  C   UNL d   1      23.734 -16.388  -0.640  0.00  0.00     0.020 C 
ENDBRANCH  23  31
ENDBRANCH   1  22
TORSDOF 13
ENDMDL
MODEL 4
REMARK VINA RESULT:    -6.727      1.611      4.065
REMARK INTER + INTRA:         -14.759
REMARK INTER:                 -10.605
REMARK INTRA:                  -4.155
REMARK CONF_INDEPENDENT:        3.878
REMARK UNBOUND:                -4.155
REMARK  13 active torsions:
REMARK  status: ('A' for Active; 'I' for Inactive)
REMARK    1  A    between atoms: C_2  and  C_3 
REMARK    2  A    between atoms: C_3  and  C_4 
REMARK    3  A    between atoms: C_4  and  C_5 
REMARK    4  A    between atoms: C_5  and  C_6 
REMARK    5  A    between atoms: C_6  and  N_7 
REMARK       I    between atoms: N_7  and  C_8 
REMARK    6  A    between atoms: C_17  and  N_7 
REMARK    7  A    between atoms: C_8  and  C_10 
REMARK    8  A    between atoms: C_17  and  C_25 
REMARK    9  A    between atoms: C_17  and  C_18 
REMARK       I    between atoms: C_18  and  N_20 
REMARK   10  A    between atoms: N_20  and  C_21 
REMARK   11  A    between atoms: C_26  and  O_27 
REMARK   12  A    between atoms: C_29  and  O_30 
REMARK   13  A    between atoms: C_32  and  O_33 
ROOT
ATOM      1  C   UNL d   1      27.725 -14.310  -0.546  0.00  0.00     0.218 C 
ENDROOT
BRANCH   1   2
ATOM      2  C   UNL d   1      28.146 -14.145   1.010  0.00  0.00     0.040 C 
ATOM      3  C   UNL d   1      27.230 -13.554   1.924  0.00  0.00     0.080 C 
ATOM      4  C   UNL d   1      27.553 -13.231   3.259  0.00  0.00     0.073 C 
ATOM      5  C   UNL d   1      28.816 -13.473   3.749  0.00  0.00     0.071 C 
ATOM      6  C   UNL d   1      29.734 -14.076   2.947  0.00  0.00     0.073 C 
ATOM      7  C   UNL d   1      29.367 -14.492   1.665  0.00  0.00     0.080 C 
BRANCH   3   8
ATOM      8  O   UNL d   1      25.907 -13.304   1.680  0.00  0.00    -0.360 OA
ATOM      9  H   UNL d   1      25.566 -13.920   1.019  0.00  0.00     0.217 HD
ENDBRANCH   3   8
BRANCH   5  10
ATOM     10  O   UNL d   1      29.187 -13.244   5.032  0.00  0.00    -0.361 OA
ATOM     11  H   UNL d   1      30.146 -13.113   5.049  0.00  0.00     0.217 HD
ENDBRANCH   5  10
BRANCH   7  12
ATOM     12  O   UNL d   1      30.297 -15.420   1.271  0.00  0.00    -0.360 OA
ATOM     13  H   UNL d   1      30.033 -16.272   1.673  0.00  0.00     0.217 HD
ENDBRANCH   7  12
ENDBRANCH   1   2
BRANCH   1  14
ATOM     14  C   UNL d   1      28.913 -15.069  -1.270  0.00  0.00     0.246 C 
ATOM     15  O   UNL d   1      29.528 -14.524  -2.189  0.00  0.00    -0.271 OA
ATOM     16  N   UNL d   1      29.157 -16.412  -0.892  0.00  0.00    -0.351 N 
ATOM     17  H   UNL d   1      28.956 -16.682   0.070  0.00  0.00     0.163 HD
BRANCH  16  18
ATOM     18  C   UNL d   1      30.272 -17.172  -1.524  0.00  0.00     0.022 C 
ATOM     19  C   UNL d   1      30.425 -18.570  -0.893  0.00  0.00     0.037 C 
ATOM     20  C   UNL d   1      30.026 -17.280  -3.036  0.00  0.00     0.037 C 
ATOM     21  C   UNL d   1      31.615 -16.440  -1.310  0.00  0.00     0.037 C 
ENDBRANCH  16  18
ENDBRANCH   1  14
BRANCH   1  22
ATOM     22  N   UNL d   1      26.468 -15.128  -0.933  0.00  0.00    -0.330 N 
ATOM     23  C   UNL d   1      26.122 -16.318  -0.247  0.00  0.00     0.254 C 
ATOM     24  O   UNL d   1      26.833 -16.816   0.645  0.00  0.00    -0.267 OA
BRANCH  22  25
ATOM     25  C   UNL d   1      25.719 -14.573  -2.027  0.00  0.00     0.127 C 
BRANCH  25  26
ATOM     26  C   UNL d   1      25.529 -15.197  -3.358  0.00  0.00     0.020 C 
BRANCH  26  27
ATOM     27  C   UNL d   1      25.738 -14.445  -4.645  0.00  0.00     0.002 C 
BRANCH  27  28
ATOM     28  C   UNL d   1      27.221 -14.065  -4.608  0.00  0.00    -0.000 C 
BRANCH  28  29
ATOM     29  C   UNL d   1      28.099 -15.197  -5.058  0.00  0.00    -0.005 C 
ATOM     30  C   UNL d   1      28.792 -14.827  -6.355  0.00  0.00     0.005 C 
ENDBRANCH  28  29
ENDBRANCH  27  28
ENDBRANCH  26  27
ENDBRANCH  25  26
ENDBRANCH  22  25
BRANCH  23  31
ATOM     31  C   UNL d   1      24.833 -17.040  -0.497  0.00  0.00     0.032 C 
ATOM     32  C   UNL d   1      23.636 -16.327  -0.660  0.00  0.00     0.020 C 
ATOM     33  C   UNL d   1      22.404 -16.985  -0.522  0.00  0.00     0.043 C 
ATOM     34  C   UNL d   1      22.366 -18.369  -0.455  0.00  0.00     0.116 C 
ATOM     35  F   UNL d   1      21.186 -18.989  -0.316  0.00  0.00    -0.206 F 
ATOM     36  C   UNL d   1      23.542 -19.105  -0.520  0.00  0.00     0.043 C 
ATOM     37  C   UNL d   1      24.784 -18.443  -0.496  0.00  0.00     0.020 C 
ENDBRANCH  23  31
ENDBRANCH   1  22
TORSDOF 13
ENDMDL
MODEL 5
REMARK VINA RESULT:    -6.431      1.878      4.886
REMARK INTER + INTRA:         -14.588
REMARK INTER:                 -10.309
REMARK INTRA:                  -4.278
REMARK CONF_INDEPENDENT:        3.878
REMARK UNBOUND:                -4.278
REMARK  13 active torsions:
REMARK  status: ('A' for Active; 'I' for Inactive)
REMARK    1  A    between atoms: C_2  and  C_3 
REMARK    2  A    between atoms: C_3  and  C_4 
REMARK    3  A    between atoms: C_4  and  C_5 
REMARK    4  A    between atoms: C_5  and  C_6 
REMARK    5  A    between atoms: C_6  and  N_7 
REMARK       I    between atoms: N_7  and  C_8 
REMARK    6  A    between atoms: C_17  and  N_7 
REMARK    7  A    between atoms: C_8  and  C_10 
REMARK    8  A    between atoms: C_17  and  C_25 
REMARK    9  A    between atoms: C_17  and  C_18 
REMARK       I    between atoms: C_18  and  N_20 
REMARK   10  A    between atoms: N_20  and  C_21 
REMARK   11  A    between atoms: C_26  and  O_27 
REMARK   12  A    between atoms: C_29  and  O_30 
REMARK   13  A    between atoms: C_32  and  O_33 
ROOT
ATOM      1  C   UNL d   1      28.454 -15.341  -1.343  0.00  0.00     0.218 C 
ENDROOT
BRANCH   1   2
ATOM      2  C   UNL d   1      29.239 -16.300  -2.386  0.00  0.00     0.040 C 
ATOM      3  C   UNL d   1      30.189 -17.238  -1.897  0.00  0.00     0.080 C 
ATOM      4  C   UNL d   1      31.028 -18.010  -2.728  0.00  0.00     0.073 C 
ATOM      5  C   UNL d   1      30.968 -17.876  -4.096  0.00  0.00     0.071 C 
ATOM      6  C   UNL d   1      30.053 -17.030  -4.641  0.00  0.00     0.073 C 
ATOM      7  C   UNL d   1      29.154 -16.357  -3.811  0.00  0.00     0.080 C 
BRANCH   3   8
ATOM      8  O   UNL d   1      30.361 -17.592  -0.587  0.00  0.00    -0.360 OA
ATOM      9  H   UNL d   1      29.641 -18.167  -0.297  0.00  0.00     0.217 HD
ENDBRANCH   3   8
BRANCH   5  10
ATOM     10  O   UNL d   1      31.699 -18.620  -4.963  0.00  0.00    -0.361 OA
ATOM     11  H   UNL d   1      31.981 -18.045  -5.689  0.00  0.00     0.217 HD
ENDBRANCH   5  10
BRANCH   7  12
ATOM     12  O   UNL d   1      28.114 -15.949  -4.608  0.00  0.00    -0.360 OA
ATOM     13  H   UNL d   1      27.290 -16.167  -4.128  0.00  0.00     0.217 HD
ENDBRANCH   7  12
ENDBRANCH   1   2
BRANCH   1  14
ATOM     14  C   UNL d   1      28.066 -14.020  -2.126  0.00  0.00     0.246 C 
ATOM     15  O   UNL d   1      28.713 -12.984  -1.953  0.00  0.00    -0.271 OA
ATOM     16  N   UNL d   1      26.904 -14.056  -2.935  0.00  0.00    -0.351 N 
ATOM     17  H   UNL d   1      26.654 -14.942  -3.372  0.00  0.00     0.163 HD
BRANCH  16  18
ATOM     18  C   UNL d   1      26.499 -12.851  -3.710  0.00  0.00     0.022 C 
ATOM     19  C   UNL d   1      27.578 -12.458  -4.739  0.00  0.00     0.037 C 
ATOM     20  C   UNL d   1      25.155 -13.114  -4.404  0.00  0.00     0.037 C 
ATOM     21  C   UNL d   1      26.322 -11.638  -2.770  0.00  0.00     0.037 C 
ENDBRANCH  16  18
ENDBRANCH   1  14
BRANCH   1  22
ATOM     22  N   UNL d   1      27.119 -15.804  -0.708  0.00  0.00    -0.330 N 
ATOM     23  C   UNL d   1      26.083 -16.367  -1.495  0.00  0.00     0.254 C 
ATOM     24  O   UNL d   1      26.148 -16.454  -2.735  0.00  0.00    -0.267 OA
BRANCH  22  25
ATOM     25  C   UNL d   1      27.043 -15.606   0.713  0.00  0.00     0.127 C 
BRANCH  25  26
ATOM     26  C   UNL d   1      27.382 -14.358   1.438  0.00  0.00     0.020 C 
BRANCH  26  27
ATOM     27  C   UNL d   1      28.321 -14.332   2.615  0.00  0.00     0.002 C 
BRANCH  27  28
ATOM     28  C   UNL d   1      27.404 -14.039   3.805  0.00  0.00    -0.000 C 
BRANCH  28  29
ATOM     29  C   UNL d   1      27.797 -14.828   5.021  0.00  0.00    -0.005 C 
ATOM     30  C   UNL d   1      28.830 -14.059   5.821  0.00  0.00     0.005 C 
ENDBRANCH  28  29
ENDBRANCH  27  28
ENDBRANCH  26  27
ENDBRANCH  25  26
ENDBRANCH  22  25
BRANCH  23  31
ATOM     31  C   UNL d   1      24.850 -16.963  -0.888  0.00  0.00     0.032 C 
ATOM     32  C   UNL d   1      24.871 -18.264  -0.366  0.00  0.00     0.020 C 
ATOM     33  C   UNL d   1      23.666 -18.950  -0.145  0.00  0.00     0.043 C 
ATOM     34  C   UNL d   1      22.462 -18.269  -0.223  0.00  0.00     0.116 C 
ATOM     35  F   UNL d   1      21.315 -18.932  -0.019  0.00  0.00    -0.206 F 
ATOM     36  C   UNL d   1      22.443 -16.912  -0.523  0.00  0.00     0.043 C 
ATOM     37  C   UNL d   1      23.633 -16.264  -0.901  0.00  0.00     0.020 C 
ENDBRANCH  23  31
ENDBRANCH   1  22
TORSDOF 13
ENDMDL
MODEL 6
REMARK VINA RESULT:    -6.261      2.859      6.440
REMARK INTER + INTRA:         -14.576
REMARK INTER:                 -10.139
REMARK INTRA:                  -4.437
REMARK CONF_INDEPENDENT:        3.878
REMARK UNBOUND:                -4.437
REMARK  13 active torsions:
REMARK  status: ('A' for Active; 'I' for Inactive)
REMARK    1  A    between atoms: C_2  and  C_3 
REMARK    2  A    between atoms: C_3  and  C_4 
REMARK    3  A    between atoms: C_4  and  C_5 
REMARK    4  A    between atoms: C_5  and  C_6 
REMARK    5  A    between atoms: C_6  and  N_7 
REMARK       I    between atoms: N_7  and  C_8 
REMARK    6  A    between atoms: C_17  and  N_7 
REMARK    7  A    between atoms: C_8  and  C_10 
REMARK    8  A    between atoms: C_17  and  C_25 
REMARK    9  A    between atoms: C_17  and  C_18 
REMARK       I    between atoms: C_18  and  N_20 
REMARK   10  A    between atoms: N_20  and  C_21 
REMARK   11  A    between atoms: C_26  and  O_27 
REMARK   12  A    between atoms: C_29  and  O_30 
REMARK   13  A    between atoms: C_32  and  O_33 
ROOT
ATOM      1  C   UNL d   1      27.085 -15.517  -1.714  0.00  0.00     0.218 C 
ENDROOT
BRANCH   1   2
ATOM      2  C   UNL d   1      26.576 -14.199  -2.506  0.00  0.00     0.040 C 
ATOM      3  C   UNL d   1      26.027 -14.334  -3.811  0.00  0.00     0.080 C 
ATOM      4  C   UNL d   1      25.694 -13.240  -4.638  0.00  0.00     0.073 C 
ATOM      5  C   UNL d   1      25.903 -11.951  -4.207  0.00  0.00     0.071 C 
ATOM      6  C   UNL d   1      26.385 -11.740  -2.952  0.00  0.00     0.073 C 
ATOM      7  C   UNL d   1      26.604 -12.828  -2.104  0.00  0.00     0.080 C 
BRANCH   3   8
ATOM      8  O   UNL d   1      25.662 -15.510  -4.406  0.00  0.00    -0.360 OA
ATOM      9  H   UNL d   1      26.321 -16.194  -4.231  0.00  0.00     0.217 HD
ENDBRANCH   3   8
BRANCH   5  10
ATOM     10  O   UNL d   1      25.559 -10.849  -4.917  0.00  0.00    -0.361 OA
ATOM     11  H   UNL d   1      24.609 -10.700  -4.800  0.00  0.00     0.217 HD
ENDBRANCH   5  10
BRANCH   7  12
ATOM     12  O   UNL d   1      26.654 -12.328  -0.828  0.00  0.00    -0.360 OA
ATOM     13  H   UNL d   1      27.596 -12.151  -0.631  0.00  0.00     0.217 HD
ENDBRANCH   7  12
ENDBRANCH   1   2
BRANCH   1  14
ATOM     14  C   UNL d   1      28.425 -15.992  -2.414  0.00  0.00     0.246 C 
ATOM     15  O   UNL d   1      28.443 -16.226  -3.625  0.00  0.00    -0.271 OA
ATOM     16  N   UNL d   1      29.547 -16.230  -1.584  0.00  0.00    -0.351 N 
ATOM     17  H   UNL d   1      29.642 -15.673  -0.736  0.00  0.00     0.163 HD
BRANCH  16  18
ATOM     18  C   UNL d   1      30.840 -16.660  -2.186  0.00  0.00     0.022 C 
ATOM     19  C   UNL d   1      30.694 -18.005  -2.926  0.00  0.00     0.037 C 
ATOM     20  C   UNL d   1      31.352 -15.569  -3.137  0.00  0.00     0.037 C 
ATOM     21  C   UNL d   1      31.904 -16.873  -1.087  0.00  0.00     0.037 C 
ENDBRANCH  16  18
ENDBRANCH   1  14
BRANCH   1  22
ATOM     22  N   UNL d   1      27.457 -15.433  -0.213  0.00  0.00    -0.330 N 
ATOM     23  C   UNL d   1      28.337 -14.434   0.274  0.00  0.00     0.254 C 
ATOM     24  O   UNL d   1      28.917 -13.623  -0.471  0.00  0.00    -0.267 OA
BRANCH  22  25
ATOM     25  C   UNL d   1      26.841 -16.441   0.604  0.00  0.00     0.127 C 
BRANCH  25  26
ATOM     26  C   UNL d   1      26.469 -17.809   0.168  0.00  0.00     0.020 C 
BRANCH  26  27
ATOM     27  C   UNL d   1      25.049 -18.208  -0.132  0.00  0.00     0.002 C 
BRANCH  27  28
ATOM     28  C   UNL d   1      24.376 -16.888  -0.522  0.00  0.00    -0.000 C 
BRANCH  28  29
ATOM     29  C   UNL d   1      22.898 -17.055  -0.728  0.00  0.00    -0.005 C 
ATOM     30  C   UNL d   1      22.509 -18.505  -0.516  0.00  0.00     0.005 C 
ENDBRANCH  28  29
ENDBRANCH  27  28
ENDBRANCH  26  27
ENDBRANCH  25  26
ENDBRANCH  22  25
BRANCH  23  31
ATOM     31  C   UNL d   1      28.591 -14.234   1.737  0.00  0.00     0.032 C 
ATOM     32  C   UNL d   1      29.897 -14.264   2.245  0.00  0.00     0.020 C 
ATOM     33  C   UNL d   1      30.112 -14.450   3.619  0.00  0.00     0.043 C 
ATOM     34  C   UNL d   1      29.043 -14.373   4.499  0.00  0.00     0.116 C 
ATOM     35  F   UNL d   1      29.254 -14.559   5.809  0.00  0.00    -0.206 F 
ATOM     36  C   UNL d   1      27.763 -14.118   4.024  0.00  0.00     0.043 C 
ATOM     37  C   UNL d   1      27.523 -14.092   2.638  0.00  0.00     0.020 C 
ENDBRANCH  23  31
ENDBRANCH   1  22
TORSDOF 13
ENDMDL
MODEL 7
REMARK VINA RESULT:    -6.148      2.853      6.702
REMARK INTER + INTRA:         -14.629
REMARK INTER:                 -10.025
REMARK INTRA:                  -4.603
REMARK CONF_INDEPENDENT:        3.878
REMARK UNBOUND:                -4.603
REMARK  13 active torsions:
REMARK  status: ('A' for Active; 'I' for Inactive)
REMARK    1  A    between atoms: C_2  and  C_3 
REMARK    2  A    between atoms: C_3  and  C_4 
REMARK    3  A    between atoms: C_4  and  C_5 
REMARK    4  A    between atoms: C_5  and  C_6 
REMARK    5  A    between atoms: C_6  and  N_7 
REMARK       I    between atoms: N_7  and  C_8 
REMARK    6  A    between atoms: C_17  and  N_7 
REMARK    7  A    between atoms: C_8  and  C_10 
REMARK    8  A    between atoms: C_17  and  C_25 
REMARK    9  A    between atoms: C_17  and  C_18 
REMARK       I    between atoms: C_18  and  N_20 
REMARK   10  A    between atoms: N_20  and  C_21 
REMARK   11  A    between atoms: C_26  and  O_27 
REMARK   12  A    between atoms: C_29  and  O_30 
REMARK   13  A    between atoms: C_32  and  O_33 
ROOT
ATOM      1  C   UNL d   1      26.508 -15.363  -0.557  0.00  0.00     0.218 C 
ENDROOT
BRANCH   1   2
ATOM      2  C   UNL d   1      25.414 -16.555  -0.625  0.00  0.00     0.040 C 
ATOM      3  C   UNL d   1      24.169 -16.327  -1.273  0.00  0.00     0.080 C 
ATOM      4  C   UNL d   1      23.097 -17.245  -1.258  0.00  0.00     0.073 C 
ATOM      5  C   UNL d   1      23.211 -18.438  -0.582  0.00  0.00     0.071 C 
ATOM      6  C   UNL d   1      24.387 -18.746   0.027  0.00  0.00     0.073 C 
ATOM      7  C   UNL d   1      25.476 -17.879  -0.092  0.00  0.00     0.080 C 
BRANCH   3   8
ATOM      8  O   UNL d   1      23.866 -15.255  -2.067  0.00  0.00    -0.360 OA
ATOM      9  H   UNL d   1      24.275 -15.355  -2.937  0.00  0.00     0.217 HD
ENDBRANCH   3   8
BRANCH   5  10
ATOM     10  O   UNL d   1      22.250 -19.394  -0.567  0.00  0.00    -0.361 OA
ATOM     11  H   UNL d   1      22.369 -19.928   0.232  0.00  0.00     0.217 HD
ENDBRANCH   5  10
BRANCH   7  12
ATOM     12  O   UNL d   1      26.595 -18.609   0.216  0.00  0.00    -0.360 OA
ATOM     13  H   UNL d   1      27.243 -17.983   0.599  0.00  0.00     0.217 HD
ENDBRANCH   7  12
ENDBRANCH   1   2
BRANCH   1  14
ATOM     14  C   UNL d   1      27.936 -16.045  -0.483  0.00  0.00     0.246 C 
ATOM     15  O   UNL d   1      28.439 -16.314   0.611  0.00  0.00    -0.271 OA
ATOM     16  N   UNL d   1      28.636 -16.231  -1.700  0.00  0.00    -0.351 N 
ATOM     17  H   UNL d   1      28.090 -16.394  -2.546  0.00  0.00     0.163 HD
BRANCH  16  18
ATOM     18  C   UNL d   1      29.974 -16.884  -1.697  0.00  0.00     0.022 C 
ATOM     19  C   UNL d   1      29.953 -18.203  -0.897  0.00  0.00     0.037 C 
ATOM     20  C   UNL d   1      30.429 -17.132  -3.142  0.00  0.00     0.037 C 
ATOM     21  C   UNL d   1      31.020 -15.972  -1.017  0.00  0.00     0.037 C 
ENDBRANCH  16  18
ENDBRANCH   1  14
BRANCH   1  22
ATOM     22  N   UNL d   1      26.637 -14.353  -1.725  0.00  0.00    -0.330 N 
ATOM     23  C   UNL d   1      26.480 -14.759  -3.073  0.00  0.00     0.254 C 
ATOM     24  O   UNL d   1      26.306 -15.946  -3.405  0.00  0.00    -0.267 OA
BRANCH  22  25
ATOM     25  C   UNL d   1      26.928 -13.008  -1.310  0.00  0.00     0.127 C 
BRANCH  25  26
ATOM     26  C   UNL d   1      27.458 -12.599   0.013  0.00  0.00     0.020 C 
BRANCH  26  27
ATOM     27  C   UNL d   1      26.656 -12.716   1.281  0.00  0.00     0.002 C 
BRANCH  27  28
ATOM     28  C   UNL d   1      27.452 -13.716   2.125  0.00  0.00    -0.000 C 
BRANCH  28  29
ATOM     29  C   UNL d   1      27.589 -13.260   3.549  0.00  0.00    -0.005 C 
ATOM     30  C   UNL d   1      27.789 -14.460   4.455  0.00  0.00     0.005 C 
ENDBRANCH  28  29
ENDBRANCH  27  28
ENDBRANCH  26  27
ENDBRANCH  25  26
ENDBRANCH  22  25
BRANCH  23  31
ATOM     31  C   UNL d   1      26.445 -13.779  -4.206  0.00  0.00     0.032 C 
ATOM     32  C   UNL d   1      27.355 -13.885  -5.267  0.00  0.00     0.020 C 
ATOM     33  C   UNL d   1      27.573 -12.788  -6.116  0.00  0.00     0.043 C 
ATOM     34  C   UNL d   1      26.730 -11.690  -6.051  0.00  0.00     0.116 C 
ATOM     35  F   UNL d   1      26.949 -10.643  -6.859  0.00  0.00    -0.206 F 
ATOM     36  C   UNL d   1      25.675 -11.669  -5.147  0.00  0.00     0.043 C 
ATOM     37  C   UNL d   1      25.555 -12.693  -4.190  0.00  0.00     0.020 C 
ENDBRANCH  23  31
ENDBRANCH   1  22
TORSDOF 13
ENDMDL
MODEL 8
REMARK VINA RESULT:    -6.018      3.053      7.397
REMARK INTER + INTRA:         -14.742
REMARK INTER:                  -9.896
REMARK INTRA:                  -4.846
REMARK CONF_INDEPENDENT:        3.878
REMARK UNBOUND:                -4.846
REMARK  13 active torsions:
REMARK  status: ('A' for Active; 'I' for Inactive)
REMARK    1  A    between atoms: C_2  and  C_3 
REMARK    2  A    between atoms: C_3  and  C_4 
REMARK    3  A    between atoms: C_4  and  C_5 
REMARK    4  A    between atoms: C_5  and  C_6 
REMARK    5  A    between atoms: C_6  and  N_7 
REMARK       I    between atoms: N_7  and  C_8 
REMARK    6  A    between atoms: C_17  and  N_7 
REMARK    7  A    between atoms: C_8  and  C_10 
REMARK    8  A    between atoms: C_17  and  C_25 
REMARK    9  A    between atoms: C_17  and  C_18 
REMARK       I    between atoms: C_18  and  N_20 
REMARK   10  A    between atoms: N_20  and  C_21 
REMARK   11  A    between atoms: C_26  and  O_27 
REMARK   12  A    between atoms: C_29  and  O_30 
REMARK   13  A    between atoms: C_32  and  O_33 
ROOT
ATOM      1  C   UNL d   1      27.698 -15.925  -1.043  0.00  0.00     0.218 C 
ENDROOT
BRANCH   1   2
ATOM      2  C   UNL d   1      26.295 -16.721  -0.900  0.00  0.00     0.040 C 
ATOM      3  C   UNL d   1      26.158 -17.727   0.096  0.00  0.00     0.080 C 
ATOM      4  C   UNL d   1      25.035 -18.574   0.206  0.00  0.00     0.073 C 
ATOM      5  C   UNL d   1      23.992 -18.468  -0.685  0.00  0.00     0.071 C 
ATOM      6  C   UNL d   1      24.031 -17.501  -1.640  0.00  0.00     0.073 C 
ATOM      7  C   UNL d   1      25.095 -16.597  -1.667  0.00  0.00     0.080 C 
BRANCH   3   8
ATOM      8  O   UNL d   1      27.027 -17.953   1.128  0.00  0.00    -0.360 OA
ATOM      9  H   UNL d   1      27.921 -18.093   0.789  0.00  0.00     0.217 HD
ENDBRANCH   3   8
BRANCH   5  10
ATOM     10  O   UNL d   1      22.856 -19.205  -0.613  0.00  0.00    -0.361 OA
ATOM     11  H   UNL d   1      22.868 -19.695   0.222  0.00  0.00     0.217 HD
ENDBRANCH   5  10
BRANCH   7  12
ATOM     12  O   UNL d   1      24.676 -15.517  -2.401  0.00  0.00    -0.360 OA
ATOM     13  H   UNL d   1      24.877 -14.720  -1.870  0.00  0.00     0.217 HD
ENDBRANCH   7  12
ENDBRANCH   1   2
BRANCH   1  14
ATOM     14  C   UNL d   1      27.877 -15.570  -2.577  0.00  0.00     0.246 C 
ATOM     15  O   UNL d   1      28.703 -16.179  -3.262  0.00  0.00    -0.271 OA
ATOM     16  N   UNL d   1      27.137 -14.475  -3.085  0.00  0.00    -0.351 N 
ATOM     17  H   UNL d   1      26.227 -14.278  -2.669  0.00  0.00     0.163 HD
BRANCH  16  18
ATOM     18  C   UNL d   1      27.250 -14.105  -4.524  0.00  0.00     0.022 C 
ATOM     19  C   UNL d   1      28.718 -13.863  -4.927  0.00  0.00     0.037 C 
ATOM     20  C   UNL d   1      26.622 -15.207  -5.388  0.00  0.00     0.037 C 
ATOM     21  C   UNL d   1      26.491 -12.788  -4.804  0.00  0.00     0.037 C 
ENDBRANCH  16  18
ENDBRANCH   1  14
BRANCH   1  22
ATOM     22  N   UNL d   1      27.907 -14.572  -0.320  0.00  0.00    -0.330 N 
ATOM     23  C   UNL d   1      26.936 -13.542  -0.387  0.00  0.00     0.254 C 
ATOM     24  O   UNL d   1      25.907 -13.628  -1.081  0.00  0.00    -0.267 OA
BRANCH  22  25
ATOM     25  C   UNL d   1      29.148 -14.473   0.398  0.00  0.00     0.127 C 
BRANCH  25  26
ATOM     26  C   UNL d   1      29.301 -14.451   1.873  0.00  0.00     0.020 C 
BRANCH  26  27
ATOM     27  C   UNL d   1      28.148 -14.684   2.813  0.00  0.00     0.002 C 
BRANCH  27  28
ATOM     28  C   UNL d   1      28.671 -14.179   4.161  0.00  0.00    -0.000 C 
BRANCH  28  29
ATOM     29  C   UNL d   1      27.552 -13.799   5.088  0.00  0.00    -0.005 C 
ATOM     30  C   UNL d   1      27.913 -12.532   5.838  0.00  0.00     0.005 C 
ENDBRANCH  28  29
ENDBRANCH  27  28
ENDBRANCH  26  27
ENDBRANCH  25  26
ENDBRANCH  22  25
BRANCH  23  31
ATOM     31  C   UNL d   1      27.041 -12.288   0.427  0.00  0.00     0.032 C 
ATOM     32  C   UNL d   1      27.846 -11.224  -0.005  0.00  0.00     0.020 C 
ATOM     33  C   UNL d   1      28.238 -10.229   0.904  0.00  0.00     0.043 C 
ATOM     34  C   UNL d   1      27.648 -10.169   2.157  0.00  0.00     0.116 C 
ATOM     35  F   UNL d   1      28.033  -9.221   3.022  0.00  0.00    -0.206 F 
ATOM     36  C   UNL d   1      26.676 -11.094   2.517  0.00  0.00     0.043 C 
ATOM     37  C   UNL d   1      26.400 -12.184   1.671  0.00  0.00     0.020 C 
ENDBRANCH  23  31
ENDBRANCH   1  22
TORSDOF 13
ENDMDL
MODEL 9
REMARK VINA RESULT:    -5.776      2.065      4.166
REMARK INTER + INTRA:         -14.563
REMARK INTER:                  -9.654
REMARK INTRA:                  -4.910
REMARK CONF_INDEPENDENT:        3.878
REMARK UNBOUND:                -4.910
REMARK  13 active torsions:
REMARK  status: ('A' for Active; 'I' for Inactive)
REMARK    1  A    between atoms: C_2  and  C_3 
REMARK    2  A    between atoms: C_3  and  C_4 
REMARK    3  A    between atoms: C_4  and  C_5 
REMARK    4  A    between atoms: C_5  and  C_6 
REMARK    5  A    between atoms: C_6  and  N_7 
REMARK       I    between atoms: N_7  and  C_8 
REMARK    6  A    between atoms: C_17  and  N_7 
REMARK    7  A    between atoms: C_8  and  C_10 
REMARK    8  A    between atoms: C_17  and  C_25 
REMARK    9  A    between atoms: C_17  and  C_18 
REMARK       I    between atoms: C_18  and  N_20 
REMARK   10  A    between atoms: N_20  and  C_21 
REMARK   11  A    between atoms: C_26  and  O_27 
REMARK   12  A    between atoms: C_29  and  O_30 
REMARK   13  A    between atoms: C_32  and  O_33 
ROOT
ATOM      1  C   UNL d   1      28.930 -14.507  -1.111  0.00  0.00     0.218 C 
ENDROOT
BRANCH   1   2
ATOM      2  C   UNL d   1      29.944 -14.902   0.089  0.00  0.00     0.040 C 
ATOM      3  C   UNL d   1      30.082 -14.030   1.205  0.00  0.00     0.080 C 
ATOM      4  C   UNL d   1      31.041 -14.208   2.224  0.00  0.00     0.073 C 
ATOM      5  C   UNL d   1      31.923 -15.263   2.176  0.00  0.00     0.071 C 
ATOM      6  C   UNL d   1      31.824 -16.164   1.162  0.00  0.00     0.073 C 
ATOM      7  C   UNL d   1      30.799 -16.039   0.222  0.00  0.00     0.080 C 
BRANCH   3   8
ATOM      8  O   UNL d   1      29.266 -12.972   1.498  0.00  0.00    -0.360 OA
ATOM      9  H   UNL d   1      29.726 -12.342   2.068  0.00  0.00     0.217 HD
ENDBRANCH   3   8
BRANCH   5  10
ATOM     10  O   UNL d   1      32.834 -15.534   3.142  0.00  0.00    -0.361 OA
ATOM     11  H   UNL d   1      32.618 -14.996   3.918  0.00  0.00     0.217 HD
ENDBRANCH   5  10
BRANCH   7  12
ATOM     12  O   UNL d   1      30.669 -17.263  -0.383  0.00  0.00    -0.360 OA
ATOM     13  H   UNL d   1      30.152 -17.826   0.228  0.00  0.00     0.217 HD
ENDBRANCH   7  12
ENDBRANCH   1   2
BRANCH   1  14
ATOM     14  C   UNL d   1      29.625 -14.940  -2.468  0.00  0.00     0.246 C 
ATOM     15  O   UNL d   1      29.978 -14.084  -3.283  0.00  0.00    -0.271 OA
ATOM     16  N   UNL d   1      29.722 -16.326  -2.740  0.00  0.00    -0.351 N 
ATOM     17  H   UNL d   1      29.816 -16.963  -1.950  0.00  0.00     0.163 HD
BRANCH  16  18
ATOM     18  C   UNL d   1      30.381 -16.794  -3.991  0.00  0.00     0.022 C 
ATOM     19  C   UNL d   1      29.612 -16.320  -5.241  0.00  0.00     0.037 C 
ATOM     20  C   UNL d   1      31.833 -16.296  -4.023  0.00  0.00     0.037 C 
ATOM     21  C   UNL d   1      30.405 -18.338  -4.045  0.00  0.00     0.037 C 
ENDBRANCH  16  18
ENDBRANCH   1  14
BRANCH   1  22
ATOM     22  N   UNL d   1      27.524 -15.152  -1.190  0.00  0.00    -0.330 N 
ATOM     23  C   UNL d   1      27.330 -16.534  -0.944  0.00  0.00     0.254 C 
ATOM     24  O   UNL d   1      28.271 -17.320  -0.727  0.00  0.00    -0.267 OA
BRANCH  22  25
ATOM     25  C   UNL d   1      26.473 -14.233  -1.531  0.00  0.00     0.127 C 
BRANCH  25  26
ATOM     26  C   UNL d   1      26.653 -12.888  -2.130  0.00  0.00     0.020 C 
BRANCH  26  27
ATOM     27  C   UNL d   1      25.688 -12.309  -3.130  0.00  0.00     0.002 C 
BRANCH  27  28
ATOM     28  C   UNL d   1      25.179 -13.534  -3.896  0.00  0.00    -0.000 C 
BRANCH  28  29
ATOM     29  C   UNL d   1      26.238 -14.112  -4.790  0.00  0.00    -0.005 C 
ATOM     30  C   UNL d   1      25.942 -15.575  -5.057  0.00  0.00     0.005 C 
ENDBRANCH  28  29
ENDBRANCH  27  28
ENDBRANCH  26  27
ENDBRANCH  25  26
ENDBRANCH  22  25
BRANCH  23  31
ATOM     31  C   UNL d   1      25.967 -17.149  -0.861  0.00  0.00     0.032 C 
ATOM     32  C   UNL d   1      25.029 -16.943  -1.882  0.00  0.00     0.020 C 
ATOM     33  C   UNL d   1      23.667 -17.192  -1.644  0.00  0.00     0.043 C 
ATOM     34  C   UNL d   1      23.280 -17.855  -0.491  0.00  0.00     0.116 C 
ATOM     35  F   UNL d   1      21.978 -18.082  -0.267  0.00  0.00    -0.206 F 
ATOM     36  C   UNL d   1      24.233 -18.268   0.433  0.00  0.00     0.043 C 
ATOM     37  C   UNL d   1      25.575 -17.878   0.274  0.00  0.00     0.020 C 
ENDBRANCH  23  31
ENDBRANCH   1  22
TORSDOF 13
ENDMDL
