MODEL 1
REMARK VINA RESULT:    -8.345      0.000      0.000
REMARK INTER + INTRA:         -10.071
REMARK INTER:                  -9.240
REMARK INTRA:                  -0.831
REMARK CONF_INDEPENDENT:        0.895
REMARK UNBOUND:                -0.831
REMARK  3 active torsions:
REMARK  status: ('A' for Active; 'I' for Inactive)
REMARK       I    between atoms: C_2  and  N_3 
REMARK    1  A    between atoms: C_2  and  C_12 
REMARK    2  A    between atoms: N_3  and  C_4 
REMARK    3  A    between atoms: C_17  and  O_18 
ROOT
ATOM      1  O   UNL d   1      22.376 -18.809  -1.519  0.00  0.00    -0.267 OA
ATOM      2  C   UNL d   1      22.210 -18.809  -0.296  0.00  0.00     0.259 C 
ATOM      3  N   UNL d   1      23.152 -18.340   0.622  0.00  0.00    -0.321 N 
ATOM      4  H   UNL d   1      23.073 -18.645   1.587  0.00  0.00     0.169 HD
ENDROOT
BRANCH   2   5
ATOM      5  C   UNL d   1      20.955 -19.390   0.243  0.00  0.00     0.065 A 
ATOM      6  C   UNL d   1      20.664 -19.329   1.613  0.00  0.00     0.020 A 
ATOM      7  C   UNL d   1      19.451 -19.841   2.091  0.00  0.00     0.001 A 
ATOM      8  C   UNL d   1      18.529 -20.411   1.209  0.00  0.00     0.003 A 
ATOM      9  C   UNL d   1      18.801 -20.453  -0.157  0.00  0.00     0.037 A 
ATOM     10  C   UNL d   1      20.007 -19.938  -0.637  0.00  0.00     0.081 A 
BRANCH  10  11
ATOM     11  O   UNL d   1      20.277 -20.007  -1.976  0.00  0.00    -0.360 OA
ATOM     12  H   UNL d   1      20.389 -19.120  -2.350  0.00  0.00     0.217 HD
ENDBRANCH  10  11
ENDBRANCH   2   5
BRANCH   3  13
ATOM     13  C   UNL d   1      24.433 -17.903   0.168  0.00  0.00     0.058 A 
ATOM     14  C   UNL d   1      25.573 -18.576   0.630  0.00  0.00     0.031 A 
ATOM     15  C   UNL d   1      26.855 -18.152   0.295  0.00  0.00     0.004 A 
ATOM     16  C   UNL d   1      27.019 -17.050  -0.535  0.00  0.00     0.026 A 
ATOM     17  C   UNL d   1      25.897 -16.384  -1.043  0.00  0.00     0.058 A 
ATOM     18 CL   UNL d   1      26.201 -15.028  -2.078  0.00  0.00    -0.082 Cl
ATOM     19  C   UNL d   1      24.596 -16.811  -0.706  0.00  0.00     0.082 A 
ATOM     20 CL   UNL d   1      23.201 -15.949  -1.274  0.00  0.00    -0.080 Cl
ENDBRANCH   3  13
TORSDOF 3
ENDMDL
MODEL 2
REMARK VINA RESULT:    -7.927      1.535      2.087
REMARK INTER + INTRA:          -9.932
REMARK INTER:                  -8.822
REMARK INTRA:                  -1.110
REMARK CONF_INDEPENDENT:        0.895
REMARK UNBOUND:                -1.110
REMARK  3 active torsions:
REMARK  status: ('A' for Active; 'I' for Inactive)
REMARK       I    between atoms: C_2  and  N_3 
REMARK    1  A    between atoms: C_2  and  C_12 
REMARK    2  A    between atoms: N_3  and  C_4 
REMARK    3  A    between atoms: C_17  and  O_18 
ROOT
ATOM      1  O   UNL d   1      22.819 -18.957  -1.970  0.00  0.00    -0.267 OA
ATOM      2  C   UNL d   1      22.425 -18.404  -0.940  0.00  0.00     0.259 C 
ATOM      3  N   UNL d   1      23.004 -17.255  -0.399  0.00  0.00    -0.321 N 
ATOM      4  H   UNL d   1      22.827 -17.045   0.579  0.00  0.00     0.169 HD
ENDROOT
BRANCH   2   5
ATOM      5  C   UNL d   1      21.300 -19.023  -0.196  0.00  0.00     0.065 A 
ATOM      6  C   UNL d   1      21.235 -18.950   1.202  0.00  0.00     0.020 A 
ATOM      7  C   UNL d   1      20.138 -19.500   1.879  0.00  0.00     0.001 A 
ATOM      8  C   UNL d   1      19.108 -20.118   1.166  0.00  0.00     0.003 A 
ATOM      9  C   UNL d   1      19.153 -20.171  -0.226  0.00  0.00     0.037 A 
ATOM     10  C   UNL d   1      20.243 -19.619  -0.903  0.00  0.00     0.081 A 
BRANCH  10  11
ATOM     11  O   UNL d   1      20.292 -19.700  -2.268  0.00  0.00    -0.360 OA
ATOM     12  H   UNL d   1      21.198 -19.573  -2.587  0.00  0.00     0.217 HD
ENDBRANCH  10  11
ENDBRANCH   2   5
BRANCH   3  13
ATOM     13  C   UNL d   1      24.177 -16.700  -0.993  0.00  0.00     0.058 A 
ATOM     14  C   UNL d   1      24.027 -15.735  -1.999  0.00  0.00     0.031 A 
ATOM     15  C   UNL d   1      25.124 -15.214  -2.678  0.00  0.00     0.004 A 
ATOM     16  C   UNL d   1      26.404 -15.637  -2.343  0.00  0.00     0.026 A 
ATOM     17  C   UNL d   1      26.585 -16.570  -1.314  0.00  0.00     0.058 A 
ATOM     18 CL   UNL d   1      28.218 -17.027  -0.960  0.00  0.00    -0.082 Cl
ATOM     19  C   UNL d   1      25.476 -17.100  -0.624  0.00  0.00     0.082 A 
ATOM     20 CL   UNL d   1      25.687 -18.308   0.605  0.00  0.00    -0.080 Cl
ENDBRANCH   3  13
TORSDOF 3
ENDMDL
MODEL 3
REMARK VINA RESULT:    -6.368      4.653      8.068
REMARK INTER + INTRA:          -8.319
REMARK INTER:                  -7.262
REMARK INTRA:                  -1.057
REMARK CONF_INDEPENDENT:        0.895
REMARK UNBOUND:                -1.057
REMARK  3 active torsions:
REMARK  status: ('A' for Active; 'I' for Inactive)
REMARK       I    between atoms: C_2  and  N_3 
REMARK    1  A    between atoms: C_2  and  C_12 
REMARK    2  A    between atoms: N_3  and  C_4 
REMARK    3  A    between atoms: C_17  and  O_18 
ROOT
ATOM      1  O   UNL d   1      25.531 -15.942  -4.537  0.00  0.00    -0.267 OA
ATOM      2  C   UNL d   1      25.935 -14.921  -3.972  0.00  0.00     0.259 C 
ATOM      3  N   UNL d   1      25.986 -14.764  -2.586  0.00  0.00    -0.321 N 
ATOM      4  H   UNL d   1      26.037 -13.820  -2.213  0.00  0.00     0.169 HD
ENDROOT
BRANCH   2   5
ATOM      5  C   UNL d   1      26.344 -13.768  -4.811  0.00  0.00     0.065 A 
ATOM      6  C   UNL d   1      25.790 -12.497  -4.607  0.00  0.00     0.020 A 
ATOM      7  C   UNL d   1      26.227 -11.413  -5.380  0.00  0.00     0.001 A 
ATOM      8  C   UNL d   1      27.215 -11.593  -6.351  0.00  0.00     0.003 A 
ATOM      9  C   UNL d   1      27.789 -12.849  -6.542  0.00  0.00     0.037 A 
ATOM     10  C   UNL d   1      27.358 -13.929  -5.770  0.00  0.00     0.081 A 
BRANCH  10  11
ATOM     11  O   UNL d   1      27.908 -15.164  -5.982  0.00  0.00    -0.360 OA
ATOM     12  H   UNL d   1      27.497 -15.827  -5.408  0.00  0.00     0.217 HD
ENDBRANCH  10  11
ENDBRANCH   2   5
BRANCH   3  13
ATOM     13  C   UNL d   1      25.471 -15.785  -1.732  0.00  0.00     0.058 A 
ATOM     14  C   UNL d   1      24.081 -15.955  -1.653  0.00  0.00     0.031 A 
ATOM     15  C   UNL d   1      23.509 -16.875  -0.779  0.00  0.00     0.004 A 
ATOM     16  C   UNL d   1      24.326 -17.663   0.021  0.00  0.00     0.026 A 
ATOM     17  C   UNL d   1      25.719 -17.542  -0.068  0.00  0.00     0.058 A 
ATOM     18 CL   UNL d   1      26.655 -18.575   0.960  0.00  0.00    -0.082 Cl
ATOM     19  C   UNL d   1      26.302 -16.611  -0.952  0.00  0.00     0.082 A 
ATOM     20 CL   UNL d   1      28.025 -16.406  -1.017  0.00  0.00    -0.080 Cl
ENDBRANCH   3  13
TORSDOF 3
ENDMDL
MODEL 4
REMARK VINA RESULT:    -6.181      4.282      7.663
REMARK INTER + INTRA:          -7.996
REMARK INTER:                  -7.076
REMARK INTRA:                  -0.920
REMARK CONF_INDEPENDENT:        0.895
REMARK UNBOUND:                -0.920
REMARK  3 active torsions:
REMARK  status: ('A' for Active; 'I' for Inactive)
REMARK       I    between atoms: C_2  and  N_3 
REMARK    1  A    between atoms: C_2  and  C_12 
REMARK    2  A    between atoms: N_3  and  C_4 
REMARK    3  A    between atoms: C_17  and  O_18 
ROOT
ATOM      1  O   UNL d   1      26.208 -13.719  -0.895  0.00  0.00    -0.267 OA
ATOM      2  C   UNL d   1      25.769 -13.889  -2.036  0.00  0.00     0.259 C 
ATOM      3  N   UNL d   1      25.068 -15.026  -2.442  0.00  0.00    -0.321 N 
ATOM      4  H   UNL d   1      25.011 -15.223  -3.437  0.00  0.00     0.169 HD
ENDROOT
BRANCH   2   5
ATOM      5  C   UNL d   1      26.045 -12.849  -3.058  0.00  0.00     0.065 A 
ATOM      6  C   UNL d   1      26.846 -11.739  -2.757  0.00  0.00     0.020 A 
ATOM      7  C   UNL d   1      27.132 -10.795  -3.752  0.00  0.00     0.001 A 
ATOM      8  C   UNL d   1      26.623 -10.956  -5.043  0.00  0.00     0.003 A 
ATOM      9  C   UNL d   1      25.847 -12.071  -5.357  0.00  0.00     0.037 A 
ATOM     10  C   UNL d   1      25.565 -13.016  -4.367  0.00  0.00     0.081 A 
BRANCH  10  11
ATOM     11  O   UNL d   1      24.780 -14.093  -4.677  0.00  0.00    -0.360 OA
ATOM     12  H   UNL d   1      23.916 -13.804  -5.007  0.00  0.00     0.217 HD
ENDBRANCH  10  11
ENDBRANCH   2   5
BRANCH   3  13
ATOM     13  C   UNL d   1      24.900 -16.120  -1.541  0.00  0.00     0.058 A 
ATOM     14  C   UNL d   1      23.603 -16.444  -1.115  0.00  0.00     0.031 A 
ATOM     15  C   UNL d   1      23.374 -17.443  -0.174  0.00  0.00     0.004 A 
ATOM     16  C   UNL d   1      24.447 -18.157   0.345  0.00  0.00     0.026 A 
ATOM     17  C   UNL d   1      25.748 -17.881  -0.092  0.00  0.00     0.058 A 
ATOM     18 CL   UNL d   1      27.019 -18.830   0.604  0.00  0.00    -0.082 Cl
ATOM     19  C   UNL d   1      25.984 -16.869  -1.046  0.00  0.00     0.082 A 
ATOM     20 CL   UNL d   1      27.600 -16.473  -1.541  0.00  0.00    -0.080 Cl
ENDBRANCH   3  13
TORSDOF 3
ENDMDL
MODEL 5
REMARK VINA RESULT:    -5.891      4.275      7.632
REMARK INTER + INTRA:          -7.821
REMARK INTER:                  -6.786
REMARK INTRA:                  -1.035
REMARK CONF_INDEPENDENT:        0.895
REMARK UNBOUND:                -1.035
REMARK  3 active torsions:
REMARK  status: ('A' for Active; 'I' for Inactive)
REMARK       I    between atoms: C_2  and  N_3 
REMARK    1  A    between atoms: C_2  and  C_12 
REMARK    2  A    between atoms: N_3  and  C_4 
REMARK    3  A    between atoms: C_17  and  O_18 
ROOT
ATOM      1  O   UNL d   1      25.745 -15.955  -3.982  0.00  0.00    -0.267 OA
ATOM      2  C   UNL d   1      26.184 -14.963  -3.393  0.00  0.00     0.259 C 
ATOM      3  N   UNL d   1      26.547 -14.952  -2.045  0.00  0.00    -0.321 N 
ATOM      4  H   UNL d   1      26.605 -14.054  -1.573  0.00  0.00     0.169 HD
ENDROOT
BRANCH   2   5
ATOM      5  C   UNL d   1      26.285 -13.687  -4.143  0.00  0.00     0.065 A 
ATOM      6  C   UNL d   1      25.812 -12.488  -3.592  0.00  0.00     0.020 A 
ATOM      7  C   UNL d   1      25.963 -11.288  -4.299  0.00  0.00     0.001 A 
ATOM      8  C   UNL d   1      26.584 -11.281  -5.550  0.00  0.00     0.003 A 
ATOM      9  C   UNL d   1      27.081 -12.465  -6.093  0.00  0.00     0.037 A 
ATOM     10  C   UNL d   1      26.936 -13.661  -5.388  0.00  0.00     0.081 A 
BRANCH  10  11
ATOM     11  O   UNL d   1      27.402 -14.823  -5.940  0.00  0.00    -0.360 OA
ATOM     12  H   UNL d   1      26.746 -15.530  -5.856  0.00  0.00     0.217 HD
ENDBRANCH  10  11
ENDBRANCH   2   5
BRANCH   3  13
ATOM     13  C   UNL d   1      26.335 -16.111  -1.239  0.00  0.00     0.058 A 
ATOM     14  C   UNL d   1      27.453 -16.771  -0.707  0.00  0.00     0.031 A 
ATOM     15  C   UNL d   1      27.325 -17.952   0.016  0.00  0.00     0.004 A 
ATOM     16  C   UNL d   1      26.062 -18.486   0.241  0.00  0.00     0.026 A 
ATOM     17  C   UNL d   1      24.927 -17.827  -0.244  0.00  0.00     0.058 A 
ATOM     18 CL   UNL d   1      23.396 -18.563   0.096  0.00  0.00    -0.082 Cl
ATOM     19  C   UNL d   1      25.053 -16.629  -0.978  0.00  0.00     0.082 A 
ATOM     20 CL   UNL d   1      23.656 -15.842  -1.643  0.00  0.00    -0.080 Cl
ENDBRANCH   3  13
TORSDOF 3
ENDMDL
MODEL 6
REMARK VINA RESULT:    -5.757      5.180      8.110
REMARK INTER + INTRA:          -7.623
REMARK INTER:                  -6.652
REMARK INTRA:                  -0.971
REMARK CONF_INDEPENDENT:        0.895
REMARK UNBOUND:                -0.971
REMARK  3 active torsions:
REMARK  status: ('A' for Active; 'I' for Inactive)
REMARK       I    between atoms: C_2  and  N_3 
REMARK    1  A    between atoms: C_2  and  C_12 
REMARK    2  A    between atoms: N_3  and  C_4 
REMARK    3  A    between atoms: C_17  and  O_18 
ROOT
ATOM      1  O   UNL d   1      26.399 -13.606   1.906  0.00  0.00    -0.267 OA
ATOM      2  C   UNL d   1      27.405 -14.300   2.080  0.00  0.00     0.259 C 
ATOM      3  N   UNL d   1      27.784 -15.351   1.241  0.00  0.00    -0.321 N 
ATOM      4  H   UNL d   1      28.428 -16.045   1.607  0.00  0.00     0.169 HD
ENDROOT
BRANCH   2   5
ATOM      5  C   UNL d   1      28.240 -14.042   3.279  0.00  0.00     0.065 A 
ATOM      6  C   UNL d   1      27.666 -13.562   4.465  0.00  0.00     0.020 A 
ATOM      7  C   UNL d   1      28.467 -13.372   5.599  0.00  0.00     0.001 A 
ATOM      8  C   UNL d   1      29.833 -13.661   5.554  0.00  0.00     0.003 A 
ATOM      9  C   UNL d   1      30.405 -14.163   4.386  0.00  0.00     0.037 A 
ATOM     10  C   UNL d   1      29.608 -14.358   3.256  0.00  0.00     0.081 A 
BRANCH  10  11
ATOM     11  O   UNL d   1      30.183 -14.825   2.106  0.00  0.00    -0.360 OA
ATOM     12  H   UNL d   1      30.210 -15.794   2.105  0.00  0.00     0.217 HD
ENDBRANCH  10  11
ENDBRANCH   2   5
BRANCH   3  13
ATOM     13  C   UNL d   1      26.942 -15.735   0.155  0.00  0.00     0.058 A 
ATOM     14  C   UNL d   1      26.293 -16.977   0.216  0.00  0.00     0.031 A 
ATOM     15  C   UNL d   1      25.525 -17.450  -0.843  0.00  0.00     0.004 A 
ATOM     16  C   UNL d   1      25.373 -16.672  -1.983  0.00  0.00     0.026 A 
ATOM     17  C   UNL d   1      25.977 -15.410  -2.055  0.00  0.00     0.058 A 
ATOM     18 CL   UNL d   1      25.722 -14.508  -3.511  0.00  0.00    -0.082 Cl
ATOM     19  C   UNL d   1      26.756 -14.927  -0.983  0.00  0.00     0.082 A 
ATOM     20 CL   UNL d   1      27.565 -13.395  -1.091  0.00  0.00    -0.080 Cl
ENDBRANCH   3  13
TORSDOF 3
ENDMDL
MODEL 7
REMARK VINA RESULT:    -5.666      4.461      6.574
REMARK INTER + INTRA:          -7.602
REMARK INTER:                  -6.561
REMARK INTRA:                  -1.041
REMARK CONF_INDEPENDENT:        0.895
REMARK UNBOUND:                -1.041
REMARK  3 active torsions:
REMARK  status: ('A' for Active; 'I' for Inactive)
REMARK       I    between atoms: C_2  and  N_3 
REMARK    1  A    between atoms: C_2  and  C_12 
REMARK    2  A    between atoms: N_3  and  C_4 
REMARK    3  A    between atoms: C_17  and  O_18 
ROOT
ATOM      1  O   UNL d   1      24.030 -14.450  -3.331  0.00  0.00    -0.267 OA
ATOM      2  C   UNL d   1      25.020 -14.856  -2.715  0.00  0.00     0.259 C 
ATOM      3  N   UNL d   1      26.314 -14.367  -2.905  0.00  0.00    -0.321 N 
ATOM      4  H   UNL d   1      27.092 -14.941  -2.596  0.00  0.00     0.169 HD
ENDROOT
BRANCH   2   5
ATOM      5  C   UNL d   1      24.839 -15.968  -1.749  0.00  0.00     0.065 A 
ATOM      6  C   UNL d   1      23.566 -16.305  -1.270  0.00  0.00     0.020 A 
ATOM      7  C   UNL d   1      23.415 -17.390  -0.396  0.00  0.00     0.001 A 
ATOM      8  C   UNL d   1      24.527 -18.138  -0.002  0.00  0.00     0.003 A 
ATOM      9  C   UNL d   1      25.793 -17.825  -0.496  0.00  0.00     0.037 A 
ATOM     10  C   UNL d   1      25.945 -16.747  -1.370  0.00  0.00     0.081 A 
BRANCH  10  11
ATOM     11  O   UNL d   1      27.194 -16.430  -1.828  0.00  0.00    -0.360 OA
ATOM     12  H   UNL d   1      27.829 -16.395  -1.097  0.00  0.00     0.217 HD
ENDBRANCH  10  11
ENDBRANCH   2   5
BRANCH   3  13
ATOM     13  C   UNL d   1      26.568 -13.399  -3.922  0.00  0.00     0.058 A 
ATOM     14  C   UNL d   1      25.934 -12.151  -3.833  0.00  0.00     0.031 A 
ATOM     15  C   UNL d   1      26.071 -11.191  -4.832  0.00  0.00     0.004 A 
ATOM     16  C   UNL d   1      26.871 -11.459  -5.936  0.00  0.00     0.026 A 
ATOM     17  C   UNL d   1      27.548 -12.681  -6.030  0.00  0.00     0.058 A 
ATOM     18 CL   UNL d   1      28.530 -12.918  -7.437  0.00  0.00    -0.082 Cl
ATOM     19  C   UNL d   1      27.411 -13.655  -5.020  0.00  0.00     0.082 A 
ATOM     20 CL   UNL d   1      28.190 -15.200  -5.163  0.00  0.00    -0.080 Cl
ENDBRANCH   3  13
TORSDOF 3
ENDMDL
MODEL 8
REMARK VINA RESULT:    -5.571      5.356      8.549
REMARK INTER + INTRA:          -7.631
REMARK INTER:                  -6.466
REMARK INTRA:                  -1.166
REMARK CONF_INDEPENDENT:        0.895
REMARK UNBOUND:                -1.166
REMARK  3 active torsions:
REMARK  status: ('A' for Active; 'I' for Inactive)
REMARK       I    between atoms: C_2  and  N_3 
REMARK    1  A    between atoms: C_2  and  C_12 
REMARK    2  A    between atoms: N_3  and  C_4 
REMARK    3  A    between atoms: C_17  and  O_18 
ROOT
ATOM      1  O   UNL d   1      27.291 -15.575  -5.009  0.00  0.00    -0.267 OA
ATOM      2  C   UNL d   1      27.237 -14.449  -4.506  0.00  0.00     0.259 C 
ATOM      3  N   UNL d   1      27.192 -14.209  -3.132  0.00  0.00    -0.321 N 
ATOM      4  H   UNL d   1      26.851 -13.307  -2.815  0.00  0.00     0.169 HD
ENDROOT
BRANCH   2   5
ATOM      5  C   UNL d   1      27.162 -13.277  -5.413  0.00  0.00     0.065 A 
ATOM      6  C   UNL d   1      28.013 -13.168  -6.521  0.00  0.00     0.020 A 
ATOM      7  C   UNL d   1      27.890 -12.076  -7.390  0.00  0.00     0.001 A 
ATOM      8  C   UNL d   1      26.922 -11.096  -7.158  0.00  0.00     0.003 A 
ATOM      9  C   UNL d   1      26.054 -11.211  -6.073  0.00  0.00     0.037 A 
ATOM     10  C   UNL d   1      26.172 -12.302  -5.209  0.00  0.00     0.081 A 
BRANCH  10  11
ATOM     11  O   UNL d   1      25.334 -12.392  -4.131  0.00  0.00    -0.360 OA
ATOM     12  H   UNL d   1      24.780 -11.600  -4.059  0.00  0.00     0.217 HD
ENDBRANCH  10  11
ENDBRANCH   2   5
BRANCH   3  13
ATOM     13  C   UNL d   1      27.118 -15.303  -2.218  0.00  0.00     0.058 A 
ATOM     14  C   UNL d   1      28.313 -15.859  -1.739  0.00  0.00     0.031 A 
ATOM     15  C   UNL d   1      28.315 -16.978  -0.912  0.00  0.00     0.004 A 
ATOM     16  C   UNL d   1      27.109 -17.552  -0.529  0.00  0.00     0.026 A 
ATOM     17  C   UNL d   1      25.900 -16.992  -0.961  0.00  0.00     0.058 A 
ATOM     18 CL   UNL d   1      24.449 -17.770  -0.423  0.00  0.00    -0.082 Cl
ATOM     19  C   UNL d   1      25.894 -15.858  -1.799  0.00  0.00     0.082 A 
ATOM     20 CL   UNL d   1      24.402 -15.201  -2.395  0.00  0.00    -0.080 Cl
ENDBRANCH   3  13
TORSDOF 3
ENDMDL
MODEL 9
REMARK VINA RESULT:    -5.527      4.634      6.804
REMARK INTER + INTRA:          -7.462
REMARK INTER:                  -6.422
REMARK INTRA:                  -1.040
REMARK CONF_INDEPENDENT:        0.895
REMARK UNBOUND:                -1.040
REMARK  3 active torsions:
REMARK  status: ('A' for Active; 'I' for Inactive)
REMARK       I    between atoms: C_2  and  N_3 
REMARK    1  A    between atoms: C_2  and  C_12 
REMARK    2  A    between atoms: N_3  and  C_4 
REMARK    3  A    between atoms: C_17  and  O_18 
ROOT
ATOM      1  O   UNL d   1      25.155 -15.558  -4.188  0.00  0.00    -0.267 OA
ATOM      2  C   UNL d   1      26.003 -15.576  -3.292  0.00  0.00     0.259 C 
ATOM      3  N   UNL d   1      27.261 -14.978  -3.393  0.00  0.00    -0.321 N 
ATOM      4  H   UNL d   1      27.990 -15.288  -2.758  0.00  0.00     0.169 HD
ENDROOT
BRANCH   2   5
ATOM      5  C   UNL d   1      25.695 -16.324  -2.048  0.00  0.00     0.065 A 
ATOM      6  C   UNL d   1      24.369 -16.540  -1.648  0.00  0.00     0.020 A 
ATOM      7  C   UNL d   1      24.102 -17.290  -0.495  0.00  0.00     0.001 A 
ATOM      8  C   UNL d   1      25.150 -17.825   0.257  0.00  0.00     0.003 A 
ATOM      9  C   UNL d   1      26.471 -17.636  -0.149  0.00  0.00     0.037 A 
ATOM     10  C   UNL d   1      26.739 -16.893  -1.300  0.00  0.00     0.081 A 
BRANCH  10  11
ATOM     11  O   UNL d   1      28.039 -16.689  -1.675  0.00  0.00    -0.360 OA
ATOM     12  H   UNL d   1      28.646 -17.144  -1.072  0.00  0.00     0.217 HD
ENDBRANCH  10  11
ENDBRANCH   2   5
BRANCH   3  13
ATOM     13  C   UNL d   1      27.665 -14.370  -4.619  0.00  0.00     0.058 A 
ATOM     14  C   UNL d   1      28.657 -14.999  -5.385  0.00  0.00     0.031 A 
ATOM     15  C   UNL d   1      29.157 -14.420  -6.547  0.00  0.00     0.004 A 
ATOM     16  C   UNL d   1      28.652 -13.201  -6.979  0.00  0.00     0.026 A 
ATOM     17  C   UNL d   1      27.632 -12.570  -6.255  0.00  0.00     0.058 A 
ATOM     18 CL   UNL d   1      27.059 -11.058  -6.878  0.00  0.00    -0.082 Cl
ATOM     19  C   UNL d   1      27.123 -13.154  -5.077  0.00  0.00     0.082 A 
ATOM     20 CL   UNL d   1      25.909 -12.345  -4.136  0.00  0.00    -0.080 Cl
ENDBRANCH   3  13
TORSDOF 3
ENDMDL
