MODEL 1
REMARK VINA RESULT:    -9.170      0.000      0.000
REMARK INTER + INTRA:         -13.584
REMARK INTER:                 -12.153
REMARK INTRA:                  -1.431
REMARK CONF_INDEPENDENT:        2.983
REMARK UNBOUND:                -1.431
REMARK  10 active torsions:
REMARK  status: ('A' for Active; 'I' for Inactive)
REMARK    1  A    between atoms: C_2  and  O_3 
REMARK    2  A    between atoms: O_3  and  C_4 
REMARK    3  A    between atoms: C_8  and  C_9 
REMARK    4  A    between atoms: N_10  and  N_11 
REMARK       I    between atoms: N_11  and  C_12 
REMARK    5  A    between atoms: C_12  and  C_14 
REMARK    6  A    between atoms: C_16  and  C_17 
REMARK    7  A    between atoms: C_21  and  O_22 
REMARK    8  A    between atoms: O_22  and  C_23 
REMARK    9  A    between atoms: C_23  and  C_24 
REMARK   10  A    between atoms: C_33  and  O_34 
ROOT
ATOM      1  C   UNL d   1      26.021 -14.624  -4.344  0.00  0.00     0.148 A 
ATOM      2  C   UNL d   1      26.224 -15.745  -3.493  0.00  0.00     0.071 A 
ATOM      3  C   UNL d   1      25.150 -15.784  -2.625  0.00  0.00     0.063 A 
ATOM      4  N   UNL d   1      24.379 -14.706  -2.974  0.00  0.00    -0.277 N 
ATOM      5  N   UNL d   1      24.879 -13.993  -4.000  0.00  0.00    -0.169 NA
ATOM      6  H   UNL d   1      23.515 -14.392  -2.540  0.00  0.00     0.189 HD
ENDROOT
BRANCH   1   7
ATOM      7  C   UNL d   1      26.916 -14.135  -5.418  0.00  0.00     0.292 C 
ATOM      8  N   UNL d   1      26.988 -12.739  -5.559  0.00  0.00    -0.242 N 
ATOM      9  H   UNL d   1      26.530 -12.126  -4.895  0.00  0.00     0.192 HD
ATOM     10  O   UNL d   1      27.545 -14.912  -6.147  0.00  0.00    -0.264 OA
BRANCH   8  11
ATOM     11  N   UNL d   1      27.792 -12.210  -6.537  0.00  0.00    -0.183 NA
ATOM     12  C   UNL d   1      28.925 -12.771  -6.831  0.00  0.00     0.153 C 
BRANCH  12  13
ATOM     13  C   UNL d   1      29.793 -12.186  -7.904  0.00  0.00     0.019 A 
ATOM     14  C   UNL d   1      29.556 -10.882  -8.363  0.00  0.00     0.016 A 
ATOM     15  C   UNL d   1      30.362 -10.332  -9.367  0.00  0.00     0.004 A 
ATOM     16  C   UNL d   1      31.388 -11.092  -9.933  0.00  0.00     0.040 A 
ATOM     17  C   UNL d   1      31.632 -12.404  -9.500  0.00  0.00     0.102 A 
ATOM     18  C   UNL d   1      30.850 -12.933  -8.460  0.00  0.00     0.110 A 
BRANCH  17  19
ATOM     19  O   UNL d   1      32.641 -13.019 -10.195  0.00  0.00    -0.349 OA
BRANCH  19  20
ATOM     20  C   UNL d   1      33.978 -12.951  -9.699  0.00  0.00     0.171 C 
ATOM     21  C   UNL d   1      34.505 -14.352  -9.443  0.00  0.00     0.034 C 
ENDBRANCH  19  20
ENDBRANCH  17  19
BRANCH  18  22
ATOM     22  O   UNL d   1      31.139 -14.176  -7.963  0.00  0.00    -0.357 OA
ATOM     23  H   UNL d   1      31.536 -14.745  -8.658  0.00  0.00     0.217 HD
ENDBRANCH  18  22
ENDBRANCH  12  13
ENDBRANCH   8  11
ENDBRANCH   1   7
BRANCH   3  24
ATOM     24  C   UNL d   1      24.849 -16.701  -1.533  0.00  0.00    -0.005 A 
ATOM     25  C   UNL d   1      25.682 -16.747  -0.408  0.00  0.00     0.014 A 
ATOM     26  C   UNL d   1      25.458 -17.681   0.604  0.00  0.00     0.004 A 
ATOM     27  C   UNL d   1      24.393 -18.574   0.509  0.00  0.00     0.037 A 
ATOM     28  C   UNL d   1      23.540 -18.521  -0.593  0.00  0.00     0.070 A 
ATOM     29  C   UNL d   1      23.774 -17.592  -1.614  0.00  0.00     0.050 A 
BRANCH  28  30
ATOM     30  O   UNL d   1      22.451 -19.318  -0.789  0.00  0.00    -0.347 OA
BRANCH  30  31
ATOM     31  C   UNL d   1      21.185 -18.667  -0.895  0.00  0.00     0.214 C 
BRANCH  31  32
ATOM     32  C   UNL d   1      20.179 -19.338   0.007  0.00  0.00    -0.034 A 
ATOM     33  C   UNL d   1      20.404 -19.365   1.390  0.00  0.00     0.009 A 
ATOM     34  C   UNL d   1      19.605 -20.154   2.215  0.00  0.00     0.001 A 
ATOM     35  C   UNL d   1      18.525 -20.854   1.679  0.00  0.00     0.000 A 
ATOM     36  C   UNL d   1      18.262 -20.794   0.313  0.00  0.00     0.001 A 
ATOM     37  C   UNL d   1      19.092 -20.050  -0.520  0.00  0.00     0.009 A 
ENDBRANCH  31  32
ENDBRANCH  30  31
ENDBRANCH  28  30
ENDBRANCH   3  24
TORSDOF 10
ENDMDL
MODEL 2
REMARK VINA RESULT:    -8.989      4.791      6.209
REMARK INTER + INTRA:         -13.575
REMARK INTER:                 -11.972
REMARK INTRA:                  -1.603
REMARK CONF_INDEPENDENT:        2.983
REMARK UNBOUND:                -1.603
REMARK  10 active torsions:
REMARK  status: ('A' for Active; 'I' for Inactive)
REMARK    1  A    between atoms: C_2  and  O_3 
REMARK    2  A    between atoms: O_3  and  C_4 
REMARK    3  A    between atoms: C_8  and  C_9 
REMARK    4  A    between atoms: N_10  and  N_11 
REMARK       I    between atoms: N_11  and  C_12 
REMARK    5  A    between atoms: C_12  and  C_14 
REMARK    6  A    between atoms: C_16  and  C_17 
REMARK    7  A    between atoms: C_21  and  O_22 
REMARK    8  A    between atoms: O_22  and  C_23 
REMARK    9  A    between atoms: C_23  and  C_24 
REMARK   10  A    between atoms: C_33  and  O_34 
ROOT
ATOM      1  C   UNL d   1      25.567 -13.684  -4.022  0.00  0.00     0.148 A 
ATOM      2  C   UNL d   1      25.494 -14.098  -2.664  0.00  0.00     0.071 A 
ATOM      3  C   UNL d   1      25.482 -15.479  -2.671  0.00  0.00     0.063 A 
ATOM      4  N   UNL d   1      25.531 -15.823  -3.997  0.00  0.00    -0.277 N 
ATOM      5  N   UNL d   1      25.581 -14.766  -4.828  0.00  0.00    -0.169 NA
ATOM      6  H   UNL d   1      25.513 -16.756  -4.399  0.00  0.00     0.189 HD
ENDROOT
BRANCH   1   7
ATOM      7  C   UNL d   1      25.567 -12.296  -4.541  0.00  0.00     0.292 C 
ATOM      8  N   UNL d   1      25.505 -11.285  -3.567  0.00  0.00    -0.242 N 
ATOM      9  H   UNL d   1      25.560 -11.510  -2.581  0.00  0.00     0.192 HD
ATOM     10  O   UNL d   1      25.605 -12.052  -5.753  0.00  0.00    -0.264 OA
BRANCH   8  11
ATOM     11  N   UNL d   1      25.494  -9.973  -3.970  0.00  0.00    -0.183 NA
ATOM     12  C   UNL d   1      25.530  -9.017  -3.092  0.00  0.00     0.153 C 
BRANCH  12  13
ATOM     13  C   UNL d   1      25.521  -7.587  -3.543  0.00  0.00     0.019 A 
ATOM     14  C   UNL d   1      26.286  -6.632  -2.858  0.00  0.00     0.016 A 
ATOM     15  C   UNL d   1      26.278  -5.294  -3.274  0.00  0.00     0.004 A 
ATOM     16  C   UNL d   1      25.485  -4.904  -4.355  0.00  0.00     0.040 A 
ATOM     17  C   UNL d   1      24.700  -5.840  -5.044  0.00  0.00     0.102 A 
ATOM     18  C   UNL d   1      24.749  -7.188  -4.651  0.00  0.00     0.110 A 
BRANCH  17  19
ATOM     19  O   UNL d   1      23.950  -5.279  -6.045  0.00  0.00    -0.349 OA
BRANCH  19  20
ATOM     20  C   UNL d   1      22.670  -5.828  -6.356  0.00  0.00     0.171 C 
ATOM     21  C   UNL d   1      21.770  -5.762  -5.135  0.00  0.00     0.034 C 
ENDBRANCH  19  20
ENDBRANCH  17  19
BRANCH  18  22
ATOM     22  O   UNL d   1      24.062  -8.128  -5.374  0.00  0.00    -0.357 OA
ATOM     23  H   UNL d   1      24.139  -9.013  -4.954  0.00  0.00     0.217 HD
ENDBRANCH  18  22
ENDBRANCH  12  13
ENDBRANCH   8  11
ENDBRANCH   1   7
BRANCH   3  24
ATOM     24  C   UNL d   1      25.395 -16.430  -1.570  0.00  0.00    -0.005 A 
ATOM     25  C   UNL d   1      26.445 -16.533  -0.650  0.00  0.00     0.014 A 
ATOM     26  C   UNL d   1      26.417 -17.499   0.357  0.00  0.00     0.004 A 
ATOM     27  C   UNL d   1      25.332 -18.367   0.463  0.00  0.00     0.037 A 
ATOM     28  C   UNL d   1      24.268 -18.258  -0.430  0.00  0.00     0.070 A 
ATOM     29  C   UNL d   1      24.304 -17.297  -1.449  0.00  0.00     0.050 A 
BRANCH  28  30
ATOM     30  O   UNL d   1      23.141 -19.026  -0.416  0.00  0.00    -0.347 OA
BRANCH  30  31
ATOM     31  C   UNL d   1      21.893 -18.344  -0.531  0.00  0.00     0.214 C 
BRANCH  31  32
ATOM     32  C   UNL d   1      20.787 -19.179   0.064  0.00  0.00    -0.034 A 
ATOM     33  C   UNL d   1      19.797 -19.711  -0.774  0.00  0.00     0.009 A 
ATOM     34  C   UNL d   1      18.661 -20.304  -0.228  0.00  0.00     0.001 A 
ATOM     35  C   UNL d   1      18.542 -20.447   1.153  0.00  0.00     0.000 A 
ATOM     36  C   UNL d   1      19.544 -19.968   1.994  0.00  0.00     0.001 A 
ATOM     37  C   UNL d   1      20.654 -19.326   1.453  0.00  0.00     0.009 A 
ENDBRANCH  31  32
ENDBRANCH  30  31
ENDBRANCH  28  30
ENDBRANCH   3  24
TORSDOF 10
ENDMDL
MODEL 3
REMARK VINA RESULT:    -8.685      1.155      2.021
REMARK INTER + INTRA:         -13.371
REMARK INTER:                 -11.668
REMARK INTRA:                  -1.703
REMARK CONF_INDEPENDENT:        2.983
REMARK UNBOUND:                -1.703
REMARK  10 active torsions:
REMARK  status: ('A' for Active; 'I' for Inactive)
REMARK    1  A    between atoms: C_2  and  O_3 
REMARK    2  A    between atoms: O_3  and  C_4 
REMARK    3  A    between atoms: C_8  and  C_9 
REMARK    4  A    between atoms: N_10  and  N_11 
REMARK       I    between atoms: N_11  and  C_12 
REMARK    5  A    between atoms: C_12  and  C_14 
REMARK    6  A    between atoms: C_16  and  C_17 
REMARK    7  A    between atoms: C_21  and  O_22 
REMARK    8  A    between atoms: O_22  and  C_23 
REMARK    9  A    between atoms: C_23  and  C_24 
REMARK   10  A    between atoms: C_33  and  O_34 
ROOT
ATOM      1  C   UNL d   1      26.065 -14.489  -4.350  0.00  0.00     0.148 A 
ATOM      2  C   UNL d   1      26.345 -15.571  -3.471  0.00  0.00     0.071 A 
ATOM      3  C   UNL d   1      25.232 -15.725  -2.667  0.00  0.00     0.063 A 
ATOM      4  N   UNL d   1      24.365 -14.747  -3.077  0.00  0.00    -0.277 N 
ATOM      5  N   UNL d   1      24.840 -13.990  -4.084  0.00  0.00    -0.169 NA
ATOM      6  H   UNL d   1      23.446 -14.531  -2.700  0.00  0.00     0.189 HD
ENDROOT
BRANCH   1   7
ATOM      7  C   UNL d   1      26.961 -13.910  -5.378  0.00  0.00     0.292 C 
ATOM      8  N   UNL d   1      27.891 -14.800  -5.942  0.00  0.00    -0.242 N 
ATOM      9  H   UNL d   1      27.865 -15.788  -5.720  0.00  0.00     0.192 HD
ATOM     10  O   UNL d   1      26.898 -12.718  -5.703  0.00  0.00    -0.264 OA
BRANCH   8  11
ATOM     11  N   UNL d   1      28.762 -14.336  -6.897  0.00  0.00    -0.183 NA
ATOM     12  C   UNL d   1      30.041 -14.336  -6.674  0.00  0.00     0.153 C 
BRANCH  12  13
ATOM     13  C   UNL d   1      30.983 -13.830  -7.724  0.00  0.00     0.019 A 
ATOM     14  C   UNL d   1      32.219 -14.464  -7.920  0.00  0.00     0.016 A 
ATOM     15  C   UNL d   1      33.103 -13.993  -8.898  0.00  0.00     0.004 A 
ATOM     16  C   UNL d   1      32.768 -12.873  -9.662  0.00  0.00     0.040 A 
ATOM     17  C   UNL d   1      31.544 -12.215  -9.471  0.00  0.00     0.102 A 
ATOM     18  C   UNL d   1      30.641 -12.720  -8.521  0.00  0.00     0.110 A 
BRANCH  17  19
ATOM     19  O   UNL d   1      31.399 -11.109 -10.270  0.00  0.00    -0.349 OA
BRANCH  19  20
ATOM     20  C   UNL d   1      30.637  -9.999  -9.800  0.00  0.00     0.171 C 
ATOM     21  C   UNL d   1      31.091  -9.616  -8.403  0.00  0.00     0.034 C 
ENDBRANCH  19  20
ENDBRANCH  17  19
BRANCH  18  22
ATOM     22  O   UNL d   1      29.405 -12.146  -8.391  0.00  0.00    -0.357 OA
ATOM     23  H   UNL d   1      28.705 -12.834  -8.339  0.00  0.00     0.217 HD
ENDBRANCH  18  22
ENDBRANCH  12  13
ENDBRANCH   8  11
ENDBRANCH   1   7
BRANCH   3  24
ATOM     24  C   UNL d   1      24.974 -16.661  -1.580  0.00  0.00    -0.005 A 
ATOM     25  C   UNL d   1      25.836 -16.707  -0.477  0.00  0.00     0.014 A 
ATOM     26  C   UNL d   1      25.653 -17.658   0.529  0.00  0.00     0.004 A 
ATOM     27  C   UNL d   1      24.600 -18.566   0.450  0.00  0.00     0.037 A 
ATOM     28  C   UNL d   1      23.719 -18.513  -0.629  0.00  0.00     0.070 A 
ATOM     29  C   UNL d   1      23.912 -17.568  -1.645  0.00  0.00     0.050 A 
BRANCH  28  30
ATOM     30  O   UNL d   1      22.637 -19.326  -0.809  0.00  0.00    -0.347 OA
BRANCH  30  31
ATOM     31  C   UNL d   1      21.369 -18.688  -0.955  0.00  0.00     0.214 C 
BRANCH  31  32
ATOM     32  C   UNL d   1      20.363 -19.315  -0.023  0.00  0.00    -0.034 A 
ATOM     33  C   UNL d   1      20.619 -19.335   1.355  0.00  0.00     0.009 A 
ATOM     34  C   UNL d   1      19.813 -20.088   2.207  0.00  0.00     0.001 A 
ATOM     35  C   UNL d   1      18.698 -20.757   1.705  0.00  0.00     0.000 A 
ATOM     36  C   UNL d   1      18.405 -20.703   0.344  0.00  0.00     0.001 A 
ATOM     37  C   UNL d   1      19.240 -19.996  -0.516  0.00  0.00     0.009 A 
ENDBRANCH  31  32
ENDBRANCH  30  31
ENDBRANCH  28  30
ENDBRANCH   3  24
TORSDOF 10
ENDMDL
MODEL 4
REMARK VINA RESULT:    -8.539      4.486      5.758
REMARK INTER + INTRA:         -13.164
REMARK INTER:                 -11.522
REMARK INTRA:                  -1.642
REMARK CONF_INDEPENDENT:        2.983
REMARK UNBOUND:                -1.642
REMARK  10 active torsions:
REMARK  status: ('A' for Active; 'I' for Inactive)
REMARK    1  A    between atoms: C_2  and  O_3 
REMARK    2  A    between atoms: O_3  and  C_4 
REMARK    3  A    between atoms: C_8  and  C_9 
REMARK    4  A    between atoms: N_10  and  N_11 
REMARK       I    between atoms: N_11  and  C_12 
REMARK    5  A    between atoms: C_12  and  C_14 
REMARK    6  A    between atoms: C_16  and  C_17 
REMARK    7  A    between atoms: C_21  and  O_22 
REMARK    8  A    between atoms: O_22  and  C_23 
REMARK    9  A    between atoms: C_23  and  C_24 
REMARK   10  A    between atoms: C_33  and  O_34 
ROOT
ATOM      1  C   UNL d   1      25.483 -13.597  -3.621  0.00  0.00     0.148 A 
ATOM      2  C   UNL d   1      25.557 -14.100  -2.293  0.00  0.00     0.071 A 
ATOM      3  C   UNL d   1      25.610 -15.477  -2.393  0.00  0.00     0.063 A 
ATOM      4  N   UNL d   1      25.552 -15.733  -3.738  0.00  0.00    -0.277 N 
ATOM      5  N   UNL d   1      25.474 -14.624  -4.497  0.00  0.00    -0.169 NA
ATOM      6  H   UNL d   1      25.543 -16.638  -4.200  0.00  0.00     0.189 HD
ENDROOT
BRANCH   1   7
ATOM      7  C   UNL d   1      25.369 -12.182  -4.043  0.00  0.00     0.292 C 
ATOM      8  N   UNL d   1      25.532 -11.943  -5.418  0.00  0.00    -0.242 N 
ATOM      9  H   UNL d   1      25.620 -12.713  -6.071  0.00  0.00     0.192 HD
ATOM     10  O   UNL d   1      25.158 -11.274  -3.229  0.00  0.00    -0.264 OA
BRANCH   8  11
ATOM     11  N   UNL d   1      25.447 -10.656  -5.885  0.00  0.00    -0.183 NA
ATOM     12  C   UNL d   1      26.066  -9.693  -5.270  0.00  0.00     0.153 C 
BRANCH  12  13
ATOM     13  C   UNL d   1      25.969  -8.291  -5.791  0.00  0.00     0.019 A 
ATOM     14  C   UNL d   1      27.130  -7.516  -5.934  0.00  0.00     0.016 A 
ATOM     15  C   UNL d   1      27.044  -6.204  -6.416  0.00  0.00     0.004 A 
ATOM     16  C   UNL d   1      25.799  -5.655  -6.731  0.00  0.00     0.040 A 
ATOM     17  C   UNL d   1      24.625  -6.407  -6.579  0.00  0.00     0.102 A 
ATOM     18  C   UNL d   1      24.722  -7.738  -6.139  0.00  0.00     0.110 A 
BRANCH  17  19
ATOM     19  O   UNL d   1      23.491  -5.700  -6.886  0.00  0.00    -0.349 OA
BRANCH  19  20
ATOM     20  C   UNL d   1      22.354  -5.790  -6.029  0.00  0.00     0.171 C 
ATOM     21  C   UNL d   1      22.760  -5.482  -4.599  0.00  0.00     0.034 C 
ENDBRANCH  19  20
ENDBRANCH  17  19
BRANCH  18  22
ATOM     22  O   UNL d   1      23.595  -8.513  -6.078  0.00  0.00    -0.357 OA
ATOM     23  H   UNL d   1      22.804  -8.000  -6.357  0.00  0.00     0.217 HD
ENDBRANCH  18  22
ENDBRANCH  12  13
ENDBRANCH   8  11
ENDBRANCH   1   7
BRANCH   3  24
ATOM     24  C   UNL d   1      25.672 -16.498  -1.356  0.00  0.00    -0.005 A 
ATOM     25  C   UNL d   1      26.886 -16.774  -0.716  0.00  0.00     0.014 A 
ATOM     26  C   UNL d   1      26.981 -17.809   0.216  0.00  0.00     0.004 A 
ATOM     27  C   UNL d   1      25.859 -18.574   0.527  0.00  0.00     0.037 A 
ATOM     28  C   UNL d   1      24.637 -18.293  -0.083  0.00  0.00     0.070 A 
ATOM     29  C   UNL d   1      24.548 -17.263  -1.028  0.00  0.00     0.050 A 
BRANCH  28  30
ATOM     30  O   UNL d   1      23.465 -18.948   0.155  0.00  0.00    -0.347 OA
BRANCH  30  31
ATOM     31  C   UNL d   1      22.311 -18.480  -0.542  0.00  0.00     0.214 C 
BRANCH  31  32
ATOM     32  C   UNL d   1      21.079 -19.196  -0.047  0.00  0.00    -0.034 A 
ATOM     33  C   UNL d   1      20.115 -19.627  -0.968  0.00  0.00     0.009 A 
ATOM     34  C   UNL d   1      18.881 -20.098  -0.524  0.00  0.00     0.001 A 
ATOM     35  C   UNL d   1      18.632 -20.222   0.842  0.00  0.00     0.000 A 
ATOM     36  C   UNL d   1      19.602 -19.844   1.766  0.00  0.00     0.001 A 
ATOM     37  C   UNL d   1      20.814 -19.322   1.325  0.00  0.00     0.009 A 
ENDBRANCH  31  32
ENDBRANCH  30  31
ENDBRANCH  28  30
ENDBRANCH   3  24
TORSDOF 10
ENDMDL
MODEL 5
REMARK VINA RESULT:    -8.445      6.282     11.915
REMARK INTER + INTRA:         -13.099
REMARK INTER:                 -11.428
REMARK INTRA:                  -1.670
REMARK CONF_INDEPENDENT:        2.983
REMARK UNBOUND:                -1.670
REMARK  10 active torsions:
REMARK  status: ('A' for Active; 'I' for Inactive)
REMARK    1  A    between atoms: C_2  and  O_3 
REMARK    2  A    between atoms: O_3  and  C_4 
REMARK    3  A    between atoms: C_8  and  C_9 
REMARK    4  A    between atoms: N_10  and  N_11 
REMARK       I    between atoms: N_11  and  C_12 
REMARK    5  A    between atoms: C_12  and  C_14 
REMARK    6  A    between atoms: C_16  and  C_17 
REMARK    7  A    between atoms: C_21  and  O_22 
REMARK    8  A    between atoms: O_22  and  C_23 
REMARK    9  A    between atoms: C_23  and  C_24 
REMARK   10  A    between atoms: C_33  and  O_34 
ROOT
ATOM      1  C   UNL d   1      25.820 -11.333  -5.315  0.00  0.00     0.148 A 
ATOM      2  C   UNL d   1      25.184 -10.127  -4.911  0.00  0.00     0.071 A 
ATOM      3  C   UNL d   1      25.223  -9.275  -5.997  0.00  0.00     0.063 A 
ATOM      4  N   UNL d   1      25.876  -9.981  -6.973  0.00  0.00    -0.277 N 
ATOM      5  N   UNL d   1      26.246 -11.217  -6.590  0.00  0.00    -0.169 NA
ATOM      6  H   UNL d   1      26.116  -9.671  -7.911  0.00  0.00     0.189 HD
ENDROOT
BRANCH   1   7
ATOM      7  C   UNL d   1      26.065 -12.541  -4.493  0.00  0.00     0.292 C 
ATOM      8  N   UNL d   1      25.007 -13.464  -4.443  0.00  0.00    -0.242 N 
ATOM      9  H   UNL d   1      24.182 -13.340  -5.019  0.00  0.00     0.192 HD
ATOM     10  O   UNL d   1      27.128 -12.711  -3.884  0.00  0.00    -0.264 OA
BRANCH   8  11
ATOM     11  N   UNL d   1      25.155 -14.606  -3.696  0.00  0.00    -0.183 NA
ATOM     12  C   UNL d   1      25.218 -14.538  -2.401  0.00  0.00     0.153 C 
BRANCH  12  13
ATOM     13  C   UNL d   1      25.377 -15.792  -1.594  0.00  0.00     0.019 A 
ATOM     14  C   UNL d   1      26.659 -16.299  -1.335  0.00  0.00     0.016 A 
ATOM     15  C   UNL d   1      26.812 -17.472  -0.585  0.00  0.00     0.004 A 
ATOM     16  C   UNL d   1      25.687 -18.153  -0.115  0.00  0.00     0.040 A 
ATOM     17  C   UNL d   1      24.396 -17.671  -0.377  0.00  0.00     0.102 A 
ATOM     18  C   UNL d   1      24.250 -16.469  -1.090  0.00  0.00     0.110 A 
BRANCH  17  19
ATOM     19  O   UNL d   1      23.409 -18.486   0.115  0.00  0.00    -0.349 OA
BRANCH  19  20
ATOM     20  C   UNL d   1      22.680 -19.325  -0.780  0.00  0.00     0.171 C 
ATOM     21  C   UNL d   1      21.245 -18.840  -0.888  0.00  0.00     0.034 C 
ENDBRANCH  19  20
ENDBRANCH  17  19
BRANCH  18  22
ATOM     22  O   UNL d   1      23.001 -15.937  -1.270  0.00  0.00    -0.357 OA
ATOM     23  H   UNL d   1      22.307 -16.589  -1.025  0.00  0.00     0.217 HD
ENDBRANCH  18  22
ENDBRANCH  12  13
ENDBRANCH   8  11
ENDBRANCH   1   7
BRANCH   3  24
ATOM     24  C   UNL d   1      24.741  -7.907  -6.144  0.00  0.00    -0.005 A 
ATOM     25  C   UNL d   1      25.528  -6.954  -6.802  0.00  0.00     0.014 A 
ATOM     26  C   UNL d   1      25.120  -5.621  -6.872  0.00  0.00     0.004 A 
ATOM     27  C   UNL d   1      23.916  -5.226  -6.294  0.00  0.00     0.037 A 
ATOM     28  C   UNL d   1      23.111  -6.170  -5.658  0.00  0.00     0.070 A 
ATOM     29  C   UNL d   1      23.527  -7.505  -5.577  0.00  0.00     0.050 A 
BRANCH  28  30
ATOM     30  O   UNL d   1      21.902  -5.917  -5.079  0.00  0.00    -0.347 OA
BRANCH  30  31
ATOM     31  C   UNL d   1      21.005  -5.072  -5.800  0.00  0.00     0.214 C 
BRANCH  31  32
ATOM     32  C   UNL d   1      20.376  -5.834  -6.939  0.00  0.00    -0.034 A 
ATOM     33  C   UNL d   1      20.951  -5.764  -8.216  0.00  0.00     0.009 A 
ATOM     34  C   UNL d   1      20.276  -6.283  -9.318  0.00  0.00     0.001 A 
ATOM     35  C   UNL d   1      19.065  -6.951  -9.145  0.00  0.00     0.000 A 
ATOM     36  C   UNL d   1      18.509  -7.071  -7.874  0.00  0.00     0.001 A 
ATOM     37  C   UNL d   1      19.155  -6.505  -6.779  0.00  0.00     0.009 A 
ENDBRANCH  31  32
ENDBRANCH  30  31
ENDBRANCH  28  30
ENDBRANCH   3  24
TORSDOF 10
ENDMDL
MODEL 6
REMARK VINA RESULT:    -8.444      4.147      5.063
REMARK INTER + INTRA:         -13.071
REMARK INTER:                 -11.427
REMARK INTRA:                  -1.644
REMARK CONF_INDEPENDENT:        2.983
REMARK UNBOUND:                -1.644
REMARK  10 active torsions:
REMARK  status: ('A' for Active; 'I' for Inactive)
REMARK    1  A    between atoms: C_2  and  O_3 
REMARK    2  A    between atoms: O_3  and  C_4 
REMARK    3  A    between atoms: C_8  and  C_9 
REMARK    4  A    between atoms: N_10  and  N_11 
REMARK       I    between atoms: N_11  and  C_12 
REMARK    5  A    between atoms: C_12  and  C_14 
REMARK    6  A    between atoms: C_16  and  C_17 
REMARK    7  A    between atoms: C_21  and  O_22 
REMARK    8  A    between atoms: O_22  and  C_23 
REMARK    9  A    between atoms: C_23  and  C_24 
REMARK   10  A    between atoms: C_33  and  O_34 
ROOT
ATOM      1  C   UNL d   1      25.692 -13.585  -4.071  0.00  0.00     0.148 A 
ATOM      2  C   UNL d   1      25.418 -13.978  -2.732  0.00  0.00     0.071 A 
ATOM      3  C   UNL d   1      25.326 -15.357  -2.735  0.00  0.00     0.063 A 
ATOM      4  N   UNL d   1      25.528 -15.718  -4.041  0.00  0.00    -0.277 N 
ATOM      5  N   UNL d   1      25.748 -14.676  -4.863  0.00  0.00    -0.169 NA
ATOM      6  H   UNL d   1      25.509 -16.654  -4.438  0.00  0.00     0.189 HD
ENDROOT
BRANCH   1   7
ATOM      7  C   UNL d   1      25.841 -12.206  -4.592  0.00  0.00     0.292 C 
ATOM      8  N   UNL d   1      25.675 -11.180  -3.647  0.00  0.00    -0.242 N 
ATOM      9  H   UNL d   1      25.561 -11.394  -2.663  0.00  0.00     0.192 HD
ATOM     10  O   UNL d   1      26.084 -11.981  -5.784  0.00  0.00    -0.264 OA
BRANCH   8  11
ATOM     11  N   UNL d   1      25.791  -9.875  -4.054  0.00  0.00    -0.183 NA
ATOM     12  C   UNL d   1      24.796  -9.279  -4.639  0.00  0.00     0.153 C 
BRANCH  12  13
ATOM     13  C   UNL d   1      24.932  -7.852  -5.078  0.00  0.00     0.019 A 
ATOM     14  C   UNL d   1      23.826  -6.993  -5.016  0.00  0.00     0.016 A 
ATOM     15  C   UNL d   1      23.948  -5.659  -5.428  0.00  0.00     0.004 A 
ATOM     16  C   UNL d   1      25.165  -5.191  -5.926  0.00  0.00     0.040 A 
ATOM     17  C   UNL d   1      26.279  -6.038  -6.011  0.00  0.00     0.102 A 
ATOM     18  C   UNL d   1      26.164  -7.361  -5.553  0.00  0.00     0.110 A 
BRANCH  17  19
ATOM     19  O   UNL d   1      27.375  -5.430  -6.567  0.00  0.00    -0.349 OA
BRANCH  19  20
ATOM     20  C   UNL d   1      28.682  -5.882  -6.216  0.00  0.00     0.171 C 
ATOM     21  C   UNL d   1      29.720  -5.166  -7.062  0.00  0.00     0.034 C 
ENDBRANCH  19  20
ENDBRANCH  17  19
BRANCH  18  22
ATOM     22  O   UNL d   1      27.268  -8.171  -5.541  0.00  0.00    -0.357 OA
ATOM     23  H   UNL d   1      27.009  -9.113  -5.647  0.00  0.00     0.217 HD
ENDBRANCH  18  22
ENDBRANCH  12  13
ENDBRANCH   8  11
ENDBRANCH   1   7
BRANCH   3  24
ATOM     24  C   UNL d   1      25.041 -16.287  -1.650  0.00  0.00    -0.005 A 
ATOM     25  C   UNL d   1      26.089 -16.959  -1.010  0.00  0.00     0.014 A 
ATOM     26  C   UNL d   1      25.826 -17.918  -0.031  0.00  0.00     0.004 A 
ATOM     27  C   UNL d   1      24.512 -18.209   0.328  0.00  0.00     0.037 A 
ATOM     28  C   UNL d   1      23.460 -17.528  -0.282  0.00  0.00     0.070 A 
ATOM     29  C   UNL d   1      23.725 -16.576  -1.275  0.00  0.00     0.050 A 
BRANCH  28  30
ATOM     30  O   UNL d   1      22.136 -17.702  -0.001  0.00  0.00    -0.347 OA
BRANCH  30  31
ATOM     31  C   UNL d   1      21.436 -18.680  -0.769  0.00  0.00     0.214 C 
BRANCH  31  32
ATOM     32  C   UNL d   1      20.367 -19.331   0.071  0.00  0.00    -0.034 A 
ATOM     33  C   UNL d   1      20.490 -19.327   1.468  0.00  0.00     0.009 A 
ATOM     34  C   UNL d   1      19.632 -20.098   2.249  0.00  0.00     0.001 A 
ATOM     35  C   UNL d   1      18.593 -20.811   1.652  0.00  0.00     0.000 A 
ATOM     36  C   UNL d   1      18.431 -20.782   0.269  0.00  0.00     0.001 A 
ATOM     37  C   UNL d   1      19.320 -20.056  -0.518  0.00  0.00     0.009 A 
ENDBRANCH  31  32
ENDBRANCH  30  31
ENDBRANCH  28  30
ENDBRANCH   3  24
TORSDOF 10
ENDMDL
MODEL 7
REMARK VINA RESULT:    -8.254      7.344     11.299
REMARK INTER + INTRA:         -12.704
REMARK INTER:                 -11.237
REMARK INTRA:                  -1.468
REMARK CONF_INDEPENDENT:        2.983
REMARK UNBOUND:                -1.468
REMARK  10 active torsions:
REMARK  status: ('A' for Active; 'I' for Inactive)
REMARK    1  A    between atoms: C_2  and  O_3 
REMARK    2  A    between atoms: O_3  and  C_4 
REMARK    3  A    between atoms: C_8  and  C_9 
REMARK    4  A    between atoms: N_10  and  N_11 
REMARK       I    between atoms: N_11  and  C_12 
REMARK    5  A    between atoms: C_12  and  C_14 
REMARK    6  A    between atoms: C_16  and  C_17 
REMARK    7  A    between atoms: C_21  and  O_22 
REMARK    8  A    between atoms: O_22  and  C_23 
REMARK    9  A    between atoms: C_23  and  C_24 
REMARK   10  A    between atoms: C_33  and  O_34 
ROOT
ATOM      1  C   UNL d   1      28.718 -14.733   1.883  0.00  0.00     0.148 A 
ATOM      2  C   UNL d   1      27.405 -15.145   1.525  0.00  0.00     0.071 A 
ATOM      3  C   UNL d   1      27.507 -15.769   0.296  0.00  0.00     0.063 A 
ATOM      4  N   UNL d   1      28.836 -15.691  -0.027  0.00  0.00    -0.277 N 
ATOM      5  N   UNL d   1      29.585 -15.075   0.906  0.00  0.00    -0.169 NA
ATOM      6  H   UNL d   1      29.291 -16.022  -0.874  0.00  0.00     0.189 HD
ENDROOT
BRANCH   1   7
ATOM      7  C   UNL d   1      29.128 -13.987   3.095  0.00  0.00     0.292 C 
ATOM      8  N   UNL d   1      29.144 -14.730   4.288  0.00  0.00    -0.242 N 
ATOM      9  H   UNL d   1      28.980 -15.729   4.279  0.00  0.00     0.192 HD
ATOM     10  O   UNL d   1      29.423 -12.786   3.054  0.00  0.00    -0.264 OA
BRANCH   8  11
ATOM     11  N   UNL d   1      29.506 -14.106   5.455  0.00  0.00    -0.183 NA
ATOM     12  C   UNL d   1      28.633 -13.421   6.131  0.00  0.00     0.153 C 
BRANCH  12  13
ATOM     13  C   UNL d   1      29.039 -12.746   7.407  0.00  0.00     0.019 A 
ATOM     14  C   UNL d   1      29.261 -11.361   7.425  0.00  0.00     0.016 A 
ATOM     15  C   UNL d   1      29.644 -10.727   8.614  0.00  0.00     0.004 A 
ATOM     16  C   UNL d   1      29.830 -11.476   9.778  0.00  0.00     0.040 A 
ATOM     17  C   UNL d   1      29.628 -12.864   9.776  0.00  0.00     0.102 A 
ATOM     18  C   UNL d   1      29.199 -13.488   8.593  0.00  0.00     0.110 A 
BRANCH  17  19
ATOM     19  O   UNL d   1      29.901 -13.448  10.987  0.00  0.00    -0.349 OA
BRANCH  19  20
ATOM     20  C   UNL d   1      31.048 -14.286  11.120  0.00  0.00     0.171 C 
ATOM     21  C   UNL d   1      30.621 -15.682  11.538  0.00  0.00     0.034 C 
ENDBRANCH  19  20
ENDBRANCH  17  19
BRANCH  18  22
ATOM     22  O   UNL d   1      28.906 -14.826   8.602  0.00  0.00    -0.357 OA
ATOM     23  H   UNL d   1      29.043 -15.206   9.498  0.00  0.00     0.217 HD
ENDBRANCH  18  22
ENDBRANCH  12  13
ENDBRANCH   8  11
ENDBRANCH   1   7
BRANCH   3  24
ATOM     24  C   UNL d   1      26.480 -16.361  -0.551  0.00  0.00    -0.005 A 
ATOM     25  C   UNL d   1      26.347 -15.950  -1.882  0.00  0.00     0.014 A 
ATOM     26  C   UNL d   1      25.312 -16.443  -2.679  0.00  0.00     0.004 A 
ATOM     27  C   UNL d   1      24.405 -17.362  -2.158  0.00  0.00     0.037 A 
ATOM     28  C   UNL d   1      24.542 -17.800  -0.841  0.00  0.00     0.070 A 
ATOM     29  C   UNL d   1      25.572 -17.294  -0.039  0.00  0.00     0.050 A 
BRANCH  28  30
ATOM     30  O   UNL d   1      23.738 -18.714  -0.224  0.00  0.00    -0.347 OA
BRANCH  30  31
ATOM     31  C   UNL d   1      22.676 -18.201   0.579  0.00  0.00     0.214 C 
BRANCH  31  32
ATOM     32  C   UNL d   1      21.404 -18.963   0.306  0.00  0.00    -0.034 A 
ATOM     33  C   UNL d   1      20.908 -19.031  -1.004  0.00  0.00     0.009 A 
ATOM     34  C   UNL d   1      19.637 -19.545  -1.247  0.00  0.00     0.001 A 
ATOM     35  C   UNL d   1      18.885 -20.074  -0.199  0.00  0.00     0.000 A 
ATOM     36  C   UNL d   1      19.388 -20.059   1.099  0.00  0.00     0.001 A 
ATOM     37  C   UNL d   1      20.636 -19.495   1.352  0.00  0.00     0.009 A 
ENDBRANCH  31  32
ENDBRANCH  30  31
ENDBRANCH  28  30
ENDBRANCH   3  24
TORSDOF 10
ENDMDL
MODEL 8
REMARK VINA RESULT:    -8.232      2.496      3.506
REMARK INTER + INTRA:         -13.102
REMARK INTER:                 -11.215
REMARK INTRA:                  -1.887
REMARK CONF_INDEPENDENT:        2.983
REMARK UNBOUND:                -1.887
REMARK  10 active torsions:
REMARK  status: ('A' for Active; 'I' for Inactive)
REMARK    1  A    between atoms: C_2  and  O_3 
REMARK    2  A    between atoms: O_3  and  C_4 
REMARK    3  A    between atoms: C_8  and  C_9 
REMARK    4  A    between atoms: N_10  and  N_11 
REMARK       I    between atoms: N_11  and  C_12 
REMARK    5  A    between atoms: C_12  and  C_14 
REMARK    6  A    between atoms: C_16  and  C_17 
REMARK    7  A    between atoms: C_21  and  O_22 
REMARK    8  A    between atoms: O_22  and  C_23 
REMARK    9  A    between atoms: C_23  and  C_24 
REMARK   10  A    between atoms: C_33  and  O_34 
ROOT
ATOM      1  C   UNL d   1      25.623 -13.832  -4.306  0.00  0.00     0.148 A 
ATOM      2  C   UNL d   1      26.159 -14.835  -3.453  0.00  0.00     0.071 A 
ATOM      3  C   UNL d   1      25.136 -15.228  -2.612  0.00  0.00     0.063 A 
ATOM      4  N   UNL d   1      24.066 -14.455  -2.977  0.00  0.00    -0.277 N 
ATOM      5  N   UNL d   1      24.330 -13.607  -3.989  0.00  0.00    -0.169 NA
ATOM      6  H   UNL d   1      23.137 -14.442  -2.564  0.00  0.00     0.189 HD
ENDROOT
BRANCH   1   7
ATOM      7  C   UNL d   1      26.336 -13.068  -5.356  0.00  0.00     0.292 C 
ATOM      8  N   UNL d   1      25.723 -11.868  -5.755  0.00  0.00    -0.242 N 
ATOM      9  H   UNL d   1      24.903 -11.519  -5.273  0.00  0.00     0.192 HD
ATOM     10  O   UNL d   1      27.393 -13.474  -5.854  0.00  0.00    -0.264 OA
BRANCH   8  11
ATOM     11  N   UNL d   1      26.319 -11.108  -6.730  0.00  0.00    -0.183 NA
ATOM     12  C   UNL d   1      27.607 -10.937  -6.732  0.00  0.00     0.153 C 
BRANCH  12  13
ATOM     13  C   UNL d   1      28.248 -10.107  -7.803  0.00  0.00     0.019 A 
ATOM     14  C   UNL d   1      29.434 -10.546  -8.412  0.00  0.00     0.016 A 
ATOM     15  C   UNL d   1      30.039  -9.772  -9.411  0.00  0.00     0.004 A 
ATOM     16  C   UNL d   1      29.477  -8.550  -9.784  0.00  0.00     0.040 A 
ATOM     17  C   UNL d   1      28.301  -8.086  -9.177  0.00  0.00     0.102 A 
ATOM     18  C   UNL d   1      27.673  -8.888  -8.209  0.00  0.00     0.110 A 
BRANCH  17  19
ATOM     19  O   UNL d   1      27.916  -6.849  -9.627  0.00  0.00    -0.349 OA
BRANCH  19  20
ATOM     20  C   UNL d   1      28.623  -5.690  -9.188  0.00  0.00     0.171 C 
ATOM     21  C   UNL d   1      28.327  -5.430  -7.722  0.00  0.00     0.034 C 
ENDBRANCH  19  20
ENDBRANCH  17  19
BRANCH  18  22
ATOM     22  O   UNL d   1      26.474  -8.492  -7.677  0.00  0.00    -0.357 OA
ATOM     23  H   UNL d   1      25.900  -9.269  -7.500  0.00  0.00     0.217 HD
ENDBRANCH  18  22
ENDBRANCH  12  13
ENDBRANCH   8  11
ENDBRANCH   1   7
BRANCH   3  24
ATOM     24  C   UNL d   1      25.124 -16.205  -1.530  0.00  0.00    -0.005 A 
ATOM     25  C   UNL d   1      26.331 -16.699  -1.020  0.00  0.00     0.014 A 
ATOM     26  C   UNL d   1      26.335 -17.699  -0.046  0.00  0.00     0.004 A 
ATOM     27  C   UNL d   1      25.132 -18.209   0.437  0.00  0.00     0.037 A 
ATOM     28  C   UNL d   1      23.923 -17.707  -0.043  0.00  0.00     0.070 A 
ATOM     29  C   UNL d   1      23.921 -16.713  -1.030  0.00  0.00     0.050 A 
BRANCH  28  30
ATOM     30  O   UNL d   1      22.684 -18.102   0.367  0.00  0.00    -0.347 OA
BRANCH  30  31
ATOM     31  C   UNL d   1      21.818 -18.647  -0.628  0.00  0.00     0.214 C 
BRANCH  31  32
ATOM     32  C   UNL d   1      20.588 -19.233   0.019  0.00  0.00    -0.034 A 
ATOM     33  C   UNL d   1      20.539 -19.365   1.414  0.00  0.00     0.009 A 
ATOM     34  C   UNL d   1      19.512 -20.090   2.014  0.00  0.00     0.001 A 
ATOM     35  C   UNL d   1      18.482 -20.617   1.237  0.00  0.00     0.000 A 
ATOM     36  C   UNL d   1      18.494 -20.449  -0.145  0.00  0.00     0.001 A 
ATOM     37  C   UNL d   1      19.548 -19.772  -0.752  0.00  0.00     0.009 A 
ENDBRANCH  31  32
ENDBRANCH  30  31
ENDBRANCH  28  30
ENDBRANCH   3  24
TORSDOF 10
ENDMDL
MODEL 9
REMARK VINA RESULT:    -7.453      8.133     12.562
REMARK INTER + INTRA:         -12.662
REMARK INTER:                 -10.436
REMARK INTRA:                  -2.226
REMARK CONF_INDEPENDENT:        2.983
REMARK UNBOUND:                -2.226
REMARK  10 active torsions:
REMARK  status: ('A' for Active; 'I' for Inactive)
REMARK    1  A    between atoms: C_2  and  O_3 
REMARK    2  A    between atoms: O_3  and  C_4 
REMARK    3  A    between atoms: C_8  and  C_9 
REMARK    4  A    between atoms: N_10  and  N_11 
REMARK       I    between atoms: N_11  and  C_12 
REMARK    5  A    between atoms: C_12  and  C_14 
REMARK    6  A    between atoms: C_16  and  C_17 
REMARK    7  A    between atoms: C_21  and  O_22 
REMARK    8  A    between atoms: O_22  and  C_23 
REMARK    9  A    between atoms: C_23  and  C_24 
REMARK   10  A    between atoms: C_33  and  O_34 
ROOT
ATOM      1  C   UNL d   1      28.385 -14.040   3.204  0.00  0.00     0.148 A 
ATOM      2  C   UNL d   1      27.335 -13.846   2.266  0.00  0.00     0.071 A 
ATOM      3  C   UNL d   1      27.926 -13.776   1.019  0.00  0.00     0.063 A 
ATOM      4  N   UNL d   1      29.267 -13.912   1.259  0.00  0.00    -0.277 N 
ATOM      5  N   UNL d   1      29.571 -14.070   2.561  0.00  0.00    -0.169 NA
ATOM      6  H   UNL d   1      30.027 -13.887   0.584  0.00  0.00     0.189 HD
ENDROOT
BRANCH   1   7
ATOM      7  C   UNL d   1      28.269 -14.138   4.678  0.00  0.00     0.292 C 
ATOM      8  N   UNL d   1      29.479 -14.305   5.372  0.00  0.00    -0.242 N 
ATOM      9  H   UNL d   1      30.367 -14.257   4.886  0.00  0.00     0.192 HD
ATOM     10  O   UNL d   1      27.173 -14.090   5.251  0.00  0.00    -0.264 OA
BRANCH   8  11
ATOM     11  N   UNL d   1      29.452 -14.412   6.740  0.00  0.00    -0.183 NA
ATOM     12  C   UNL d   1      29.161 -13.380   7.473  0.00  0.00     0.153 C 
BRANCH  12  13
ATOM     13  C   UNL d   1      29.132 -13.508   8.966  0.00  0.00     0.019 A 
ATOM     14  C   UNL d   1      28.155 -12.828   9.708  0.00  0.00     0.016 A 
ATOM     15  C   UNL d   1      28.126 -12.943  11.104  0.00  0.00     0.004 A 
ATOM     16  C   UNL d   1      29.087 -13.713  11.762  0.00  0.00     0.040 A 
ATOM     17  C   UNL d   1      30.082 -14.388  11.040  0.00  0.00     0.102 A 
ATOM     18  C   UNL d   1      30.078 -14.307   9.637  0.00  0.00     0.110 A 
BRANCH  17  19
ATOM     19  O   UNL d   1      30.969 -15.056  11.845  0.00  0.00    -0.349 OA
BRANCH  19  20
ATOM     20  C   UNL d   1      32.363 -14.769  11.743  0.00  0.00     0.171 C 
ATOM     21  C   UNL d   1      32.623 -13.326  12.137  0.00  0.00     0.034 C 
ENDBRANCH  19  20
ENDBRANCH  17  19
BRANCH  18  22
ATOM     22  O   UNL d   1      30.984 -15.038   8.916  0.00  0.00    -0.357 OA
ATOM     23  H   UNL d   1      30.530 -15.575   8.230  0.00  0.00     0.217 HD
ENDBRANCH  18  22
ENDBRANCH  12  13
ENDBRANCH   8  11
ENDBRANCH   1   7
BRANCH   3  24
ATOM     24  C   UNL d   1      27.335 -13.565  -0.296  0.00  0.00    -0.005 A 
ATOM     25  C   UNL d   1      27.405 -12.304  -0.902  0.00  0.00     0.014 A 
ATOM     26  C   UNL d   1      26.767 -12.064  -2.120  0.00  0.00     0.004 A 
ATOM     27  C   UNL d   1      26.061 -13.084  -2.753  0.00  0.00     0.037 A 
ATOM     28  C   UNL d   1      26.006 -14.351  -2.175  0.00  0.00     0.070 A 
ATOM     29  C   UNL d   1      26.635 -14.587  -0.946  0.00  0.00     0.050 A 
BRANCH  28  30
ATOM     30  O   UNL d   1      25.374 -15.437  -2.706  0.00  0.00    -0.347 OA
BRANCH  30  31
ATOM     31  C   UNL d   1      25.644 -16.701  -2.102  0.00  0.00     0.214 C 
BRANCH  31  32
ATOM     32  C   UNL d   1      24.461 -17.147  -1.279  0.00  0.00    -0.034 A 
ATOM     33  C   UNL d   1      24.443 -18.442  -0.742  0.00  0.00     0.009 A 
ATOM     34  C   UNL d   1      23.280 -18.944  -0.162  0.00  0.00     0.001 A 
ATOM     35  C   UNL d   1      22.155 -18.131  -0.036  0.00  0.00     0.000 A 
ATOM     36  C   UNL d   1      22.178 -16.826  -0.520  0.00  0.00     0.001 A 
ATOM     37  C   UNL d   1      23.321 -16.340  -1.149  0.00  0.00     0.009 A 
ENDBRANCH  31  32
ENDBRANCH  30  31
ENDBRANCH  28  30
ENDBRANCH   3  24
TORSDOF 10
ENDMDL
