MODEL 1
REMARK VINA RESULT:    -8.232      0.000      0.000
REMARK INTER + INTRA:         -16.554
REMARK INTER:                 -12.706
REMARK INTRA:                  -3.848
REMARK CONF_INDEPENDENT:        4.474
REMARK UNBOUND:                -3.848
REMARK  15 active torsions:
REMARK  status: ('A' for Active; 'I' for Inactive)
REMARK    1  A    between atoms: C_2  and  C_3 
REMARK    2  A    between atoms: C_3  and  C_4 
REMARK    3  A    between atoms: C_4  and  N_5 
REMARK       I    between atoms: N_5  and  C_6 
REMARK    4  A    between atoms: C_8  and  C_6 
REMARK    5  A    between atoms: C_8  and  N_18 
REMARK    6  A    between atoms: C_8  and  C_9 
REMARK    7  A    between atoms: C_10  and  O_11 
REMARK    8  A    between atoms: C_13  and  O_14 
REMARK    9  A    between atoms: C_16  and  O_17 
REMARK   10  A    between atoms: N_18  and  C_19 
REMARK       I    between atoms: N_18  and  C_22 
REMARK   11  A    between atoms: C_19  and  C_20 
REMARK   12  A    between atoms: C_22  and  C_24 
REMARK   13  A    between atoms: C_24  and  O_25 
REMARK   14  A    between atoms: C_24  and  C_26 
REMARK   15  A    between atoms: C_24  and  C_32 
ROOT
ATOM      1  C   UNL d   1      26.206 -13.530  -4.367  0.00  0.00     0.218 C 
ENDROOT
BRANCH   1   2
ATOM      2  N   UNL d   1      26.690 -14.398  -3.186  0.00  0.00    -0.331 N 
ATOM      3  C   UNL d   1      25.665 -15.046  -2.430  0.00  0.00     0.265 C 
ATOM      4  O   UNL d   1      24.479 -14.821  -2.724  0.00  0.00    -0.269 OA
BRANCH   2   5
ATOM      5  C   UNL d   1      28.098 -14.614  -2.830  0.00  0.00     0.127 C 
BRANCH   5   6
ATOM      6  C   UNL d   1      28.916 -15.678  -3.478  0.00  0.00     0.015 C 
ATOM      7  C   UNL d   1      29.741 -16.641  -2.675  0.00  0.00     0.006 C 
ENDBRANCH   5   6
ENDBRANCH   2   5
BRANCH   3   8
ATOM      8  C   UNL d   1      26.011 -16.037  -1.187  0.00  0.00     0.194 C 
BRANCH   8   9
ATOM      9  O   UNL d   1      26.921 -17.085  -1.547  0.00  0.00    -0.371 OA
ATOM     10  H   UNL d   1      27.636 -17.175  -0.917  0.00  0.00     0.212 HD
ENDBRANCH   8   9
BRANCH   8  11
ATOM     11  C   UNL d   1      26.561 -15.202   0.009  0.00  0.00    -0.010 C 
ATOM     12  C   UNL d   1      27.431 -15.730   0.980  0.00  0.00     0.011 C 
ATOM     13  C   UNL d   1      27.935 -14.936   2.019  0.00  0.00     0.001 C 
ATOM     14  C   UNL d   1      27.516 -13.618   2.173  0.00  0.00     0.000 C 
ATOM     15  C   UNL d   1      26.655 -13.072   1.249  0.00  0.00     0.001 C 
ATOM     16  C   UNL d   1      26.282 -13.830   0.149  0.00  0.00     0.011 C 
ENDBRANCH   8  11
BRANCH   8  17
ATOM     17  C   UNL d   1      24.714 -16.843  -0.824  0.00  0.00    -0.010 A 
ATOM     18  C   UNL d   1      24.715 -18.239  -0.651  0.00  0.00     0.011 A 
ATOM     19  C   UNL d   1      23.511 -18.947  -0.527  0.00  0.00     0.001 A 
ATOM     20  C   UNL d   1      22.295 -18.276  -0.424  0.00  0.00     0.000 A 
ATOM     21  C   UNL d   1      22.267 -16.903  -0.525  0.00  0.00     0.001 A 
ATOM     22  C   UNL d   1      23.447 -16.234  -0.805  0.00  0.00     0.011 A 
ENDBRANCH   8  17
ENDBRANCH   3   8
ENDBRANCH   1   2
BRANCH   1  23
ATOM     23  C   UNL d   1      26.291 -11.968  -4.274  0.00  0.00     0.040 C 
ATOM     24  C   UNL d   1      25.800 -11.061  -5.244  0.00  0.00     0.080 C 
ATOM     25  C   UNL d   1      25.423  -9.736  -4.884  0.00  0.00     0.073 C 
ATOM     26  C   UNL d   1      25.708  -9.250  -3.616  0.00  0.00     0.071 C 
ATOM     27  C   UNL d   1      26.418 -10.038  -2.736  0.00  0.00     0.073 C 
ATOM     28  C   UNL d   1      26.754 -11.345  -3.098  0.00  0.00     0.080 C 
BRANCH  24  29
ATOM     29  O   UNL d   1      25.372 -11.450  -6.495  0.00  0.00    -0.360 OA
ATOM     30  H   UNL d   1      24.400 -11.483  -6.520  0.00  0.00     0.217 HD
ENDBRANCH  24  29
BRANCH  26  31
ATOM     31  O   UNL d   1      25.365  -8.000  -3.197  0.00  0.00    -0.361 OA
ATOM     32  H   UNL d   1      24.404  -7.952  -3.072  0.00  0.00     0.217 HD
ENDBRANCH  26  31
BRANCH  28  33
ATOM     33  O   UNL d   1      27.664 -11.974  -2.299  0.00  0.00    -0.360 OA
ATOM     34  H   UNL d   1      28.484 -12.089  -2.813  0.00  0.00     0.217 HD
ENDBRANCH  28  33
ENDBRANCH   1  23
BRANCH   1  35
ATOM     35  C   UNL d   1      27.045 -14.135  -5.577  0.00  0.00     0.245 C 
ATOM     36  N   UNL d   1      27.803 -13.209  -6.300  0.00  0.00    -0.359 N 
ATOM     37  H   UNL d   1      27.365 -12.288  -6.389  0.00  0.00     0.162 HD
ATOM     38  O   UNL d   1      26.938 -15.286  -5.958  0.00  0.00    -0.271 OA
BRANCH  36  39
ATOM     39  C   UNL d   1      28.598 -13.685  -7.410  0.00  0.00     0.122 C 
BRANCH  39  40
ATOM     40  C   UNL d   1      30.045 -13.218  -7.351  0.00  0.00     0.019 C 
BRANCH  40  41
ATOM     41  C   UNL d   1      30.945 -14.351  -6.858  0.00  0.00    -0.003 C 
ATOM     42  C   UNL d   1      30.201 -15.673  -6.869  0.00  0.00     0.005 C 
ENDBRANCH  40  41
ENDBRANCH  39  40
ENDBRANCH  36  39
ENDBRANCH   1  35
TORSDOF 15
ENDMDL
MODEL 2
REMARK VINA RESULT:    -7.389      2.220      7.547
REMARK INTER + INTRA:         -16.287
REMARK INTER:                 -11.863
REMARK INTRA:                  -4.424
REMARK CONF_INDEPENDENT:        4.474
REMARK UNBOUND:                -4.424
REMARK  15 active torsions:
REMARK  status: ('A' for Active; 'I' for Inactive)
REMARK    1  A    between atoms: C_2  and  C_3 
REMARK    2  A    between atoms: C_3  and  C_4 
REMARK    3  A    between atoms: C_4  and  N_5 
REMARK       I    between atoms: N_5  and  C_6 
REMARK    4  A    between atoms: C_8  and  C_6 
REMARK    5  A    between atoms: C_8  and  N_18 
REMARK    6  A    between atoms: C_8  and  C_9 
REMARK    7  A    between atoms: C_10  and  O_11 
REMARK    8  A    between atoms: C_13  and  O_14 
REMARK    9  A    between atoms: C_16  and  O_17 
REMARK   10  A    between atoms: N_18  and  C_19 
REMARK       I    between atoms: N_18  and  C_22 
REMARK   11  A    between atoms: C_19  and  C_20 
REMARK   12  A    between atoms: C_22  and  C_24 
REMARK   13  A    between atoms: C_24  and  O_25 
REMARK   14  A    between atoms: C_24  and  C_26 
REMARK   15  A    between atoms: C_24  and  C_32 
ROOT
ATOM      1  C   UNL d   1      26.020 -15.140  -0.902  0.00  0.00     0.218 C 
ENDROOT
BRANCH   1   2
ATOM      2  N   UNL d   1      26.845 -14.754  -2.148  0.00  0.00    -0.331 N 
ATOM      3  C   UNL d   1      26.350 -15.243  -3.397  0.00  0.00     0.265 C 
ATOM      4  O   UNL d   1      25.352 -15.983  -3.390  0.00  0.00    -0.269 OA
BRANCH   2   5
ATOM      5  C   UNL d   1      28.049 -13.914  -2.127  0.00  0.00     0.127 C 
BRANCH   5   6
ATOM      6  C   UNL d   1      27.969 -12.432  -1.985  0.00  0.00     0.015 C 
ATOM      7  C   UNL d   1      27.384 -11.785  -0.765  0.00  0.00     0.006 C 
ENDBRANCH   5   6
ENDBRANCH   2   5
BRANCH   3   8
ATOM      8  C   UNL d   1      27.074 -14.883  -4.808  0.00  0.00     0.194 C 
BRANCH   8   9
ATOM      9  O   UNL d   1      26.495 -15.575  -5.924  0.00  0.00    -0.371 OA
ATOM     10  H   UNL d   1      25.754 -16.122  -5.664  0.00  0.00     0.212 HD
ENDBRANCH   8   9
BRANCH   8  11
ATOM     11  C   UNL d   1      27.049 -13.340  -5.030  0.00  0.00    -0.010 C 
ATOM     12  C   UNL d   1      25.895 -12.557  -4.854  0.00  0.00     0.011 C 
ATOM     13  C   UNL d   1      25.922 -11.167  -5.025  0.00  0.00     0.001 C 
ATOM     14  C   UNL d   1      27.077 -10.528  -5.464  0.00  0.00     0.000 C 
ATOM     15  C   UNL d   1      28.222 -11.265  -5.660  0.00  0.00     0.001 C 
ATOM     16  C   UNL d   1      28.213 -12.616  -5.347  0.00  0.00     0.011 C 
ENDBRANCH   8  11
BRANCH   8  17
ATOM     17  C   UNL d   1      28.528 -15.473  -4.780  0.00  0.00    -0.010 A 
ATOM     18  C   UNL d   1      29.416 -15.349  -5.864  0.00  0.00     0.011 A 
ATOM     19  C   UNL d   1      30.627 -16.056  -5.884  0.00  0.00     0.001 A 
ATOM     20  C   UNL d   1      31.049 -16.782  -4.772  0.00  0.00     0.000 A 
ATOM     21  C   UNL d   1      30.230 -16.870  -3.669  0.00  0.00     0.001 A 
ATOM     22  C   UNL d   1      28.971 -16.296  -3.729  0.00  0.00     0.011 A 
ENDBRANCH   8  17
ENDBRANCH   3   8
ENDBRANCH   1   2
BRANCH   1  23
ATOM     23  C   UNL d   1      25.069 -16.383  -0.950  0.00  0.00     0.040 C 
ATOM     24  C   UNL d   1      25.429 -17.705  -0.594  0.00  0.00     0.080 C 
ATOM     25  C   UNL d   1      24.449 -18.638  -0.148  0.00  0.00     0.073 C 
ATOM     26  C   UNL d   1      23.100 -18.327  -0.237  0.00  0.00     0.071 C 
ATOM     27  C   UNL d   1      22.719 -17.138  -0.820  0.00  0.00     0.073 C 
ATOM     28  C   UNL d   1      23.696 -16.225  -1.225  0.00  0.00     0.080 C 
BRANCH  24  29
ATOM     29  O   UNL d   1      26.730 -18.098  -0.360  0.00  0.00    -0.360 OA
ATOM     30  H   UNL d   1      27.347 -17.464  -0.765  0.00  0.00     0.217 HD
ENDBRANCH  24  29
BRANCH  26  31
ATOM     31  O   UNL d   1      22.108 -19.162   0.183  0.00  0.00    -0.361 OA
ATOM     32  H   UNL d   1      22.499 -19.944   0.603  0.00  0.00     0.217 HD
ENDBRANCH  26  31
BRANCH  28  33
ATOM     33  O   UNL d   1      23.268 -15.199  -2.017  0.00  0.00    -0.360 OA
ATOM     34  H   UNL d   1      23.803 -15.207  -2.832  0.00  0.00     0.217 HD
ENDBRANCH  28  33
ENDBRANCH   1  23
BRANCH   1  35
ATOM     35  C   UNL d   1      27.154 -15.258   0.211  0.00  0.00     0.245 C 
ATOM     36  N   UNL d   1      27.027 -14.374   1.287  0.00  0.00    -0.359 N 
ATOM     37  H   UNL d   1      26.651 -13.457   1.034  0.00  0.00     0.162 HD
ATOM     38  O   UNL d   1      28.145 -15.952   0.087  0.00  0.00    -0.271 OA
BRANCH  36  39
ATOM     39  C   UNL d   1      28.015 -14.426   2.341  0.00  0.00     0.122 C 
BRANCH  39  40
ATOM     40  C   UNL d   1      27.574 -13.709   3.609  0.00  0.00     0.019 C 
BRANCH  40  41
ATOM     41  C   UNL d   1      27.770 -14.616   4.824  0.00  0.00    -0.003 C 
ATOM     42  C   UNL d   1      29.238 -14.704   5.198  0.00  0.00     0.005 C 
ENDBRANCH  40  41
ENDBRANCH  39  40
ENDBRANCH  36  39
ENDBRANCH   1  35
TORSDOF 15
ENDMDL
MODEL 3
REMARK VINA RESULT:    -7.070      1.774      3.903
REMARK INTER + INTRA:         -15.978
REMARK INTER:                 -11.544
REMARK INTRA:                  -4.434
REMARK CONF_INDEPENDENT:        4.474
REMARK UNBOUND:                -4.434
REMARK  15 active torsions:
REMARK  status: ('A' for Active; 'I' for Inactive)
REMARK    1  A    between atoms: C_2  and  C_3 
REMARK    2  A    between atoms: C_3  and  C_4 
REMARK    3  A    between atoms: C_4  and  N_5 
REMARK       I    between atoms: N_5  and  C_6 
REMARK    4  A    between atoms: C_8  and  C_6 
REMARK    5  A    between atoms: C_8  and  N_18 
REMARK    6  A    between atoms: C_8  and  C_9 
REMARK    7  A    between atoms: C_10  and  O_11 
REMARK    8  A    between atoms: C_13  and  O_14 
REMARK    9  A    between atoms: C_16  and  O_17 
REMARK   10  A    between atoms: N_18  and  C_19 
REMARK       I    between atoms: N_18  and  C_22 
REMARK   11  A    between atoms: C_19  and  C_20 
REMARK   12  A    between atoms: C_22  and  C_24 
REMARK   13  A    between atoms: C_24  and  O_25 
REMARK   14  A    between atoms: C_24  and  C_26 
REMARK   15  A    between atoms: C_24  and  C_32 
ROOT
ATOM      1  C   UNL d   1      26.341 -13.561  -4.808  0.00  0.00     0.218 C 
ENDROOT
BRANCH   1   2
ATOM      2  N   UNL d   1      26.458 -13.789  -3.286  0.00  0.00    -0.331 N 
ATOM      3  C   UNL d   1      25.943 -15.032  -2.803  0.00  0.00     0.265 C 
ATOM      4  O   UNL d   1      25.389 -15.798  -3.609  0.00  0.00    -0.269 OA
BRANCH   2   5
ATOM      5  C   UNL d   1      27.078 -12.848  -2.345  0.00  0.00     0.127 C 
BRANCH   5   6
ATOM      6  C   UNL d   1      28.538 -12.554  -2.378  0.00  0.00     0.015 C 
ATOM      7  C   UNL d   1      29.564 -13.645  -2.470  0.00  0.00     0.006 C 
ENDBRANCH   5   6
ENDBRANCH   2   5
BRANCH   3   8
ATOM      8  C   UNL d   1      26.036 -15.448  -1.233  0.00  0.00     0.194 C 
BRANCH   8   9
ATOM      9  O   UNL d   1      25.905 -14.324  -0.350  0.00  0.00    -0.371 OA
ATOM     10  H   UNL d   1      26.713 -13.816  -0.291  0.00  0.00     0.212 HD
ENDBRANCH   8   9
BRANCH   8  11
ATOM     11  C   UNL d   1      24.968 -16.538  -0.916  0.00  0.00    -0.010 C 
ATOM     12  C   UNL d   1      23.585 -16.323  -1.058  0.00  0.00     0.011 C 
ATOM     13  C   UNL d   1      22.658 -17.342  -0.800  0.00  0.00     0.001 C 
ATOM     14  C   UNL d   1      23.074 -18.574  -0.309  0.00  0.00     0.000 C 
ATOM     15  C   UNL d   1      24.419 -18.815  -0.145  0.00  0.00     0.001 C 
ATOM     16  C   UNL d   1      25.328 -17.845  -0.541  0.00  0.00     0.011 C 
ENDBRANCH   8  11
BRANCH   8  17
ATOM     17  C   UNL d   1      27.502 -15.924  -0.935  0.00  0.00    -0.010 A 
ATOM     18  C   UNL d   1      28.229 -15.480   0.184  0.00  0.00     0.011 A 
ATOM     19  C   UNL d   1      29.596 -15.766   0.309  0.00  0.00     0.001 A 
ATOM     20  C   UNL d   1      30.235 -16.617  -0.590  0.00  0.00     0.000 A 
ATOM     21  C   UNL d   1      29.532 -17.120  -1.662  0.00  0.00     0.001 A 
ATOM     22  C   UNL d   1      28.228 -16.700  -1.857  0.00  0.00     0.011 A 
ENDBRANCH   8  17
ENDBRANCH   3   8
ENDBRANCH   1   2
BRANCH   1  23
ATOM     23  C   UNL d   1      26.592 -12.134  -5.404  0.00  0.00     0.040 C 
ATOM     24  C   UNL d   1      27.419 -11.845  -6.517  0.00  0.00     0.080 C 
ATOM     25  C   UNL d   1      27.194 -10.688  -7.317  0.00  0.00     0.073 C 
ATOM     26  C   UNL d   1      26.282  -9.725  -6.909  0.00  0.00     0.071 C 
ATOM     27  C   UNL d   1      25.649  -9.868  -5.694  0.00  0.00     0.073 C 
ATOM     28  C   UNL d   1      25.862 -11.024  -4.937  0.00  0.00     0.080 C 
BRANCH  24  29
ATOM     29  O   UNL d   1      28.275 -12.765  -7.083  0.00  0.00    -0.360 OA
ATOM     30  H   UNL d   1      27.829 -13.626  -7.169  0.00  0.00     0.217 HD
ENDBRANCH  24  29
BRANCH  26  31
ATOM     31  O   UNL d   1      26.004  -8.602  -7.629  0.00  0.00    -0.361 OA
ATOM     32  H   UNL d   1      25.510  -7.977  -7.077  0.00  0.00     0.217 HD
ENDBRANCH  26  31
BRANCH  28  33
ATOM     33  O   UNL d   1      25.416 -10.988  -3.647  0.00  0.00    -0.360 OA
ATOM     34  H   UNL d   1      24.442 -11.025  -3.667  0.00  0.00     0.217 HD
ENDBRANCH  28  33
ENDBRANCH   1  23
BRANCH   1  35
ATOM     35  C   UNL d   1      27.337 -14.665  -5.377  0.00  0.00     0.245 C 
ATOM     36  N   UNL d   1      28.692 -14.434  -5.124  0.00  0.00    -0.359 N 
ATOM     37  H   UNL d   1      28.958 -13.446  -5.139  0.00  0.00     0.162 HD
ATOM     38  O   UNL d   1      26.985 -15.573  -6.108  0.00  0.00    -0.271 OA
BRANCH  36  39
ATOM     39  C   UNL d   1      29.657 -15.397  -5.603  0.00  0.00     0.122 C 
BRANCH  39  40
ATOM     40  C   UNL d   1      29.643 -16.700  -4.816  0.00  0.00     0.019 C 
BRANCH  40  41
ATOM     41  C   UNL d   1      30.893 -17.521  -5.131  0.00  0.00    -0.003 C 
ATOM     42  C   UNL d   1      30.778 -18.175  -6.495  0.00  0.00     0.005 C 
ENDBRANCH  40  41
ENDBRANCH  39  40
ENDBRANCH  36  39
ENDBRANCH   1  35
TORSDOF 15
ENDMDL
MODEL 4
REMARK VINA RESULT:    -6.840      2.881      6.505
REMARK INTER + INTRA:         -15.902
REMARK INTER:                 -11.315
REMARK INTRA:                  -4.587
REMARK CONF_INDEPENDENT:        4.474
REMARK UNBOUND:                -4.587
REMARK  15 active torsions:
REMARK  status: ('A' for Active; 'I' for Inactive)
REMARK    1  A    between atoms: C_2  and  C_3 
REMARK    2  A    between atoms: C_3  and  C_4 
REMARK    3  A    between atoms: C_4  and  N_5 
REMARK       I    between atoms: N_5  and  C_6 
REMARK    4  A    between atoms: C_8  and  C_6 
REMARK    5  A    between atoms: C_8  and  N_18 
REMARK    6  A    between atoms: C_8  and  C_9 
REMARK    7  A    between atoms: C_10  and  O_11 
REMARK    8  A    between atoms: C_13  and  O_14 
REMARK    9  A    between atoms: C_16  and  O_17 
REMARK   10  A    between atoms: N_18  and  C_19 
REMARK       I    between atoms: N_18  and  C_22 
REMARK   11  A    between atoms: C_19  and  C_20 
REMARK   12  A    between atoms: C_22  and  C_24 
REMARK   13  A    between atoms: C_24  and  O_25 
REMARK   14  A    between atoms: C_24  and  C_26 
REMARK   15  A    between atoms: C_24  and  C_32 
ROOT
ATOM      1  C   UNL d   1      27.902 -13.833   1.729  0.00  0.00     0.218 C 
ENDROOT
BRANCH   1   2
ATOM      2  N   UNL d   1      27.838 -15.089   0.834  0.00  0.00    -0.331 N 
ATOM      3  C   UNL d   1      26.582 -15.335   0.197  0.00  0.00     0.265 C 
ATOM      4  O   UNL d   1      25.631 -14.579   0.451  0.00  0.00    -0.269 OA
BRANCH   2   5
ATOM      5  C   UNL d   1      28.966 -15.995   0.582  0.00  0.00     0.127 C 
BRANCH   5   6
ATOM      6  C   UNL d   1      30.146 -15.573  -0.225  0.00  0.00     0.015 C 
ATOM      7  C   UNL d   1      31.550 -15.755   0.272  0.00  0.00     0.006 C 
ENDBRANCH   5   6
ENDBRANCH   2   5
BRANCH   3   8
ATOM      8  C   UNL d   1      26.365 -16.587  -0.819  0.00  0.00     0.194 C 
BRANCH   8   9
ATOM      9  O   UNL d   1      27.334 -17.629  -0.634  0.00  0.00    -0.371 OA
ATOM     10  H   UNL d   1      27.101 -18.215   0.086  0.00  0.00     0.212 HD
ENDBRANCH   8   9
BRANCH   8  11
ATOM     11  C   UNL d   1      24.914 -17.137  -0.668  0.00  0.00    -0.010 C 
ATOM     12  C   UNL d   1      23.770 -16.325  -0.768  0.00  0.00     0.011 C 
ATOM     13  C   UNL d   1      22.481 -16.863  -0.665  0.00  0.00     0.001 C 
ATOM     14  C   UNL d   1      22.295 -18.209  -0.369  0.00  0.00     0.000 C 
ATOM     15  C   UNL d   1      23.392 -19.031  -0.250  0.00  0.00     0.001 C 
ATOM     16  C   UNL d   1      24.653 -18.508  -0.498  0.00  0.00     0.011 C 
ENDBRANCH   8  11
BRANCH   8  17
ATOM     17  C   UNL d   1      26.686 -16.101  -2.276  0.00  0.00    -0.010 A 
ATOM     18  C   UNL d   1      28.001 -15.950  -2.751  0.00  0.00     0.011 A 
ATOM     19  C   UNL d   1      28.252 -15.326  -3.981  0.00  0.00     0.001 A 
ATOM     20  C   UNL d   1      27.205 -14.974  -4.831  0.00  0.00     0.000 A 
ATOM     21  C   UNL d   1      25.905 -15.169  -4.422  0.00  0.00     0.001 A 
ATOM     22  C   UNL d   1      25.676 -15.639  -3.140  0.00  0.00     0.011 A 
ENDBRANCH   8  17
ENDBRANCH   3   8
ENDBRANCH   1   2
BRANCH   1  23
ATOM     23  C   UNL d   1      29.081 -13.660   2.746  0.00  0.00     0.040 C 
ATOM     24  C   UNL d   1      30.275 -12.939   2.502  0.00  0.00     0.080 C 
ATOM     25  C   UNL d   1      31.023 -12.375   3.574  0.00  0.00     0.073 C 
ATOM     26  C   UNL d   1      30.699 -12.682   4.888  0.00  0.00     0.071 C 
ATOM     27  C   UNL d   1      29.692 -13.589   5.140  0.00  0.00     0.073 C 
ATOM     28  C   UNL d   1      28.952 -14.110   4.075  0.00  0.00     0.080 C 
BRANCH  24  29
ATOM     29  O   UNL d   1      30.638 -12.477   1.255  0.00  0.00    -0.360 OA
ATOM     30  H   UNL d   1      29.992 -11.820   0.942  0.00  0.00     0.217 HD
ENDBRANCH  24  29
BRANCH  26  31
ATOM     31  O   UNL d   1      31.359 -12.169   5.964  0.00  0.00    -0.361 OA
ATOM     32  H   UNL d   1      32.195 -12.645   6.089  0.00  0.00     0.217 HD
ENDBRANCH  26  31
BRANCH  28  33
ATOM     33  O   UNL d   1      28.155 -15.180   4.364  0.00  0.00    -0.360 OA
ATOM     34  H   UNL d   1      28.530 -15.961   3.918  0.00  0.00     0.217 HD
ENDBRANCH  28  33
ENDBRANCH   1  23
BRANCH   1  35
ATOM     35  C   UNL d   1      27.825 -12.664   0.650  0.00  0.00     0.245 C 
ATOM     36  N   UNL d   1      28.593 -12.864  -0.502  0.00  0.00    -0.359 N 
ATOM     37  H   UNL d   1      29.477 -13.352  -0.337  0.00  0.00     0.162 HD
ATOM     38  O   UNL d   1      27.267 -11.602   0.851  0.00  0.00    -0.271 OA
BRANCH  36  39
ATOM     39  C   UNL d   1      28.568 -11.849  -1.531  0.00  0.00     0.122 C 
BRANCH  39  40
ATOM     40  C   UNL d   1      27.778 -12.266  -2.762  0.00  0.00     0.019 C 
BRANCH  40  41
ATOM     41  C   UNL d   1      26.284 -12.035  -2.535  0.00  0.00    -0.003 C 
ATOM     42  C   UNL d   1      25.537 -12.007  -3.855  0.00  0.00     0.005 C 
ENDBRANCH  40  41
ENDBRANCH  39  40
ENDBRANCH  36  39
ENDBRANCH   1  35
TORSDOF 15
ENDMDL
MODEL 5
REMARK VINA RESULT:    -6.837      1.829      2.666
REMARK INTER + INTRA:         -15.904
REMARK INTER:                 -11.311
REMARK INTRA:                  -4.593
REMARK CONF_INDEPENDENT:        4.474
REMARK UNBOUND:                -4.593
REMARK  15 active torsions:
REMARK  status: ('A' for Active; 'I' for Inactive)
REMARK    1  A    between atoms: C_2  and  C_3 
REMARK    2  A    between atoms: C_3  and  C_4 
REMARK    3  A    between atoms: C_4  and  N_5 
REMARK       I    between atoms: N_5  and  C_6 
REMARK    4  A    between atoms: C_8  and  C_6 
REMARK    5  A    between atoms: C_8  and  N_18 
REMARK    6  A    between atoms: C_8  and  C_9 
REMARK    7  A    between atoms: C_10  and  O_11 
REMARK    8  A    between atoms: C_13  and  O_14 
REMARK    9  A    between atoms: C_16  and  O_17 
REMARK   10  A    between atoms: N_18  and  C_19 
REMARK       I    between atoms: N_18  and  C_22 
REMARK   11  A    between atoms: C_19  and  C_20 
REMARK   12  A    between atoms: C_22  and  C_24 
REMARK   13  A    between atoms: C_24  and  O_25 
REMARK   14  A    between atoms: C_24  and  C_26 
REMARK   15  A    between atoms: C_24  and  C_32 
ROOT
ATOM      1  C   UNL d   1      27.796 -15.175  -4.558  0.00  0.00     0.218 C 
ENDROOT
BRANCH   1   2
ATOM      2  N   UNL d   1      27.814 -15.676  -3.098  0.00  0.00    -0.331 N 
ATOM      3  C   UNL d   1      26.544 -16.029  -2.546  0.00  0.00     0.265 C 
ATOM      4  O   UNL d   1      25.527 -15.851  -3.237  0.00  0.00    -0.269 OA
BRANCH   2   5
ATOM      5  C   UNL d   1      29.025 -15.836  -2.284  0.00  0.00     0.127 C 
BRANCH   5   6
ATOM      6  C   UNL d   1      29.653 -14.684  -1.576  0.00  0.00     0.015 C 
ATOM      7  C   UNL d   1      30.786 -13.907  -2.180  0.00  0.00     0.006 C 
ENDBRANCH   5   6
ENDBRANCH   2   5
BRANCH   3   8
ATOM      8  C   UNL d   1      26.397 -16.622  -1.038  0.00  0.00     0.194 C 
BRANCH   8   9
ATOM      9  O   UNL d   1      27.157 -17.822  -0.835  0.00  0.00    -0.371 OA
ATOM     10  H   UNL d   1      28.053 -17.639  -0.556  0.00  0.00     0.212 HD
ENDBRANCH   8   9
BRANCH   8  11
ATOM     11  C   UNL d   1      26.793 -15.525  -0.004  0.00  0.00    -0.010 C 
ATOM     12  C   UNL d   1      27.739 -15.735   1.015  0.00  0.00     0.011 C 
ATOM     13  C   UNL d   1      28.097 -14.711   1.902  0.00  0.00     0.001 C 
ATOM     14  C   UNL d   1      27.459 -13.476   1.856  0.00  0.00     0.000 C 
ATOM     15  C   UNL d   1      26.518 -13.240   0.880  0.00  0.00     0.001 C 
ATOM     16  C   UNL d   1      26.282 -14.216  -0.076  0.00  0.00     0.011 C 
ENDBRANCH   8  11
BRANCH   8  17
ATOM     17  C   UNL d   1      24.925 -17.135  -0.852  0.00  0.00    -0.010 A 
ATOM     18  C   UNL d   1      23.811 -16.278  -0.920  0.00  0.00     0.011 A 
ATOM     19  C   UNL d   1      22.536 -16.730  -0.552  0.00  0.00     0.001 A 
ATOM     20  C   UNL d   1      22.312 -18.072  -0.251  0.00  0.00     0.000 A 
ATOM     21  C   UNL d   1      23.373 -18.950  -0.238  0.00  0.00     0.001 A 
ATOM     22  C   UNL d   1      24.648 -18.454  -0.450  0.00  0.00     0.011 A 
ENDBRANCH   8  17
ENDBRANCH   3   8
ENDBRANCH   1   2
BRANCH   1  23
ATOM     23  C   UNL d   1      27.407 -13.690  -4.868  0.00  0.00     0.040 C 
ATOM     24  C   UNL d   1      27.795 -12.965  -6.021  0.00  0.00     0.080 C 
ATOM     25  C   UNL d   1      27.012 -11.876  -6.502  0.00  0.00     0.073 C 
ATOM     26  C   UNL d   1      25.960 -11.386  -5.740  0.00  0.00     0.071 C 
ATOM     27  C   UNL d   1      25.726 -11.918  -4.492  0.00  0.00     0.073 C 
ATOM     28  C   UNL d   1      26.487 -13.004  -4.051  0.00  0.00     0.080 C 
BRANCH  24  29
ATOM     29  O   UNL d   1      28.743 -13.416  -6.915  0.00  0.00    -0.360 OA
ATOM     30  H   UNL d   1      29.636 -13.207  -6.587  0.00  0.00     0.217 HD
ENDBRANCH  24  29
BRANCH  26  31
ATOM     31  O   UNL d   1      25.160 -10.359  -6.141  0.00  0.00    -0.361 OA
ATOM     32  H   UNL d   1      24.242 -10.666  -6.200  0.00  0.00     0.217 HD
ENDBRANCH  26  31
BRANCH  28  33
ATOM     33  O   UNL d   1      26.382 -13.313  -2.726  0.00  0.00    -0.360 OA
ATOM     34  H   UNL d   1      25.537 -13.781  -2.594  0.00  0.00     0.217 HD
ENDBRANCH  28  33
ENDBRANCH   1  23
BRANCH   1  35
ATOM     35  C   UNL d   1      29.262 -15.557  -5.047  0.00  0.00     0.245 C 
ATOM     36  N   UNL d   1      29.521 -16.928  -5.143  0.00  0.00    -0.359 N 
ATOM     37  H   UNL d   1      29.055 -17.493  -4.429  0.00  0.00     0.162 HD
ATOM     38  O   UNL d   1      30.155 -14.743  -5.192  0.00  0.00    -0.271 OA
BRANCH  36  39
ATOM     39  C   UNL d   1      30.829 -17.354  -5.589  0.00  0.00     0.122 C 
BRANCH  39  40
ATOM     40  C   UNL d   1      30.788 -18.151  -6.884  0.00  0.00     0.019 C 
BRANCH  40  41
ATOM     41  C   UNL d   1      30.408 -19.604  -6.598  0.00  0.00    -0.003 C 
ATOM     42  C   UNL d   1      30.706 -19.963  -5.153  0.00  0.00     0.005 C 
ENDBRANCH  40  41
ENDBRANCH  39  40
ENDBRANCH  36  39
ENDBRANCH   1  35
TORSDOF 15
ENDMDL
MODEL 6
REMARK VINA RESULT:    -6.588      2.349      6.038
REMARK INTER + INTRA:         -16.627
REMARK INTER:                 -11.063
REMARK INTRA:                  -5.564
REMARK CONF_INDEPENDENT:        4.474
REMARK UNBOUND:                -5.564
REMARK  15 active torsions:
REMARK  status: ('A' for Active; 'I' for Inactive)
REMARK    1  A    between atoms: C_2  and  C_3 
REMARK    2  A    between atoms: C_3  and  C_4 
REMARK    3  A    between atoms: C_4  and  N_5 
REMARK       I    between atoms: N_5  and  C_6 
REMARK    4  A    between atoms: C_8  and  C_6 
REMARK    5  A    between atoms: C_8  and  N_18 
REMARK    6  A    between atoms: C_8  and  C_9 
REMARK    7  A    between atoms: C_10  and  O_11 
REMARK    8  A    between atoms: C_13  and  O_14 
REMARK    9  A    between atoms: C_16  and  O_17 
REMARK   10  A    between atoms: N_18  and  C_19 
REMARK       I    between atoms: N_18  and  C_22 
REMARK   11  A    between atoms: C_19  and  C_20 
REMARK   12  A    between atoms: C_22  and  C_24 
REMARK   13  A    between atoms: C_24  and  O_25 
REMARK   14  A    between atoms: C_24  and  C_26 
REMARK   15  A    between atoms: C_24  and  C_32 
ROOT
ATOM      1  C   UNL d   1      26.147 -16.397  -2.029  0.00  0.00     0.218 C 
ENDROOT
BRANCH   1   2
ATOM      2  N   UNL d   1      27.436 -15.805  -1.420  0.00  0.00    -0.331 N 
ATOM      3  C   UNL d   1      27.257 -14.980  -0.268  0.00  0.00     0.265 C 
ATOM      4  O   UNL d   1      26.100 -14.744   0.118  0.00  0.00    -0.269 OA
BRANCH   2   5
ATOM      5  C   UNL d   1      28.792 -16.063  -1.922  0.00  0.00     0.127 C 
BRANCH   5   6
ATOM      6  C   UNL d   1      29.350 -15.324  -3.090  0.00  0.00     0.015 C 
ATOM      7  C   UNL d   1      28.866 -15.573  -4.488  0.00  0.00     0.006 C 
ENDBRANCH   5   6
ENDBRANCH   2   5
BRANCH   3   8
ATOM      8  C   UNL d   1      28.518 -14.322   0.522  0.00  0.00     0.194 C 
BRANCH   8   9
ATOM      9  O   UNL d   1      29.558 -15.270   0.798  0.00  0.00    -0.371 OA
ATOM     10  H   UNL d   1      29.282 -15.936   1.428  0.00  0.00     0.212 HD
ENDBRANCH   8   9
BRANCH   8  11
ATOM     11  C   UNL d   1      29.066 -13.107  -0.287  0.00  0.00    -0.010 C 
ATOM     12  C   UNL d   1      28.333 -12.465  -1.300  0.00  0.00     0.011 C 
ATOM     13  C   UNL d   1      28.845 -11.351  -1.979  0.00  0.00     0.001 C 
ATOM     14  C   UNL d   1      30.137 -10.901  -1.731  0.00  0.00     0.000 C 
ATOM     15  C   UNL d   1      30.889 -11.514  -0.756  0.00  0.00     0.001 C 
ATOM     16  C   UNL d   1      30.312 -12.522   0.003  0.00  0.00     0.011 C 
ENDBRANCH   8  11
BRANCH   8  17
ATOM     17  C   UNL d   1      28.044 -13.930   1.966  0.00  0.00    -0.010 A 
ATOM     18  C   UNL d   1      27.630 -12.628   2.299  0.00  0.00     0.011 A 
ATOM     19  C   UNL d   1      27.407 -12.267   3.636  0.00  0.00     0.001 A 
ATOM     20  C   UNL d   1      27.446 -13.221   4.651  0.00  0.00     0.000 A 
ATOM     21  C   UNL d   1      27.786 -14.520   4.347  0.00  0.00     0.001 A 
ATOM     22  C   UNL d   1      28.157 -14.823   3.048  0.00  0.00     0.011 A 
ENDBRANCH   8  17
ENDBRANCH   3   8
ENDBRANCH   1   2
BRANCH   1  23
ATOM     23  C   UNL d   1      24.952 -16.789  -1.095  0.00  0.00     0.040 C 
ATOM     24  C   UNL d   1      23.631 -16.291  -1.202  0.00  0.00     0.080 C 
ATOM     25  C   UNL d   1      22.522 -17.042  -0.720  0.00  0.00     0.073 C 
ATOM     26  C   UNL d   1      22.732 -18.189   0.033  0.00  0.00     0.071 C 
ATOM     27  C   UNL d   1      24.019 -18.552   0.364  0.00  0.00     0.073 C 
ATOM     28  C   UNL d   1      25.094 -17.816  -0.142  0.00  0.00     0.080 C 
BRANCH  24  29
ATOM     29  O   UNL d   1      23.285 -15.233  -2.016  0.00  0.00    -0.360 OA
ATOM     30  H   UNL d   1      23.742 -15.307  -2.872  0.00  0.00     0.217 HD
ENDBRANCH  24  29
BRANCH  26  31
ATOM     31  O   UNL d   1      21.721 -18.966   0.515  0.00  0.00    -0.361 OA
ATOM     32  H   UNL d   1      22.027 -19.883   0.595  0.00  0.00     0.217 HD
ENDBRANCH  26  31
BRANCH  28  33
ATOM     33  O   UNL d   1      26.312 -18.066   0.423  0.00  0.00    -0.360 OA
ATOM     34  H   UNL d   1      26.853 -17.261   0.334  0.00  0.00     0.217 HD
ENDBRANCH  28  33
ENDBRANCH   1  23
BRANCH   1  35
ATOM     35  C   UNL d   1      25.765 -15.293  -3.111  0.00  0.00     0.245 C 
ATOM     36  N   UNL d   1      25.548 -14.009  -2.602  0.00  0.00    -0.359 N 
ATOM     37  H   UNL d   1      25.111 -13.994  -1.677  0.00  0.00     0.162 HD
ATOM     38  O   UNL d   1      25.529 -15.550  -4.277  0.00  0.00    -0.271 OA
BRANCH  36  39
ATOM     39  C   UNL d   1      25.205 -12.951  -3.524  0.00  0.00     0.122 C 
BRANCH  39  40
ATOM     40  C   UNL d   1      26.343 -12.585  -4.465  0.00  0.00     0.019 C 
BRANCH  40  41
ATOM     41  C   UNL d   1      26.328 -11.085  -4.755  0.00  0.00    -0.003 C 
ATOM     42  C   UNL d   1      25.933 -10.302  -3.516  0.00  0.00     0.005 C 
ENDBRANCH  40  41
ENDBRANCH  39  40
ENDBRANCH  36  39
ENDBRANCH   1  35
TORSDOF 15
ENDMDL
MODEL 7
REMARK VINA RESULT:    -6.473      2.244      6.952
REMARK INTER + INTRA:         -16.077
REMARK INTER:                 -10.948
REMARK INTRA:                  -5.130
REMARK CONF_INDEPENDENT:        4.474
REMARK UNBOUND:                -5.130
REMARK  15 active torsions:
REMARK  status: ('A' for Active; 'I' for Inactive)
REMARK    1  A    between atoms: C_2  and  C_3 
REMARK    2  A    between atoms: C_3  and  C_4 
REMARK    3  A    between atoms: C_4  and  N_5 
REMARK       I    between atoms: N_5  and  C_6 
REMARK    4  A    between atoms: C_8  and  C_6 
REMARK    5  A    between atoms: C_8  and  N_18 
REMARK    6  A    between atoms: C_8  and  C_9 
REMARK    7  A    between atoms: C_10  and  O_11 
REMARK    8  A    between atoms: C_13  and  O_14 
REMARK    9  A    between atoms: C_16  and  O_17 
REMARK   10  A    between atoms: N_18  and  C_19 
REMARK       I    between atoms: N_18  and  C_22 
REMARK   11  A    between atoms: C_19  and  C_20 
REMARK   12  A    between atoms: C_22  and  C_24 
REMARK   13  A    between atoms: C_24  and  O_25 
REMARK   14  A    between atoms: C_24  and  C_26 
REMARK   15  A    between atoms: C_24  and  C_32 
ROOT
ATOM      1  C   UNL d   1      26.203 -15.725  -0.720  0.00  0.00     0.218 C 
ENDROOT
BRANCH   1   2
ATOM      2  N   UNL d   1      26.734 -15.058  -2.007  0.00  0.00    -0.331 N 
ATOM      3  C   UNL d   1      26.258 -15.612  -3.236  0.00  0.00     0.265 C 
ATOM      4  O   UNL d   1      25.521 -16.611  -3.189  0.00  0.00    -0.269 OA
BRANCH   2   5
ATOM      5  C   UNL d   1      27.642 -13.904  -2.038  0.00  0.00     0.127 C 
BRANCH   5   6
ATOM      6  C   UNL d   1      27.498 -12.768  -1.084  0.00  0.00     0.015 C 
ATOM      7  C   UNL d   1      27.808 -12.917   0.376  0.00  0.00     0.006 C 
ENDBRANCH   5   6
ENDBRANCH   2   5
BRANCH   3   8
ATOM      8  C   UNL d   1      26.681 -14.992  -4.679  0.00  0.00     0.194 C 
BRANCH   8   9
ATOM      9  O   UNL d   1      25.955 -15.575  -5.770  0.00  0.00    -0.371 OA
ATOM     10  H   UNL d   1      25.385 -16.288  -5.485  0.00  0.00     0.212 HD
ENDBRANCH   8   9
BRANCH   8  11
ATOM     11  C   UNL d   1      26.507 -13.442  -4.653  0.00  0.00    -0.010 C 
ATOM     12  C   UNL d   1      25.585 -12.787  -3.819  0.00  0.00     0.011 C 
ATOM     13  C   UNL d   1      25.485 -11.389  -3.796  0.00  0.00     0.001 C 
ATOM     14  C   UNL d   1      26.237 -10.610  -4.668  0.00  0.00     0.000 C 
ATOM     15  C   UNL d   1      27.140 -11.218  -5.508  0.00  0.00     0.001 C 
ATOM     16  C   UNL d   1      27.327 -12.590  -5.414  0.00  0.00     0.011 C 
ENDBRANCH   8  11
BRANCH   8  17
ATOM     17  C   UNL d   1      28.153 -15.436  -4.994  0.00  0.00    -0.010 A 
ATOM     18  C   UNL d   1      29.015 -15.950  -4.008  0.00  0.00     0.011 A 
ATOM     19  C   UNL d   1      30.377 -16.148  -4.279  0.00  0.00     0.001 A 
ATOM     20  C   UNL d   1      30.881 -15.980  -5.568  0.00  0.00     0.000 A 
ATOM     21  C   UNL d   1      30.047 -15.539  -6.570  0.00  0.00     0.001 A 
ATOM     22  C   UNL d   1      28.744 -15.198  -6.248  0.00  0.00     0.011 A 
ENDBRANCH   8  17
ENDBRANCH   3   8
ENDBRANCH   1   2
BRANCH   1  23
ATOM     23  C   UNL d   1      25.009 -16.735  -0.800  0.00  0.00     0.040 C 
ATOM     24  C   UNL d   1      25.064 -18.101  -0.430  0.00  0.00     0.080 C 
ATOM     25  C   UNL d   1      23.893 -18.798  -0.018  0.00  0.00     0.073 C 
ATOM     26  C   UNL d   1      22.645 -18.204  -0.154  0.00  0.00     0.071 C 
ATOM     27  C   UNL d   1      22.549 -16.966  -0.751  0.00  0.00     0.073 C 
ATOM     28  C   UNL d   1      23.713 -16.288  -1.123  0.00  0.00     0.080 C 
BRANCH  24  29
ATOM     29  O   UNL d   1      26.242 -18.762  -0.152  0.00  0.00    -0.360 OA
ATOM     30  H   UNL d   1      26.784 -18.234   0.460  0.00  0.00     0.217 HD
ENDBRANCH  24  29
BRANCH  26  31
ATOM     31  O   UNL d   1      21.484 -18.803   0.232  0.00  0.00    -0.361 OA
ATOM     32  H   UNL d   1      21.676 -19.492   0.887  0.00  0.00     0.217 HD
ENDBRANCH  26  31
BRANCH  28  33
ATOM     33  O   UNL d   1      23.542 -15.200  -1.930  0.00  0.00    -0.360 OA
ATOM     34  H   UNL d   1      23.920 -15.414  -2.803  0.00  0.00     0.217 HD
ENDBRANCH  28  33
ENDBRANCH   1  23
BRANCH   1  35
ATOM     35  C   UNL d   1      27.531 -16.366  -0.119  0.00  0.00     0.245 C 
ATOM     36  N   UNL d   1      28.239 -17.199  -0.991  0.00  0.00    -0.359 N 
ATOM     37  H   UNL d   1      27.647 -17.744  -1.623  0.00  0.00     0.162 HD
ATOM     38  O   UNL d   1      27.850 -16.275   1.052  0.00  0.00    -0.271 OA
BRANCH  36  39
ATOM     39  C   UNL d   1      29.460 -17.812  -0.520  0.00  0.00     0.122 C 
BRANCH  39  40
ATOM     40  C   UNL d   1      30.712 -17.181  -1.110  0.00  0.00     0.019 C 
BRANCH  40  41
ATOM     41  C   UNL d   1      31.321 -16.189  -0.120  0.00  0.00    -0.003 C 
ATOM     42  C   UNL d   1      30.815 -14.784  -0.386  0.00  0.00     0.005 C 
ENDBRANCH  40  41
ENDBRANCH  39  40
ENDBRANCH  36  39
ENDBRANCH   1  35
TORSDOF 15
ENDMDL
MODEL 8
REMARK VINA RESULT:    -6.124      3.222      6.803
REMARK INTER + INTRA:         -16.059
REMARK INTER:                 -10.599
REMARK INTRA:                  -5.461
REMARK CONF_INDEPENDENT:        4.474
REMARK UNBOUND:                -5.461
REMARK  15 active torsions:
REMARK  status: ('A' for Active; 'I' for Inactive)
REMARK    1  A    between atoms: C_2  and  C_3 
REMARK    2  A    between atoms: C_3  and  C_4 
REMARK    3  A    between atoms: C_4  and  N_5 
REMARK       I    between atoms: N_5  and  C_6 
REMARK    4  A    between atoms: C_8  and  C_6 
REMARK    5  A    between atoms: C_8  and  N_18 
REMARK    6  A    between atoms: C_8  and  C_9 
REMARK    7  A    between atoms: C_10  and  O_11 
REMARK    8  A    between atoms: C_13  and  O_14 
REMARK    9  A    between atoms: C_16  and  O_17 
REMARK   10  A    between atoms: N_18  and  C_19 
REMARK       I    between atoms: N_18  and  C_22 
REMARK   11  A    between atoms: C_19  and  C_20 
REMARK   12  A    between atoms: C_22  and  C_24 
REMARK   13  A    between atoms: C_24  and  O_25 
REMARK   14  A    between atoms: C_24  and  C_26 
REMARK   15  A    between atoms: C_24  and  C_32 
ROOT
ATOM      1  C   UNL d   1      29.722 -13.521   1.419  0.00  0.00     0.218 C 
ENDROOT
BRANCH   1   2
ATOM      2  N   UNL d   1      28.681 -13.554   0.279  0.00  0.00    -0.331 N 
ATOM      3  C   UNL d   1      28.015 -14.803   0.082  0.00  0.00     0.265 C 
ATOM      4  O   UNL d   1      28.356 -15.773   0.778  0.00  0.00    -0.269 OA
BRANCH   2   5
ATOM      5  C   UNL d   1      28.325 -12.404  -0.562  0.00  0.00     0.127 C 
BRANCH   5   6
ATOM      6  C   UNL d   1      27.637 -11.206  -0.002  0.00  0.00     0.015 C 
ATOM      7  C   UNL d   1      27.180 -11.152   1.426  0.00  0.00     0.006 C 
ENDBRANCH   5   6
ENDBRANCH   2   5
BRANCH   3   8
ATOM      8  C   UNL d   1      26.855 -14.990  -1.043  0.00  0.00     0.194 C 
BRANCH   8   9
ATOM      9  O   UNL d   1      25.905 -13.915  -1.047  0.00  0.00    -0.371 OA
ATOM     10  H   UNL d   1      25.452 -13.836  -1.886  0.00  0.00     0.212 HD
ENDBRANCH   8   9
BRANCH   8  11
ATOM     11  C   UNL d   1      27.511 -15.165  -2.447  0.00  0.00    -0.010 C 
ATOM     12  C   UNL d   1      26.788 -15.079  -3.649  0.00  0.00     0.011 C 
ATOM     13  C   UNL d   1      27.421 -15.203  -4.893  0.00  0.00     0.001 C 
ATOM     14  C   UNL d   1      28.776 -15.506  -4.973  0.00  0.00     0.000 C 
ATOM     15  C   UNL d   1      29.513 -15.611  -3.815  0.00  0.00     0.001 C 
ATOM     16  C   UNL d   1      28.898 -15.342  -2.601  0.00  0.00     0.011 C 
ENDBRANCH   8  11
BRANCH   8  17
ATOM     17  C   UNL d   1      25.960 -16.211  -0.630  0.00  0.00    -0.010 A 
ATOM     18  C   UNL d   1      26.503 -17.430  -0.185  0.00  0.00     0.011 A 
ATOM     19  C   UNL d   1      25.688 -18.559  -0.018  0.00  0.00     0.001 A 
ATOM     20  C   UNL d   1      24.303 -18.467  -0.145  0.00  0.00     0.000 A 
ATOM     21  C   UNL d   1      23.736 -17.270  -0.518  0.00  0.00     0.001 A 
ATOM     22  C   UNL d   1      24.568 -16.209  -0.832  0.00  0.00     0.011 A 
ENDBRANCH   8  17
ENDBRANCH   3   8
ENDBRANCH   1   2
BRANCH   1  23
ATOM     23  C   UNL d   1      29.359 -14.112   2.824  0.00  0.00     0.040 C 
ATOM     24  C   UNL d   1      30.267 -14.746   3.706  0.00  0.00     0.080 C 
ATOM     25  C   UNL d   1      30.034 -14.767   5.110  0.00  0.00     0.073 C 
ATOM     26  C   UNL d   1      28.818 -14.333   5.620  0.00  0.00     0.071 C 
ATOM     27  C   UNL d   1      27.821 -13.948   4.751  0.00  0.00     0.073 C 
ATOM     28  C   UNL d   1      28.080 -13.908   3.378  0.00  0.00     0.080 C 
BRANCH  24  29
ATOM     29  O   UNL d   1      31.546 -15.110   3.341  0.00  0.00    -0.360 OA
ATOM     30  H   UNL d   1      32.110 -15.183   4.131  0.00  0.00     0.217 HD
ENDBRANCH  24  29
BRANCH  26  31
ATOM     31  O   UNL d   1      28.528 -14.311   6.951  0.00  0.00    -0.361 OA
ATOM     32  H   UNL d   1      28.626 -15.203   7.320  0.00  0.00     0.217 HD
ENDBRANCH  26  31
BRANCH  28  33
ATOM     33  O   UNL d   1      26.993 -13.769   2.565  0.00  0.00    -0.360 OA
ATOM     34  H   UNL d   1      26.973 -14.532   1.960  0.00  0.00     0.217 HD
ENDBRANCH  28  33
ENDBRANCH   1  23
BRANCH   1  35
ATOM     35  C   UNL d   1      30.969 -14.239   0.737  0.00  0.00     0.245 C 
ATOM     36  N   UNL d   1      30.942 -15.636   0.766  0.00  0.00    -0.359 N 
ATOM     37  H   UNL d   1      30.524 -16.030   1.613  0.00  0.00     0.162 HD
ATOM     38  O   UNL d   1      31.954 -13.642   0.346  0.00  0.00    -0.271 OA
BRANCH  36  39
ATOM     39  C   UNL d   1      32.037 -16.360   0.159  0.00  0.00     0.122 C 
BRANCH  39  40
ATOM     40  C   UNL d   1      31.941 -16.427  -1.357  0.00  0.00     0.019 C 
BRANCH  40  41
ATOM     41  C   UNL d   1      31.232 -17.712  -1.785  0.00  0.00    -0.003 C 
ATOM     42  C   UNL d   1      30.032 -17.986  -0.897  0.00  0.00     0.005 C 
ENDBRANCH  40  41
ENDBRANCH  39  40
ENDBRANCH  36  39
ENDBRANCH   1  35
TORSDOF 15
ENDMDL
MODEL 9
REMARK VINA RESULT:    -6.007      2.803      6.384
REMARK INTER + INTRA:         -16.142
REMARK INTER:                 -10.482
REMARK INTRA:                  -5.660
REMARK CONF_INDEPENDENT:        4.474
REMARK UNBOUND:                -5.660
REMARK  15 active torsions:
REMARK  status: ('A' for Active; 'I' for Inactive)
REMARK    1  A    between atoms: C_2  and  C_3 
REMARK    2  A    between atoms: C_3  and  C_4 
REMARK    3  A    between atoms: C_4  and  N_5 
REMARK       I    between atoms: N_5  and  C_6 
REMARK    4  A    between atoms: C_8  and  C_6 
REMARK    5  A    between atoms: C_8  and  N_18 
REMARK    6  A    between atoms: C_8  and  C_9 
REMARK    7  A    between atoms: C_10  and  O_11 
REMARK    8  A    between atoms: C_13  and  O_14 
REMARK    9  A    between atoms: C_16  and  O_17 
REMARK   10  A    between atoms: N_18  and  C_19 
REMARK       I    between atoms: N_18  and  C_22 
REMARK   11  A    between atoms: C_19  and  C_20 
REMARK   12  A    between atoms: C_22  and  C_24 
REMARK   13  A    between atoms: C_24  and  O_25 
REMARK   14  A    between atoms: C_24  and  C_26 
REMARK   15  A    between atoms: C_24  and  C_32 
ROOT
ATOM      1  C   UNL d   1      27.428 -16.073  -0.788  0.00  0.00     0.218 C 
ENDROOT
BRANCH   1   2
ATOM      2  N   UNL d   1      28.024 -15.008   0.158  0.00  0.00    -0.331 N 
ATOM      3  C   UNL d   1      27.092 -14.073   0.705  0.00  0.00     0.265 C 
ATOM      4  O   UNL d   1      25.906 -14.135   0.342  0.00  0.00    -0.269 OA
BRANCH   2   5
ATOM      5  C   UNL d   1      29.439 -14.926   0.539  0.00  0.00     0.127 C 
BRANCH   5   6
ATOM      6  C   UNL d   1      30.504 -15.612  -0.247  0.00  0.00     0.015 C 
ATOM      7  C   UNL d   1      30.526 -17.103  -0.417  0.00  0.00     0.006 C 
ENDBRANCH   5   6
ENDBRANCH   2   5
BRANCH   3   8
ATOM      8  C   UNL d   1      27.551 -12.920   1.758  0.00  0.00     0.194 C 
BRANCH   8   9
ATOM      9  O   UNL d   1      26.490 -12.012   2.087  0.00  0.00    -0.371 OA
ATOM     10  H   UNL d   1      25.666 -12.250   1.661  0.00  0.00     0.212 HD
ENDBRANCH   8   9
BRANCH   8  11
ATOM     11  C   UNL d   1      28.136 -13.586   3.040  0.00  0.00    -0.010 C 
ATOM     12  C   UNL d   1      29.516 -13.676   3.298  0.00  0.00     0.011 C 
ATOM     13  C   UNL d   1      30.002 -14.248   4.481  0.00  0.00     0.001 C 
ATOM     14  C   UNL d   1      29.133 -14.828   5.399  0.00  0.00     0.000 C 
ATOM     15  C   UNL d   1      27.778 -14.770   5.173  0.00  0.00     0.001 C 
ATOM     16  C   UNL d   1      27.310 -14.074   4.068  0.00  0.00     0.011 C 
ENDBRANCH   8  11
BRANCH   8  17
ATOM     17  C   UNL d   1      28.575 -11.975   1.038  0.00  0.00    -0.010 A 
ATOM     18  C   UNL d   1      29.361 -11.039   1.735  0.00  0.00     0.011 A 
ATOM     19  C   UNL d   1      30.114 -10.079   1.045  0.00  0.00     0.001 A 
ATOM     20  C   UNL d   1      30.220 -10.116  -0.344  0.00  0.00     0.000 A 
ATOM     21  C   UNL d   1      29.513 -11.062  -1.052  0.00  0.00     0.001 A 
ATOM     22  C   UNL d   1      28.652 -11.900  -0.365  0.00  0.00     0.011 A 
ENDBRANCH   8  17
ENDBRANCH   3   8
ENDBRANCH   1   2
BRANCH   1  23
ATOM     23  C   UNL d   1      25.997 -16.647  -0.513  0.00  0.00     0.040 C 
ATOM     24  C   UNL d   1      24.808 -16.226  -1.156  0.00  0.00     0.080 C 
ATOM     25  C   UNL d   1      23.689 -17.099  -1.274  0.00  0.00     0.073 C 
ATOM     26  C   UNL d   1      23.675 -18.310  -0.595  0.00  0.00     0.071 C 
ATOM     27  C   UNL d   1      24.721 -18.624   0.244  0.00  0.00     0.073 C 
ATOM     28  C   UNL d   1      25.822 -17.767   0.324  0.00  0.00     0.080 C 
BRANCH  24  29
ATOM     29  O   UNL d   1      24.736 -15.106  -1.956  0.00  0.00    -0.360 OA
ATOM     30  H   UNL d   1      25.123 -14.341  -1.494  0.00  0.00     0.217 HD
ENDBRANCH  24  29
BRANCH  26  31
ATOM     31  O   UNL d   1      22.647 -19.201  -0.671  0.00  0.00    -0.361 OA
ATOM     32  H   UNL d   1      22.587 -19.699   0.159  0.00  0.00     0.217 HD
ENDBRANCH  26  31
BRANCH  28  33
ATOM     33  O   UNL d   1      26.693 -18.001   1.349  0.00  0.00    -0.360 OA
ATOM     34  H   UNL d   1      27.543 -18.279   0.961  0.00  0.00     0.217 HD
ENDBRANCH  28  33
ENDBRANCH   1  23
BRANCH   1  35
ATOM     35  C   UNL d   1      27.558 -15.356  -2.203  0.00  0.00     0.245 C 
ATOM     36  N   UNL d   1      27.196 -14.006  -2.223  0.00  0.00    -0.359 N 
ATOM     37  H   UNL d   1      26.421 -13.771  -1.599  0.00  0.00     0.162 HD
ATOM     38  O   UNL d   1      27.808 -15.950  -3.236  0.00  0.00    -0.271 OA
BRANCH  36  39
ATOM     39  C   UNL d   1      27.294 -13.284  -3.472  0.00  0.00     0.122 C 
BRANCH  39  40
ATOM     40  C   UNL d   1      25.963 -12.716  -3.941  0.00  0.00     0.019 C 
BRANCH  40  41
ATOM     41  C   UNL d   1      25.032 -13.846  -4.380  0.00  0.00    -0.003 C 
ATOM     42  C   UNL d   1      25.820 -14.975  -5.018  0.00  0.00     0.005 C 
ENDBRANCH  40  41
ENDBRANCH  39  40
ENDBRANCH  36  39
ENDBRANCH   1  35
TORSDOF 15
ENDMDL
