MODEL 1
REMARK VINA RESULT:   -10.842      0.000      0.000
REMARK INTER + INTRA:         -15.436
REMARK INTER:                 -13.825
REMARK INTRA:                  -1.611
REMARK CONF_INDEPENDENT:        2.983
REMARK UNBOUND:                -1.611
REMARK  10 active torsions:
REMARK  status: ('A' for Active; 'I' for Inactive)
REMARK    1  A    between atoms: C_2  and  C_3 
REMARK       I    between atoms: C_2  and  N_18 
REMARK    2  A    between atoms: C_3  and  N_4 
REMARK    3  A    between atoms: N_4  and  C_5 
REMARK    4  A    between atoms: C_8  and  O_9 
REMARK    5  A    between atoms: O_9  and  C_10 
REMARK    6  A    between atoms: C_10  and  C_11 
REMARK    7  A    between atoms: N_18  and  C_19 
REMARK    8  A    between atoms: C_23  and  C_24 
REMARK       I    between atoms: C_24  and  N_26 
REMARK    9  A    between atoms: N_26  and  C_27 
REMARK   10  A    between atoms: C_31  and  C_32 
ROOT
ATOM      1  C   UNL d   1      26.656 -14.125  -1.999  0.00  0.00     0.035 A 
ATOM      2  C   UNL d   1      25.433 -13.588  -2.394  0.00  0.00     0.029 A 
ATOM      3  C   UNL d   1      25.074 -13.603  -3.747  0.00  0.00     0.003 A 
ATOM      4  C   UNL d   1      25.956 -14.113  -4.706  0.00  0.00     0.017 A 
ATOM      5  C   UNL d   1      27.166 -14.693  -4.311  0.00  0.00     0.034 A 
ATOM      6  C   UNL d   1      27.475 -14.719  -2.956  0.00  0.00     0.046 A 
ENDROOT
BRANCH   1   7
ATOM      7  N   UNL d   1      27.019 -14.158  -0.642  0.00  0.00    -0.326 N 
ATOM      8  C   UNL d   1      27.192 -15.272   0.164  0.00  0.00     0.239 C 
ATOM      9  O   UNL d   1      27.408 -15.122   1.368  0.00  0.00    -0.271 OA
ATOM     10  H   UNL d   1      27.209 -13.277  -0.179  0.00  0.00     0.169 HD
BRANCH   8  11
ATOM     11  C   UNL d   1      27.222 -16.652  -0.514  0.00  0.00     0.223 C 
BRANCH  11  12
ATOM     12  N   UNL d   1      26.362 -17.642   0.110  0.00  0.00    -0.381 N 
ATOM     13  H   UNL d   1      26.799 -18.430   0.580  0.00  0.00     0.160 HD
BRANCH  12  14
ATOM     14  C   UNL d   1      25.019 -17.677  -0.221  0.00  0.00     0.028 A 
ATOM     15  C   UNL d   1      24.300 -18.871  -0.150  0.00  0.00     0.032 A 
ATOM     16  C   UNL d   1      22.936 -18.912  -0.487  0.00  0.00     0.039 A 
ATOM     17  C   UNL d   1      22.254 -17.746  -0.842  0.00  0.00     0.069 A 
ATOM     18  C   UNL d   1      22.961 -16.551  -0.899  0.00  0.00     0.039 A 
ATOM     19  C   UNL d   1      24.320 -16.522  -0.588  0.00  0.00     0.032 A 
BRANCH  17  20
ATOM     20  O   UNL d   1      20.917 -17.876  -1.107  0.00  0.00    -0.349 OA
BRANCH  20  21
ATOM     21  C   UNL d   1      20.408 -19.220  -1.160  0.00  0.00     0.207 C 
BRANCH  21  22
ATOM     22  C   UNL d   1      19.323 -19.449  -0.102  0.00  0.00     0.145 C 
ATOM     23  C   UNL d   1      19.854 -19.897   1.249  0.00  0.00     0.036 C 
ATOM     24  C   UNL d   1      18.680 -20.638   1.832  0.00  0.00     0.029 C 
ATOM     25  C   UNL d   1      18.033 -21.260   0.612  0.00  0.00     0.168 C 
ATOM     26  O   UNL d   1      18.375 -20.449  -0.521  0.00  0.00    -0.384 OA
ENDBRANCH  21  22
ENDBRANCH  20  21
ENDBRANCH  17  20
ENDBRANCH  12  14
ENDBRANCH  11  12
ENDBRANCH   8  11
ENDBRANCH   1   7
BRANCH   5  27
ATOM     27  C   UNL d   1      28.060 -15.312  -5.327  0.00  0.00     0.256 C 
ATOM     28  O   UNL d   1      27.722 -15.205  -6.512  0.00  0.00    -0.267 OA
ATOM     29  N   UNL d   1      29.183 -16.013  -4.894  0.00  0.00    -0.323 N 
ATOM     30  H   UNL d   1      29.352 -16.210  -3.918  0.00  0.00     0.169 HD
BRANCH  29  31
ATOM     31  C   UNL d   1      30.143 -16.545  -5.774  0.00  0.00     0.035 A 
ATOM     32  C   UNL d   1      30.787 -15.732  -6.709  0.00  0.00     0.029 A 
ATOM     33  C   UNL d   1      31.672 -16.299  -7.634  0.00  0.00     0.003 A 
ATOM     34  C   UNL d   1      31.922 -17.672  -7.611  0.00  0.00     0.016 A 
ATOM     35  C   UNL d   1      31.262 -18.493  -6.688  0.00  0.00     0.050 A 
ATOM     36  C   UNL d   1      30.386 -17.913  -5.770  0.00  0.00     0.045 A 
BRANCH  35  37
ATOM     37  C   UNL d   1      31.426 -19.985  -6.704  0.00  0.00     0.417 C 
ATOM     38  F   UNL d   1      31.586 -20.464  -7.969  0.00  0.00    -0.166 F 
ATOM     39  F   UNL d   1      32.510 -20.404  -5.999  0.00  0.00    -0.166 F 
ATOM     40  F   UNL d   1      30.358 -20.659  -6.190  0.00  0.00    -0.166 F 
ENDBRANCH  35  37
ENDBRANCH  29  31
ENDBRANCH   5  27
TORSDOF 10
ENDMDL
MODEL 2
REMARK VINA RESULT:   -10.198      1.922      2.357
REMARK INTER + INTRA:         -14.872
REMARK INTER:                 -13.181
REMARK INTRA:                  -1.691
REMARK CONF_INDEPENDENT:        2.983
REMARK UNBOUND:                -1.691
REMARK  10 active torsions:
REMARK  status: ('A' for Active; 'I' for Inactive)
REMARK    1  A    between atoms: C_2  and  C_3 
REMARK       I    between atoms: C_2  and  N_18 
REMARK    2  A    between atoms: C_3  and  N_4 
REMARK    3  A    between atoms: N_4  and  C_5 
REMARK    4  A    between atoms: C_8  and  O_9 
REMARK    5  A    between atoms: O_9  and  C_10 
REMARK    6  A    between atoms: C_10  and  C_11 
REMARK    7  A    between atoms: N_18  and  C_19 
REMARK    8  A    between atoms: C_23  and  C_24 
REMARK       I    between atoms: C_24  and  N_26 
REMARK    9  A    between atoms: N_26  and  C_27 
REMARK   10  A    between atoms: C_31  and  C_32 
ROOT
ATOM      1  C   UNL d   1      27.048 -14.717  -2.250  0.00  0.00     0.035 A 
ATOM      2  C   UNL d   1      25.717 -14.415  -2.525  0.00  0.00     0.029 A 
ATOM      3  C   UNL d   1      25.259 -14.443  -3.847  0.00  0.00     0.003 A 
ATOM      4  C   UNL d   1      26.142 -14.729  -4.894  0.00  0.00     0.017 A 
ATOM      5  C   UNL d   1      27.468 -15.076  -4.621  0.00  0.00     0.034 A 
ATOM      6  C   UNL d   1      27.886 -15.098  -3.295  0.00  0.00     0.046 A 
ENDROOT
BRANCH   1   7
ATOM      7  N   UNL d   1      27.521 -14.735  -0.926  0.00  0.00    -0.326 N 
ATOM      8  C   UNL d   1      27.433 -15.769  -0.007  0.00  0.00     0.239 C 
ATOM      9  O   UNL d   1      27.805 -15.582   1.152  0.00  0.00    -0.271 OA
ATOM     10  H   UNL d   1      28.011 -13.916  -0.585  0.00  0.00     0.169 HD
BRANCH   8  11
ATOM     11  C   UNL d   1      26.982 -17.148  -0.517  0.00  0.00     0.223 C 
BRANCH  11  12
ATOM     12  N   UNL d   1      25.986 -17.796   0.318  0.00  0.00    -0.381 N 
ATOM     13  H   UNL d   1      26.307 -18.418   1.054  0.00  0.00     0.160 HD
BRANCH  12  14
ATOM     14  C   UNL d   1      24.665 -17.819  -0.098  0.00  0.00     0.028 A 
ATOM     15  C   UNL d   1      23.963 -19.023  -0.161  0.00  0.00     0.032 A 
ATOM     16  C   UNL d   1      22.623 -19.054  -0.585  0.00  0.00     0.039 A 
ATOM     17  C   UNL d   1      21.946 -17.871  -0.892  0.00  0.00     0.069 A 
ATOM     18  C   UNL d   1      22.636 -16.668  -0.815  0.00  0.00     0.039 A 
ATOM     19  C   UNL d   1      23.972 -16.648  -0.418  0.00  0.00     0.032 A 
BRANCH  17  20
ATOM     20  O   UNL d   1      20.629 -17.995  -1.249  0.00  0.00    -0.349 OA
BRANCH  20  21
ATOM     21  C   UNL d   1      20.092 -19.330  -1.242  0.00  0.00     0.207 C 
BRANCH  21  22
ATOM     22  C   UNL d   1      19.158 -19.551  -0.047  0.00  0.00     0.145 C 
ATOM     23  C   UNL d   1      19.868 -19.623   1.293  0.00  0.00     0.036 C 
ATOM     24  C   UNL d   1      18.916 -20.445   2.122  0.00  0.00     0.029 C 
ATOM     25  C   UNL d   1      18.322 -21.400   1.108  0.00  0.00     0.168 C 
ATOM     26  O   UNL d   1      18.407 -20.773  -0.180  0.00  0.00    -0.384 OA
ENDBRANCH  21  22
ENDBRANCH  20  21
ENDBRANCH  17  20
ENDBRANCH  12  14
ENDBRANCH  11  12
ENDBRANCH   8  11
ENDBRANCH   1   7
BRANCH   5  27
ATOM     27  C   UNL d   1      28.378 -15.465  -5.732  0.00  0.00     0.256 C 
ATOM     28  O   UNL d   1      28.126 -15.006  -6.852  0.00  0.00    -0.267 OA
ATOM     29  N   UNL d   1      29.419 -16.353  -5.467  0.00  0.00    -0.323 N 
ATOM     30  H   UNL d   1      29.510 -16.826  -4.580  0.00  0.00     0.169 HD
BRANCH  29  31
ATOM     31  C   UNL d   1      30.393 -16.702  -6.420  0.00  0.00     0.035 A 
ATOM     32  C   UNL d   1      30.660 -18.040  -6.716  0.00  0.00     0.029 A 
ATOM     33  C   UNL d   1      31.695 -18.365  -7.601  0.00  0.00     0.003 A 
ATOM     34  C   UNL d   1      32.448 -17.351  -8.198  0.00  0.00     0.016 A 
ATOM     35  C   UNL d   1      32.196 -16.010  -7.888  0.00  0.00     0.050 A 
ATOM     36  C   UNL d   1      31.159 -15.701  -7.007  0.00  0.00     0.045 A 
BRANCH  35  37
ATOM     37  C   UNL d   1      33.052 -14.902  -8.429  0.00  0.00     0.417 C 
ATOM     38  F   UNL d   1      34.132 -15.382  -9.107  0.00  0.00    -0.166 F 
ATOM     39  F   UNL d   1      32.386 -14.096  -9.296  0.00  0.00    -0.166 F 
ATOM     40  F   UNL d   1      33.561 -14.082  -7.466  0.00  0.00    -0.166 F 
ENDBRANCH  35  37
ENDBRANCH  29  31
ENDBRANCH   5  27
TORSDOF 10
ENDMDL
MODEL 3
REMARK VINA RESULT:   -10.083      7.229     10.069
REMARK INTER + INTRA:         -14.707
REMARK INTER:                 -13.066
REMARK INTRA:                  -1.640
REMARK CONF_INDEPENDENT:        2.983
REMARK UNBOUND:                -1.640
REMARK  10 active torsions:
REMARK  status: ('A' for Active; 'I' for Inactive)
REMARK    1  A    between atoms: C_2  and  C_3 
REMARK       I    between atoms: C_2  and  N_18 
REMARK    2  A    between atoms: C_3  and  N_4 
REMARK    3  A    between atoms: N_4  and  C_5 
REMARK    4  A    between atoms: C_8  and  O_9 
REMARK    5  A    between atoms: O_9  and  C_10 
REMARK    6  A    between atoms: C_10  and  C_11 
REMARK    7  A    between atoms: N_18  and  C_19 
REMARK    8  A    between atoms: C_23  and  C_24 
REMARK       I    between atoms: C_24  and  N_26 
REMARK    9  A    between atoms: N_26  and  C_27 
REMARK   10  A    between atoms: C_31  and  C_32 
ROOT
ATOM      1  C   UNL d   1      28.615 -14.079   1.542  0.00  0.00     0.035 A 
ATOM      2  C   UNL d   1      27.975 -12.879   1.241  0.00  0.00     0.029 A 
ATOM      3  C   UNL d   1      27.514 -12.060   2.278  0.00  0.00     0.003 A 
ATOM      4  C   UNL d   1      27.654 -12.463   3.610  0.00  0.00     0.017 A 
ATOM      5  C   UNL d   1      28.334 -13.644   3.921  0.00  0.00     0.034 A 
ATOM      6  C   UNL d   1      28.834 -14.413   2.876  0.00  0.00     0.046 A 
ENDROOT
BRANCH   1   7
ATOM      7  N   UNL d   1      29.123 -14.898   0.519  0.00  0.00    -0.326 N 
ATOM      8  C   UNL d   1      28.581 -16.073   0.024  0.00  0.00     0.239 C 
ATOM      9  O   UNL d   1      29.212 -16.728  -0.807  0.00  0.00    -0.271 OA
ATOM     10  H   UNL d   1      29.973 -14.603   0.052  0.00  0.00     0.169 HD
BRANCH   8  11
ATOM     11  C   UNL d   1      27.151 -16.441   0.452  0.00  0.00     0.223 C 
BRANCH  11  12
ATOM     12  N   UNL d   1      26.564 -17.533  -0.304  0.00  0.00    -0.381 N 
ATOM     13  H   UNL d   1      27.177 -18.102  -0.882  0.00  0.00     0.160 HD
BRANCH  12  14
ATOM     14  C   UNL d   1      25.192 -17.573  -0.484  0.00  0.00     0.028 A 
ATOM     15  C   UNL d   1      24.471 -18.732  -0.193  0.00  0.00     0.032 A 
ATOM     16  C   UNL d   1      23.078 -18.778  -0.376  0.00  0.00     0.039 A 
ATOM     17  C   UNL d   1      22.376 -17.645  -0.793  0.00  0.00     0.069 A 
ATOM     18  C   UNL d   1      23.087 -16.483  -1.068  0.00  0.00     0.039 A 
ATOM     19  C   UNL d   1      24.471 -16.452  -0.909  0.00  0.00     0.032 A 
BRANCH  17  20
ATOM     20  O   UNL d   1      21.016 -17.772  -0.896  0.00  0.00    -0.349 OA
BRANCH  20  21
ATOM     21  C   UNL d   1      20.511 -19.113  -1.022  0.00  0.00     0.207 C 
BRANCH  21  22
ATOM     22  C   UNL d   1      19.449 -19.413   0.043  0.00  0.00     0.145 C 
ATOM     23  C   UNL d   1      19.988 -20.107   1.281  0.00  0.00     0.036 C 
ATOM     24  C   UNL d   1      18.774 -20.829   1.803  0.00  0.00     0.029 C 
ATOM     25  C   UNL d   1      18.029 -21.198   0.538  0.00  0.00     0.168 C 
ATOM     26  O   UNL d   1      18.401 -20.252  -0.475  0.00  0.00    -0.384 OA
ENDBRANCH  21  22
ENDBRANCH  20  21
ENDBRANCH  17  20
ENDBRANCH  12  14
ENDBRANCH  11  12
ENDBRANCH   8  11
ENDBRANCH   1   7
BRANCH   5  27
ATOM     27  C   UNL d   1      28.556 -14.022   5.343  0.00  0.00     0.256 C 
ATOM     28  O   UNL d   1      27.998 -15.051   5.745  0.00  0.00    -0.267 OA
ATOM     29  N   UNL d   1      29.324 -13.184   6.148  0.00  0.00    -0.323 N 
ATOM     30  H   UNL d   1      29.642 -12.279   5.834  0.00  0.00     0.169 HD
BRANCH  29  31
ATOM     31  C   UNL d   1      29.678 -13.503   7.472  0.00  0.00     0.035 A 
ATOM     32  C   UNL d   1      30.879 -14.156   7.756  0.00  0.00     0.029 A 
ATOM     33  C   UNL d   1      31.168 -14.543   9.069  0.00  0.00     0.003 A 
ATOM     34  C   UNL d   1      30.264 -14.263  10.096  0.00  0.00     0.016 A 
ATOM     35  C   UNL d   1      29.050 -13.628   9.811  0.00  0.00     0.050 A 
ATOM     36  C   UNL d   1      28.777 -13.244   8.498  0.00  0.00     0.045 A 
BRANCH  35  37
ATOM     37  C   UNL d   1      28.010 -13.406  10.871  0.00  0.00     0.417 C 
ATOM     38  F   UNL d   1      27.031 -14.352  10.826  0.00  0.00    -0.166 F 
ATOM     39  F   UNL d   1      28.522 -13.447  12.129  0.00  0.00    -0.166 F 
ATOM     40  F   UNL d   1      27.365 -12.209  10.764  0.00  0.00    -0.166 F 
ENDBRANCH  35  37
ENDBRANCH  29  31
ENDBRANCH   5  27
TORSDOF 10
ENDMDL
MODEL 4
REMARK VINA RESULT:    -9.942      5.649      7.493
REMARK INTER + INTRA:         -14.565
REMARK INTER:                 -12.925
REMARK INTRA:                  -1.641
REMARK CONF_INDEPENDENT:        2.983
REMARK UNBOUND:                -1.641
REMARK  10 active torsions:
REMARK  status: ('A' for Active; 'I' for Inactive)
REMARK    1  A    between atoms: C_2  and  C_3 
REMARK       I    between atoms: C_2  and  N_18 
REMARK    2  A    between atoms: C_3  and  N_4 
REMARK    3  A    between atoms: N_4  and  C_5 
REMARK    4  A    between atoms: C_8  and  O_9 
REMARK    5  A    between atoms: O_9  and  C_10 
REMARK    6  A    between atoms: C_10  and  C_11 
REMARK    7  A    between atoms: N_18  and  C_19 
REMARK    8  A    between atoms: C_23  and  C_24 
REMARK       I    between atoms: C_24  and  N_26 
REMARK    9  A    between atoms: N_26  and  C_27 
REMARK   10  A    between atoms: C_31  and  C_32 
ROOT
ATOM      1  C   UNL d   1      27.251 -14.966  -3.046  0.00  0.00     0.035 A 
ATOM      2  C   UNL d   1      26.400 -15.575  -3.966  0.00  0.00     0.029 A 
ATOM      3  C   UNL d   1      25.449 -14.804  -4.645  0.00  0.00     0.003 A 
ATOM      4  C   UNL d   1      25.320 -13.439  -4.370  0.00  0.00     0.017 A 
ATOM      5  C   UNL d   1      26.200 -12.813  -3.481  0.00  0.00     0.034 A 
ATOM      6  C   UNL d   1      27.174 -13.588  -2.862  0.00  0.00     0.046 A 
ENDROOT
BRANCH   1   7
ATOM      7  N   UNL d   1      28.241 -15.712  -2.383  0.00  0.00    -0.326 N 
ATOM      8  C   UNL d   1      28.227 -16.167  -1.074  0.00  0.00     0.239 C 
ATOM      9  O   UNL d   1      29.228 -16.718  -0.613  0.00  0.00    -0.271 OA
ATOM     10  H   UNL d   1      29.063 -15.985  -2.909  0.00  0.00     0.169 HD
BRANCH   8  11
ATOM     11  C   UNL d   1      26.907 -16.066  -0.292  0.00  0.00     0.223 C 
BRANCH  11  12
ATOM     12  N   UNL d   1      26.289 -17.347   0.003  0.00  0.00    -0.381 N 
ATOM     13  H   UNL d   1      26.894 -18.152   0.139  0.00  0.00     0.160 HD
BRANCH  12  14
ATOM     14  C   UNL d   1      24.935 -17.514  -0.227  0.00  0.00     0.028 A 
ATOM     15  C   UNL d   1      24.139 -16.431  -0.604  0.00  0.00     0.032 A 
ATOM     16  C   UNL d   1      22.763 -16.595  -0.837  0.00  0.00     0.039 A 
ATOM     17  C   UNL d   1      22.172 -17.858  -0.756  0.00  0.00     0.069 A 
ATOM     18  C   UNL d   1      22.962 -18.943  -0.397  0.00  0.00     0.039 A 
ATOM     19  C   UNL d   1      24.322 -18.769  -0.143  0.00  0.00     0.032 A 
BRANCH  17  20
ATOM     20  O   UNL d   1      20.835 -17.928  -1.047  0.00  0.00    -0.349 OA
BRANCH  20  21
ATOM     21  C   UNL d   1      20.270 -19.249  -1.121  0.00  0.00     0.207 C 
BRANCH  21  22
ATOM     22  C   UNL d   1      19.263 -19.490   0.009  0.00  0.00     0.145 C 
ATOM     23  C   UNL d   1      19.896 -19.709   1.371  0.00  0.00     0.036 C 
ATOM     24  C   UNL d   1      18.851 -20.521   2.090  0.00  0.00     0.029 C 
ATOM     25  C   UNL d   1      18.249 -21.355   0.980  0.00  0.00     0.168 C 
ATOM     26  O   UNL d   1      18.441 -20.644  -0.251  0.00  0.00    -0.384 OA
ENDBRANCH  21  22
ENDBRANCH  20  21
ENDBRANCH  17  20
ENDBRANCH  12  14
ENDBRANCH  11  12
ENDBRANCH   8  11
ENDBRANCH   1   7
BRANCH   5  27
ATOM     27  C   UNL d   1      26.115 -11.345  -3.260  0.00  0.00     0.256 C 
ATOM     28  O   UNL d   1      26.526 -10.914  -2.176  0.00  0.00    -0.267 OA
ATOM     29  N   UNL d   1      25.538 -10.550  -4.249  0.00  0.00    -0.323 N 
ATOM     30  H   UNL d   1      25.078 -10.944  -5.056  0.00  0.00     0.169 HD
BRANCH  29  31
ATOM     31  C   UNL d   1      25.504  -9.145  -4.183  0.00  0.00     0.035 A 
ATOM     32  C   UNL d   1      26.471  -8.438  -3.466  0.00  0.00     0.029 A 
ATOM     33  C   UNL d   1      26.366  -7.047  -3.339  0.00  0.00     0.003 A 
ATOM     34  C   UNL d   1      25.304  -6.369  -3.940  0.00  0.00     0.016 A 
ATOM     35  C   UNL d   1      24.322  -7.078  -4.641  0.00  0.00     0.050 A 
ATOM     36  C   UNL d   1      24.442  -8.462  -4.763  0.00  0.00     0.045 A 
BRANCH  35  37
ATOM     37  C   UNL d   1      23.112  -6.394  -5.211  0.00  0.00     0.417 C 
ATOM     38  F   UNL d   1      22.301  -7.266  -5.870  0.00  0.00    -0.166 F 
ATOM     39  F   UNL d   1      22.343  -5.804  -4.258  0.00  0.00    -0.166 F 
ATOM     40  F   UNL d   1      23.410  -5.417  -6.115  0.00  0.00    -0.166 F 
ENDBRANCH  35  37
ENDBRANCH  29  31
ENDBRANCH   5  27
TORSDOF 10
ENDMDL
MODEL 5
REMARK VINA RESULT:    -9.871      6.428      9.404
REMARK INTER + INTRA:         -14.346
REMARK INTER:                 -12.854
REMARK INTRA:                  -1.491
REMARK CONF_INDEPENDENT:        2.983
REMARK UNBOUND:                -1.491
REMARK  10 active torsions:
REMARK  status: ('A' for Active; 'I' for Inactive)
REMARK    1  A    between atoms: C_2  and  C_3 
REMARK       I    between atoms: C_2  and  N_18 
REMARK    2  A    between atoms: C_3  and  N_4 
REMARK    3  A    between atoms: N_4  and  C_5 
REMARK    4  A    between atoms: C_8  and  O_9 
REMARK    5  A    between atoms: O_9  and  C_10 
REMARK    6  A    between atoms: C_10  and  C_11 
REMARK    7  A    between atoms: N_18  and  C_19 
REMARK    8  A    between atoms: C_23  and  C_24 
REMARK       I    between atoms: C_24  and  N_26 
REMARK    9  A    between atoms: N_26  and  C_27 
REMARK   10  A    between atoms: C_31  and  C_32 
ROOT
ATOM      1  C   UNL d   1      28.327 -14.632   1.160  0.00  0.00     0.035 A 
ATOM      2  C   UNL d   1      27.502 -13.775   0.435  0.00  0.00     0.029 A 
ATOM      3  C   UNL d   1      26.720 -12.831   1.111  0.00  0.00     0.003 A 
ATOM      4  C   UNL d   1      26.730 -12.777   2.509  0.00  0.00     0.017 A 
ATOM      5  C   UNL d   1      27.587 -13.605   3.239  0.00  0.00     0.034 A 
ATOM      6  C   UNL d   1      28.398 -14.494   2.544  0.00  0.00     0.046 A 
ENDROOT
BRANCH   1   7
ATOM      7  N   UNL d   1      29.152 -15.560   0.501  0.00  0.00    -0.326 N 
ATOM      8  C   UNL d   1      28.765 -16.621  -0.302  0.00  0.00     0.239 C 
ATOM      9  O   UNL d   1      29.616 -17.408  -0.719  0.00  0.00    -0.271 OA
ATOM     10  H   UNL d   1      30.156 -15.448   0.586  0.00  0.00     0.169 HD
BRANCH   8  11
ATOM     11  C   UNL d   1      27.291 -16.694  -0.735  0.00  0.00     0.223 C 
BRANCH  11  12
ATOM     12  N   UNL d   1      26.418 -17.344   0.227  0.00  0.00    -0.381 N 
ATOM     13  H   UNL d   1      26.844 -17.901   0.962  0.00  0.00     0.160 HD
BRANCH  12  14
ATOM     14  C   UNL d   1      25.069 -17.467  -0.058  0.00  0.00     0.028 A 
ATOM     15  C   UNL d   1      24.359 -16.398  -0.606  0.00  0.00     0.032 A 
ATOM     16  C   UNL d   1      22.988 -16.516  -0.895  0.00  0.00     0.039 A 
ATOM     17  C   UNL d   1      22.321 -17.728  -0.698  0.00  0.00     0.069 A 
ATOM     18  C   UNL d   1      23.027 -18.800  -0.168  0.00  0.00     0.039 A 
ATOM     19  C   UNL d   1      24.380 -18.668   0.139  0.00  0.00     0.032 A 
BRANCH  17  20
ATOM     20  O   UNL d   1      20.999 -17.762  -1.053  0.00  0.00    -0.349 OA
BRANCH  20  21
ATOM     21  C   UNL d   1      20.414 -19.069  -1.198  0.00  0.00     0.207 C 
BRANCH  21  22
ATOM     22  C   UNL d   1      19.366 -19.336  -0.111  0.00  0.00     0.145 C 
ATOM     23  C   UNL d   1      19.951 -19.688   1.245  0.00  0.00     0.036 C 
ATOM     24  C   UNL d   1      18.846 -20.491   1.879  0.00  0.00     0.029 C 
ATOM     25  C   UNL d   1      18.228 -21.207   0.697  0.00  0.00     0.168 C 
ATOM     26  O   UNL d   1      18.490 -20.419  -0.473  0.00  0.00    -0.384 OA
ENDBRANCH  21  22
ENDBRANCH  20  21
ENDBRANCH  17  20
ENDBRANCH  12  14
ENDBRANCH  11  12
ENDBRANCH   8  11
ENDBRANCH   1   7
BRANCH   5  27
ATOM     27  C   UNL d   1      27.657 -13.481   4.720  0.00  0.00     0.256 C 
ATOM     28  O   UNL d   1      26.786 -14.066   5.375  0.00  0.00    -0.267 OA
ATOM     29  N   UNL d   1      28.652 -12.683   5.281  0.00  0.00    -0.323 N 
ATOM     30  H   UNL d   1      29.256 -12.101   4.719  0.00  0.00     0.169 HD
BRANCH  29  31
ATOM     31  C   UNL d   1      28.867 -12.584   6.668  0.00  0.00     0.035 A 
ATOM     32  C   UNL d   1      28.496 -11.435   7.370  0.00  0.00     0.029 A 
ATOM     33  C   UNL d   1      28.801 -11.322   8.732  0.00  0.00     0.003 A 
ATOM     34  C   UNL d   1      29.460 -12.362   9.389  0.00  0.00     0.016 A 
ATOM     35  C   UNL d   1      29.852 -13.506   8.683  0.00  0.00     0.050 A 
ATOM     36  C   UNL d   1      29.538 -13.606   7.328  0.00  0.00     0.045 A 
BRANCH  35  37
ATOM     37  C   UNL d   1      30.654 -14.596   9.333  0.00  0.00     0.417 C 
ATOM     38  F   UNL d   1      31.408 -14.124  10.364  0.00  0.00    -0.166 F 
ATOM     39  F   UNL d   1      29.878 -15.585   9.851  0.00  0.00    -0.166 F 
ATOM     40  F   UNL d   1      31.532 -15.208   8.489  0.00  0.00    -0.166 F 
ENDBRANCH  35  37
ENDBRANCH  29  31
ENDBRANCH   5  27
TORSDOF 10
ENDMDL
MODEL 6
REMARK VINA RESULT:    -9.791      5.560      7.471
REMARK INTER + INTRA:         -14.506
REMARK INTER:                 -12.774
REMARK INTRA:                  -1.732
REMARK CONF_INDEPENDENT:        2.983
REMARK UNBOUND:                -1.732
REMARK  10 active torsions:
REMARK  status: ('A' for Active; 'I' for Inactive)
REMARK    1  A    between atoms: C_2  and  C_3 
REMARK       I    between atoms: C_2  and  N_18 
REMARK    2  A    between atoms: C_3  and  N_4 
REMARK    3  A    between atoms: N_4  and  C_5 
REMARK    4  A    between atoms: C_8  and  O_9 
REMARK    5  A    between atoms: O_9  and  C_10 
REMARK    6  A    between atoms: C_10  and  C_11 
REMARK    7  A    between atoms: N_18  and  C_19 
REMARK    8  A    between atoms: C_23  and  C_24 
REMARK       I    between atoms: C_24  and  N_26 
REMARK    9  A    between atoms: N_26  and  C_27 
REMARK   10  A    between atoms: C_31  and  C_32 
ROOT
ATOM      1  C   UNL d   1      27.160 -15.003  -3.045  0.00  0.00     0.035 A 
ATOM      2  C   UNL d   1      26.180 -15.482  -3.910  0.00  0.00     0.029 A 
ATOM      3  C   UNL d   1      25.212 -14.605  -4.414  0.00  0.00     0.003 A 
ATOM      4  C   UNL d   1      25.200 -13.264  -4.018  0.00  0.00     0.017 A 
ATOM      5  C   UNL d   1      26.207 -12.767  -3.184  0.00  0.00     0.034 A 
ATOM      6  C   UNL d   1      27.191 -13.644  -2.742  0.00  0.00     0.046 A 
ENDROOT
BRANCH   1   7
ATOM      7  N   UNL d   1      28.166 -15.856  -2.558  0.00  0.00    -0.326 N 
ATOM      8  C   UNL d   1      28.276 -16.401  -1.288  0.00  0.00     0.239 C 
ATOM      9  O   UNL d   1      29.283 -17.046  -0.992  0.00  0.00    -0.271 OA
ATOM     10  H   UNL d   1      28.897 -16.143  -3.199  0.00  0.00     0.169 HD
BRANCH   8  11
ATOM     11  C   UNL d   1      27.071 -16.272  -0.343  0.00  0.00     0.223 C 
BRANCH  11  12
ATOM     12  N   UNL d   1      26.402 -17.528  -0.055  0.00  0.00    -0.381 N 
ATOM     13  H   UNL d   1      26.970 -18.364   0.042  0.00  0.00     0.160 HD
BRANCH  12  14
ATOM     14  C   UNL d   1      25.033 -17.625  -0.242  0.00  0.00     0.028 A 
ATOM     15  C   UNL d   1      24.283 -16.500  -0.588  0.00  0.00     0.032 A 
ATOM     16  C   UNL d   1      22.893 -16.591  -0.776  0.00  0.00     0.039 A 
ATOM     17  C   UNL d   1      22.241 -17.823  -0.683  0.00  0.00     0.069 A 
ATOM     18  C   UNL d   1      22.986 -18.949  -0.355  0.00  0.00     0.039 A 
ATOM     19  C   UNL d   1      24.360 -18.847  -0.145  0.00  0.00     0.032 A 
BRANCH  17  20
ATOM     20  O   UNL d   1      20.894 -17.823  -0.931  0.00  0.00    -0.349 OA
BRANCH  20  21
ATOM     21  C   UNL d   1      20.271 -19.114  -1.057  0.00  0.00     0.207 C 
BRANCH  21  22
ATOM     22  C   UNL d   1      19.273 -19.367   0.078  0.00  0.00     0.145 C 
ATOM     23  C   UNL d   1      19.919 -19.703   1.411  0.00  0.00     0.036 C 
ATOM     24  C   UNL d   1      18.844 -20.498   2.103  0.00  0.00     0.029 C 
ATOM     25  C   UNL d   1      18.174 -21.229   0.959  0.00  0.00     0.168 C 
ATOM     26  O   UNL d   1      18.382 -20.455  -0.231  0.00  0.00    -0.384 OA
ENDBRANCH  21  22
ENDBRANCH  20  21
ENDBRANCH  17  20
ENDBRANCH  12  14
ENDBRANCH  11  12
ENDBRANCH   8  11
ENDBRANCH   1   7
BRANCH   5  27
ATOM     27  C   UNL d   1      26.238 -11.321  -2.838  0.00  0.00     0.256 C 
ATOM     28  O   UNL d   1      26.930 -10.990  -1.867  0.00  0.00    -0.267 OA
ATOM     29  N   UNL d   1      25.458 -10.436  -3.579  0.00  0.00    -0.323 N 
ATOM     30  H   UNL d   1      24.792 -10.753  -4.267  0.00  0.00     0.169 HD
BRANCH  29  31
ATOM     31  C   UNL d   1      25.497  -9.041  -3.399  0.00  0.00     0.035 A 
ATOM     32  C   UNL d   1      25.591  -8.179  -4.493  0.00  0.00     0.029 A 
ATOM     33  C   UNL d   1      25.719  -6.801  -4.286  0.00  0.00     0.003 A 
ATOM     34  C   UNL d   1      25.736  -6.288  -2.987  0.00  0.00     0.016 A 
ATOM     35  C   UNL d   1      25.662  -7.151  -1.888  0.00  0.00     0.050 A 
ATOM     36  C   UNL d   1      25.531  -8.522  -2.110  0.00  0.00     0.045 A 
BRANCH  35  37
ATOM     37  C   UNL d   1      25.783  -6.645  -0.479  0.00  0.00     0.417 C 
ATOM     38  F   UNL d   1      25.699  -7.655   0.431  0.00  0.00    -0.166 F 
ATOM     39  F   UNL d   1      26.965  -6.018  -0.244  0.00  0.00    -0.166 F 
ATOM     40  F   UNL d   1      24.808  -5.758  -0.130  0.00  0.00    -0.166 F 
ENDBRANCH  35  37
ENDBRANCH  29  31
ENDBRANCH   5  27
TORSDOF 10
ENDMDL
MODEL 7
REMARK VINA RESULT:    -9.751      5.334      8.052
REMARK INTER + INTRA:         -14.069
REMARK INTER:                 -12.734
REMARK INTRA:                  -1.335
REMARK CONF_INDEPENDENT:        2.983
REMARK UNBOUND:                -1.335
REMARK  10 active torsions:
REMARK  status: ('A' for Active; 'I' for Inactive)
REMARK    1  A    between atoms: C_2  and  C_3 
REMARK       I    between atoms: C_2  and  N_18 
REMARK    2  A    between atoms: C_3  and  N_4 
REMARK    3  A    between atoms: N_4  and  C_5 
REMARK    4  A    between atoms: C_8  and  O_9 
REMARK    5  A    between atoms: O_9  and  C_10 
REMARK    6  A    between atoms: C_10  and  C_11 
REMARK    7  A    between atoms: N_18  and  C_19 
REMARK    8  A    between atoms: C_23  and  C_24 
REMARK       I    between atoms: C_24  and  N_26 
REMARK    9  A    between atoms: N_26  and  C_27 
REMARK   10  A    between atoms: C_31  and  C_32 
ROOT
ATOM      1  C   UNL d   1      28.209 -15.657  -2.018  0.00  0.00     0.035 A 
ATOM      2  C   UNL d   1      28.979 -16.814  -1.936  0.00  0.00     0.029 A 
ATOM      3  C   UNL d   1      29.731 -17.065  -0.782  0.00  0.00     0.003 A 
ATOM      4  C   UNL d   1      29.748 -16.138   0.265  0.00  0.00     0.017 A 
ATOM      5  C   UNL d   1      28.943 -14.996   0.207  0.00  0.00     0.034 A 
ATOM      6  C   UNL d   1      28.160 -14.797  -0.924  0.00  0.00     0.046 A 
ENDROOT
BRANCH   1   7
ATOM      7  N   UNL d   1      27.413 -15.404  -3.149  0.00  0.00    -0.326 N 
ATOM      8  C   UNL d   1      26.059 -15.112  -3.187  0.00  0.00     0.239 C 
ATOM      9  O   UNL d   1      25.488 -15.022  -4.275  0.00  0.00    -0.271 OA
ATOM     10  H   UNL d   1      27.864 -15.404  -4.057  0.00  0.00     0.169 HD
BRANCH   8  11
ATOM     11  C   UNL d   1      25.355 -14.794  -1.857  0.00  0.00     0.223 C 
BRANCH  11  12
ATOM     12  N   UNL d   1      25.477 -15.836  -0.853  0.00  0.00    -0.381 N 
ATOM     13  H   UNL d   1      26.379 -15.969  -0.406  0.00  0.00     0.160 HD
BRANCH  12  14
ATOM     14  C   UNL d   1      24.497 -16.811  -0.767  0.00  0.00     0.028 A 
ATOM     15  C   UNL d   1      23.150 -16.478  -0.912  0.00  0.00     0.032 A 
ATOM     16  C   UNL d   1      22.151 -17.463  -0.823  0.00  0.00     0.039 A 
ATOM     17  C   UNL d   1      22.489 -18.807  -0.649  0.00  0.00     0.069 A 
ATOM     18  C   UNL d   1      23.831 -19.147  -0.520  0.00  0.00     0.039 A 
ATOM     19  C   UNL d   1      24.814 -18.161  -0.584  0.00  0.00     0.032 A 
BRANCH  17  20
ATOM     20  O   UNL d   1      21.452 -19.701  -0.622  0.00  0.00    -0.349 OA
BRANCH  20  21
ATOM     21  C   UNL d   1      20.144 -19.163  -0.886  0.00  0.00     0.207 C 
BRANCH  21  22
ATOM     22  C   UNL d   1      19.147 -19.553   0.211  0.00  0.00     0.145 C 
ATOM     23  C   UNL d   1      19.789 -19.893   1.544  0.00  0.00     0.036 C 
ATOM     24  C   UNL d   1      18.772 -20.808   2.172  0.00  0.00     0.029 C 
ATOM     25  C   UNL d   1      18.193 -21.540   0.980  0.00  0.00     0.168 C 
ATOM     26  O   UNL d   1      18.360 -20.698  -0.169  0.00  0.00    -0.384 OA
ENDBRANCH  21  22
ENDBRANCH  20  21
ENDBRANCH  17  20
ENDBRANCH  12  14
ENDBRANCH  11  12
ENDBRANCH   8  11
ENDBRANCH   1   7
BRANCH   5  27
ATOM     27  C   UNL d   1      28.898 -14.059   1.361  0.00  0.00     0.256 C 
ATOM     28  O   UNL d   1      29.113 -12.864   1.125  0.00  0.00    -0.267 OA
ATOM     29  N   UNL d   1      28.672 -14.575   2.636  0.00  0.00    -0.323 N 
ATOM     30  H   UNL d   1      28.647 -15.567   2.818  0.00  0.00     0.169 HD
BRANCH  29  31
ATOM     31  C   UNL d   1      28.508 -13.765   3.775  0.00  0.00     0.035 A 
ATOM     32  C   UNL d   1      27.855 -12.534   3.691  0.00  0.00     0.029 A 
ATOM     33  C   UNL d   1      27.784 -11.705   4.817  0.00  0.00     0.003 A 
ATOM     34  C   UNL d   1      28.351 -12.116   6.025  0.00  0.00     0.016 A 
ATOM     35  C   UNL d   1      29.025 -13.340   6.106  0.00  0.00     0.050 A 
ATOM     36  C   UNL d   1      29.085 -14.157   4.977  0.00  0.00     0.045 A 
BRANCH  35  37
ATOM     37  C   UNL d   1      29.736 -13.766   7.358  0.00  0.00     0.417 C 
ATOM     38  F   UNL d   1      30.564 -14.824   7.135  0.00  0.00    -0.166 F 
ATOM     39  F   UNL d   1      30.510 -12.781   7.885  0.00  0.00    -0.166 F 
ATOM     40  F   UNL d   1      28.897 -14.163   8.357  0.00  0.00    -0.166 F 
ENDBRANCH  35  37
ENDBRANCH  29  31
ENDBRANCH   5  27
TORSDOF 10
ENDMDL
