MODEL 1
REMARK VINA RESULT:    -8.416      0.000      0.000
REMARK INTER + INTRA:         -12.258
REMARK INTER:                 -10.504
REMARK INTRA:                  -1.754
REMARK CONF_INDEPENDENT:        2.088
REMARK UNBOUND:                -1.754
REMARK  7 active torsions:
REMARK  status: ('A' for Active; 'I' for Inactive)
REMARK    1  A    between atoms: C_8  and  S_9 
REMARK    2  A    between atoms: S_9  and  C_10 
REMARK    3  A    between atoms: C_10  and  C_11 
REMARK    4  A    between atoms: C_11  and  O_13 
REMARK    5  A    between atoms: O_13  and  C_14 
REMARK    6  A    between atoms: C_14  and  C_15 
REMARK       I    between atoms: C_15  and  N_17 
REMARK    7  A    between atoms: N_17  and  C_18 
ROOT
ATOM      1  C   UNL d   1      25.547 -14.682  -2.306  0.00  0.00     0.246 C 
ATOM      2  O   UNL d   1      25.035 -15.176  -3.312  0.00  0.00    -0.271 OA
ATOM      3  N   UNL d   1      25.343 -15.188  -1.017  0.00  0.00    -0.325 N 
ATOM      4  H   UNL d   1      25.563 -14.605  -0.215  0.00  0.00     0.169 HD
ENDROOT
BRANCH   1   5
ATOM      5  C   UNL d   1      26.427 -13.419  -2.413  0.00  0.00     0.281 C 
BRANCH   5   6
ATOM      6  O   UNL d   1      27.555 -13.503  -1.514  0.00  0.00    -0.311 OA
BRANCH   6   7
ATOM      7  C   UNL d   1      27.286 -13.183  -0.209  0.00  0.00     0.268 C 
ATOM      8  O   UNL d   1      26.280 -12.581   0.141  0.00  0.00    -0.264 OA
BRANCH   7   9
ATOM      9  C   UNL d   1      28.404 -13.681   0.691  0.00  0.00     0.190 C 
BRANCH   9  10
ATOM     10  S   UNL d   1      27.813 -14.857   1.984  0.00  0.00    -0.120 SA
BRANCH  10  11
ATOM     11  C   UNL d   1      27.983 -14.069   3.607  0.00  0.00     0.007 A 
ATOM     12  C   UNL d   1      28.348 -14.950   4.655  0.00  0.00     0.020 A 
ATOM     13  C   UNL d   1      28.526 -14.506   5.976  0.00  0.00     0.020 A 
ATOM     14  C   UNL d   1      28.330 -13.168   6.277  0.00  0.00     0.011 A 
ATOM     15  C   UNL d   1      27.968 -12.282   5.272  0.00  0.00     0.027 A 
ATOM     16 BR   UNL d   1      28.555 -12.529   8.041  0.00  0.00    -0.051 Br
ATOM     17  C   UNL d   1      27.799 -12.713   3.939  0.00  0.00    -0.044 A 
ATOM     18  C   UNL d   1      27.428 -11.650   2.958  0.00  0.00     0.049 C 
ENDBRANCH  10  11
ENDBRANCH   9  10
ENDBRANCH   7   9
ENDBRANCH   6   7
ENDBRANCH   5   6
ENDBRANCH   1   5
BRANCH   3  19
ATOM     19  C   UNL d   1      24.543 -16.345  -0.783  0.00  0.00     0.037 A 
ATOM     20  C   UNL d   1      25.106 -17.486  -0.154  0.00  0.00     0.032 A 
ATOM     21  C   UNL d   1      24.324 -18.624   0.138  0.00  0.00     0.034 A 
ATOM     22  C   UNL d   1      23.008 -18.600  -0.262  0.00  0.00     0.063 A 
ATOM     23  N   UNL d   1      22.009 -19.561  -0.138  0.00  0.00    -0.307 N 
ATOM     24  C   UNL d   1      22.464 -17.498  -0.912  0.00  0.00     0.065 A 
ATOM     25  C   UNL d   1      20.837 -19.068  -0.729  0.00  0.00     0.325 A 
ATOM     26  H   UNL d   1      22.076 -20.471   0.288  0.00  0.00     0.170 HD
ATOM     27  O   UNL d   1      19.764 -19.647  -0.813  0.00  0.00    -0.247 OA
ATOM     28  N   UNL d   1      21.134 -17.786  -1.206  0.00  0.00    -0.306 N 
ATOM     29  H   UNL d   1      20.471 -17.192  -1.677  0.00  0.00     0.170 HD
ATOM     30  C   UNL d   1      23.195 -16.362  -1.175  0.00  0.00     0.061 A 
ENDBRANCH   3  19
TORSDOF 7
ENDMDL
MODEL 2
REMARK VINA RESULT:    -8.204      5.473      8.642
REMARK INTER + INTRA:         -12.187
REMARK INTER:                 -10.292
REMARK INTRA:                  -1.896
REMARK CONF_INDEPENDENT:        2.088
REMARK UNBOUND:                -1.896
REMARK  7 active torsions:
REMARK  status: ('A' for Active; 'I' for Inactive)
REMARK    1  A    between atoms: C_8  and  S_9 
REMARK    2  A    between atoms: S_9  and  C_10 
REMARK    3  A    between atoms: C_10  and  C_11 
REMARK    4  A    between atoms: C_11  and  O_13 
REMARK    5  A    between atoms: O_13  and  C_14 
REMARK    6  A    between atoms: C_14  and  C_15 
REMARK       I    between atoms: C_15  and  N_17 
REMARK    7  A    between atoms: N_17  and  C_18 
ROOT
ATOM      1  C   UNL d   1      26.985 -13.292  -4.941  0.00  0.00     0.246 C 
ATOM      2  O   UNL d   1      27.851 -12.421  -5.036  0.00  0.00    -0.271 OA
ATOM      3  N   UNL d   1      27.233 -14.648  -5.188  0.00  0.00    -0.325 N 
ATOM      4  H   UNL d   1      26.451 -15.273  -5.353  0.00  0.00     0.169 HD
ENDROOT
BRANCH   1   5
ATOM      5  C   UNL d   1      25.533 -12.919  -4.580  0.00  0.00     0.281 C 
BRANCH   5   6
ATOM      6  O   UNL d   1      24.760 -14.101  -4.274  0.00  0.00    -0.311 OA
BRANCH   6   7
ATOM      7  C   UNL d   1      25.337 -14.956  -3.372  0.00  0.00     0.268 C 
ATOM      8  O   UNL d   1      25.511 -16.146  -3.591  0.00  0.00    -0.264 OA
BRANCH   7   9
ATOM      9  C   UNL d   1      25.707 -14.204  -2.104  0.00  0.00     0.190 C 
BRANCH   9  10
ATOM     10  S   UNL d   1      26.057 -15.325  -0.681  0.00  0.00    -0.120 SA
BRANCH  10  11
ATOM     11  C   UNL d   1      24.726 -16.550  -0.565  0.00  0.00     0.007 A 
ATOM     12  C   UNL d   1      23.445 -16.063  -0.924  0.00  0.00     0.020 A 
ATOM     13  C   UNL d   1      22.301 -16.878  -0.895  0.00  0.00     0.020 A 
ATOM     14  C   UNL d   1      22.416 -18.199  -0.492  0.00  0.00     0.011 A 
ATOM     15  C   UNL d   1      23.658 -18.703  -0.129  0.00  0.00     0.027 A 
ATOM     16 BR   UNL d   1      20.904 -19.330  -0.433  0.00  0.00    -0.051 Br
ATOM     17  C   UNL d   1      24.817 -17.897  -0.168  0.00  0.00    -0.044 A 
ATOM     18  C   UNL d   1      26.088 -18.574   0.228  0.00  0.00     0.049 C 
ENDBRANCH  10  11
ENDBRANCH   9  10
ENDBRANCH   7   9
ENDBRANCH   6   7
ENDBRANCH   5   6
ENDBRANCH   1   5
BRANCH   3  19
ATOM     19  C   UNL d   1      28.532 -15.121  -5.540  0.00  0.00     0.037 A 
ATOM     20  C   UNL d   1      29.173 -16.103  -4.740  0.00  0.00     0.032 A 
ATOM     21  C   UNL d   1      30.435 -16.628  -5.094  0.00  0.00     0.034 A 
ATOM     22  C   UNL d   1      31.038 -16.108  -6.216  0.00  0.00     0.063 A 
ATOM     23  N   UNL d   1      32.269 -16.400  -6.796  0.00  0.00    -0.307 N 
ATOM     24  C   UNL d   1      30.428 -15.119  -6.979  0.00  0.00     0.065 A 
ATOM     25  C   UNL d   1      32.441 -15.578  -7.920  0.00  0.00     0.325 A 
ATOM     26  H   UNL d   1      32.952 -17.073  -6.491  0.00  0.00     0.170 HD
ATOM     27  O   UNL d   1      33.409 -15.555  -8.665  0.00  0.00    -0.247 OA
ATOM     28  N   UNL d   1      31.290 -14.787  -8.021  0.00  0.00    -0.306 N 
ATOM     29  H   UNL d   1      31.139 -14.102  -8.743  0.00  0.00     0.170 HD
ATOM     30  C   UNL d   1      29.183 -14.616  -6.677  0.00  0.00     0.061 A 
ENDBRANCH   3  19
TORSDOF 7
ENDMDL
MODEL 3
REMARK VINA RESULT:    -8.113      3.846      7.467
REMARK INTER + INTRA:         -12.035
REMARK INTER:                 -10.201
REMARK INTRA:                  -1.835
REMARK CONF_INDEPENDENT:        2.088
REMARK UNBOUND:                -1.835
REMARK  7 active torsions:
REMARK  status: ('A' for Active; 'I' for Inactive)
REMARK    1  A    between atoms: C_8  and  S_9 
REMARK    2  A    between atoms: S_9  and  C_10 
REMARK    3  A    between atoms: C_10  and  C_11 
REMARK    4  A    between atoms: C_11  and  O_13 
REMARK    5  A    between atoms: O_13  and  C_14 
REMARK    6  A    between atoms: C_14  and  C_15 
REMARK       I    between atoms: C_15  and  N_17 
REMARK    7  A    between atoms: N_17  and  C_18 
ROOT
ATOM      1  C   UNL d   1      27.870 -12.638  -1.304  0.00  0.00     0.246 C 
ATOM      2  O   UNL d   1      29.018 -12.283  -1.030  0.00  0.00    -0.271 OA
ATOM      3  N   UNL d   1      26.922 -12.977  -0.331  0.00  0.00    -0.325 N 
ATOM      4  H   UNL d   1      26.099 -13.504  -0.604  0.00  0.00     0.169 HD
ENDROOT
BRANCH   1   5
ATOM      5  C   UNL d   1      27.420 -12.775  -2.773  0.00  0.00     0.281 C 
BRANCH   5   6
ATOM      6  O   UNL d   1      25.999 -13.022  -2.852  0.00  0.00    -0.311 OA
BRANCH   6   7
ATOM      7  C   UNL d   1      25.648 -14.236  -3.383  0.00  0.00     0.268 C 
ATOM      8  O   UNL d   1      24.568 -14.448  -3.918  0.00  0.00    -0.264 OA
BRANCH   7   9
ATOM      9  C   UNL d   1      26.780 -15.232  -3.201  0.00  0.00     0.190 C 
BRANCH   9  10
ATOM     10  S   UNL d   1      26.974 -15.786  -1.452  0.00  0.00    -0.120 SA
BRANCH  10  11
ATOM     11  C   UNL d   1      25.522 -16.765  -0.989  0.00  0.00     0.007 A 
ATOM     12  C   UNL d   1      24.298 -16.295  -1.525  0.00  0.00     0.020 A 
ATOM     13  C   UNL d   1      23.074 -16.937  -1.270  0.00  0.00     0.020 A 
ATOM     14  C   UNL d   1      23.051 -18.060  -0.459  0.00  0.00     0.011 A 
ATOM     15  C   UNL d   1      24.234 -18.542   0.085  0.00  0.00     0.027 A 
ATOM     16 BR   UNL d   1      21.428 -18.952  -0.086  0.00  0.00    -0.051 Br
ATOM     17  C   UNL d   1      25.471 -17.914  -0.176  0.00  0.00    -0.044 A 
ATOM     18  C   UNL d   1      26.665 -18.550   0.457  0.00  0.00     0.049 C 
ENDBRANCH  10  11
ENDBRANCH   9  10
ENDBRANCH   7   9
ENDBRANCH   6   7
ENDBRANCH   5   6
ENDBRANCH   1   5
BRANCH   3  19
ATOM     19  C   UNL d   1      27.217 -12.901   1.062  0.00  0.00     0.037 A 
ATOM     20  C   UNL d   1      27.115 -11.662   1.746  0.00  0.00     0.032 A 
ATOM     21  C   UNL d   1      27.347 -11.568   3.135  0.00  0.00     0.034 A 
ATOM     22  C   UNL d   1      27.731 -12.718   3.785  0.00  0.00     0.063 A 
ATOM     23  N   UNL d   1      28.048 -12.936   5.123  0.00  0.00    -0.307 N 
ATOM     24  C   UNL d   1      27.868 -13.926   3.110  0.00  0.00     0.065 A 
ATOM     25  C   UNL d   1      28.403 -14.283   5.286  0.00  0.00     0.325 A 
ATOM     26  H   UNL d   1      28.043 -12.268   5.876  0.00  0.00     0.170 HD
ATOM     27  O   UNL d   1      28.749 -14.825   6.326  0.00  0.00    -0.247 OA
ATOM     28  N   UNL d   1      28.288 -14.885   4.028  0.00  0.00    -0.306 N 
ATOM     29  H   UNL d   1      28.480 -15.857   3.848  0.00  0.00     0.170 HD
ATOM     30  C   UNL d   1      27.611 -14.052   1.764  0.00  0.00     0.061 A 
ENDBRANCH   3  19
TORSDOF 7
ENDMDL
MODEL 4
REMARK VINA RESULT:    -8.025      5.397      8.171
REMARK INTER + INTRA:         -12.565
REMARK INTER:                 -10.113
REMARK INTRA:                  -2.451
REMARK CONF_INDEPENDENT:        2.088
REMARK UNBOUND:                -2.451
REMARK  7 active torsions:
REMARK  status: ('A' for Active; 'I' for Inactive)
REMARK    1  A    between atoms: C_8  and  S_9 
REMARK    2  A    between atoms: S_9  and  C_10 
REMARK    3  A    between atoms: C_10  and  C_11 
REMARK    4  A    between atoms: C_11  and  O_13 
REMARK    5  A    between atoms: O_13  and  C_14 
REMARK    6  A    between atoms: C_14  and  C_15 
REMARK       I    between atoms: C_15  and  N_17 
REMARK    7  A    between atoms: N_17  and  C_18 
ROOT
ATOM      1  C   UNL d   1      25.606 -14.187  -4.641  0.00  0.00     0.246 C 
ATOM      2  O   UNL d   1      24.409 -14.078  -4.367  0.00  0.00    -0.271 OA
ATOM      3  N   UNL d   1      26.464 -13.088  -4.770  0.00  0.00    -0.325 N 
ATOM      4  H   UNL d   1      27.353 -13.206  -5.245  0.00  0.00     0.169 HD
ENDROOT
BRANCH   1   5
ATOM      5  C   UNL d   1      26.227 -15.573  -4.909  0.00  0.00     0.281 C 
BRANCH   5   6
ATOM      6  O   UNL d   1      27.611 -15.447  -5.304  0.00  0.00    -0.311 OA
BRANCH   6   7
ATOM      7  C   UNL d   1      28.462 -15.026  -4.316  0.00  0.00     0.268 C 
ATOM      8  O   UNL d   1      29.183 -14.044  -4.425  0.00  0.00    -0.264 OA
BRANCH   7   9
ATOM      9  C   UNL d   1      28.363 -15.949  -3.113  0.00  0.00     0.190 C 
BRANCH   9  10
ATOM     10  S   UNL d   1      27.519 -15.162  -1.674  0.00  0.00    -0.120 SA
BRANCH  10  11
ATOM     11  C   UNL d   1      26.127 -16.209  -1.173  0.00  0.00     0.007 A 
ATOM     12  C   UNL d   1      24.862 -15.770  -1.639  0.00  0.00     0.020 A 
ATOM     13  C   UNL d   1      23.676 -16.465  -1.347  0.00  0.00     0.020 A 
ATOM     14  C   UNL d   1      23.733 -17.611  -0.569  0.00  0.00     0.011 A 
ATOM     15  C   UNL d   1      24.957 -18.062  -0.095  0.00  0.00     0.027 A 
ATOM     16 BR   UNL d   1      22.163 -18.573  -0.148  0.00  0.00    -0.051 Br
ATOM     17  C   UNL d   1      26.156 -17.381  -0.393  0.00  0.00    -0.044 A 
ATOM     18  C   UNL d   1      27.401 -17.988   0.165  0.00  0.00     0.049 C 
ENDBRANCH  10  11
ENDBRANCH   9  10
ENDBRANCH   7   9
ENDBRANCH   6   7
ENDBRANCH   5   6
ENDBRANCH   1   5
BRANCH   3  19
ATOM     19  C   UNL d   1      26.010 -11.753  -4.557  0.00  0.00     0.037 A 
ATOM     20  C   UNL d   1      25.924 -11.232  -3.240  0.00  0.00     0.032 A 
ATOM     21  C   UNL d   1      25.530  -9.897  -3.003  0.00  0.00     0.034 A 
ATOM     22  C   UNL d   1      25.182  -9.143  -4.099  0.00  0.00     0.063 A 
ATOM     23  N   UNL d   1      24.739  -7.826  -4.185  0.00  0.00    -0.307 N 
ATOM     24  C   UNL d   1      25.230  -9.663  -5.387  0.00  0.00     0.065 A 
ATOM     25  C   UNL d   1      24.491  -7.523  -5.532  0.00  0.00     0.325 A 
ATOM     26  H   UNL d   1      24.599  -7.170  -3.433  0.00  0.00     0.170 HD
ATOM     27  O   UNL d   1      24.082  -6.460  -5.977  0.00  0.00    -0.247 OA
ATOM     28  N   UNL d   1      24.799  -8.673  -6.267  0.00  0.00    -0.306 N 
ATOM     29  H   UNL d   1      24.717  -8.741  -7.268  0.00  0.00     0.170 HD
ATOM     30  C   UNL d   1      25.646 -10.948  -5.648  0.00  0.00     0.061 A 
ENDBRANCH   3  19
TORSDOF 7
ENDMDL
MODEL 5
REMARK VINA RESULT:    -8.000      5.593      8.638
REMARK INTER + INTRA:         -12.086
REMARK INTER:                 -10.088
REMARK INTRA:                  -1.998
REMARK CONF_INDEPENDENT:        2.088
REMARK UNBOUND:                -1.998
REMARK  7 active torsions:
REMARK  status: ('A' for Active; 'I' for Inactive)
REMARK    1  A    between atoms: C_8  and  S_9 
REMARK    2  A    between atoms: S_9  and  C_10 
REMARK    3  A    between atoms: C_10  and  C_11 
REMARK    4  A    between atoms: C_11  and  O_13 
REMARK    5  A    between atoms: O_13  and  C_14 
REMARK    6  A    between atoms: C_14  and  C_15 
REMARK       I    between atoms: C_15  and  N_17 
REMARK    7  A    between atoms: N_17  and  C_18 
ROOT
ATOM      1  C   UNL d   1      26.874 -13.140  -5.127  0.00  0.00     0.246 C 
ATOM      2  O   UNL d   1      27.996 -12.650  -4.978  0.00  0.00    -0.271 OA
ATOM      3  N   UNL d   1      25.693 -12.400  -4.994  0.00  0.00    -0.325 N 
ATOM      4  H   UNL d   1      24.813 -12.889  -4.866  0.00  0.00     0.169 HD
ENDROOT
BRANCH   1   5
ATOM      5  C   UNL d   1      26.708 -14.643  -5.431  0.00  0.00     0.281 C 
BRANCH   5   6
ATOM      6  O   UNL d   1      25.517 -15.164  -4.801  0.00  0.00    -0.311 OA
BRANCH   6   7
ATOM      7  C   UNL d   1      25.325 -14.771  -3.502  0.00  0.00     0.268 C 
ATOM      8  O   UNL d   1      24.364 -14.108  -3.137  0.00  0.00    -0.264 OA
BRANCH   7   9
ATOM      9  C   UNL d   1      26.461 -15.277  -2.630  0.00  0.00     0.190 C 
BRANCH   9  10
ATOM     10  S   UNL d   1      26.009 -15.367  -0.844  0.00  0.00    -0.120 SA
BRANCH  10  11
ATOM     11  C   UNL d   1      24.677 -16.579  -0.642  0.00  0.00     0.007 A 
ATOM     12  C   UNL d   1      23.388 -16.101  -0.987  0.00  0.00     0.020 A 
ATOM     13  C   UNL d   1      22.242 -16.908  -0.894  0.00  0.00     0.020 A 
ATOM     14  C   UNL d   1      22.363 -18.212  -0.440  0.00  0.00     0.011 A 
ATOM     15  C   UNL d   1      23.612 -18.707  -0.090  0.00  0.00     0.027 A 
ATOM     16 BR   UNL d   1      20.848 -19.331  -0.295  0.00  0.00    -0.051 Br
ATOM     17  C   UNL d   1      24.772 -17.910  -0.193  0.00  0.00    -0.044 A 
ATOM     18  C   UNL d   1      26.051 -18.576   0.197  0.00  0.00     0.049 C 
ENDBRANCH  10  11
ENDBRANCH   9  10
ENDBRANCH   7   9
ENDBRANCH   6   7
ENDBRANCH   5   6
ENDBRANCH   1   5
BRANCH   3  19
ATOM     19  C   UNL d   1      25.711 -11.003  -4.706  0.00  0.00     0.037 A 
ATOM     20  C   UNL d   1      25.684 -10.057  -5.763  0.00  0.00     0.032 A 
ATOM     21  C   UNL d   1      25.646  -8.669  -5.505  0.00  0.00     0.034 A 
ATOM     22  C   UNL d   1      25.692  -8.275  -4.188  0.00  0.00     0.063 A 
ATOM     23  N   UNL d   1      25.693  -7.001  -3.627  0.00  0.00    -0.307 N 
ATOM     24  C   UNL d   1      25.757  -9.200  -3.152  0.00  0.00     0.065 A 
ATOM     25  C   UNL d   1      25.777  -7.126  -2.232  0.00  0.00     0.325 A 
ATOM     26  H   UNL d   1      25.650  -6.115  -4.104  0.00  0.00     0.170 HD
ATOM     27  O   UNL d   1      25.811  -6.214  -1.420  0.00  0.00    -0.247 OA
ATOM     28  N   UNL d   1      25.817  -8.497  -1.952  0.00  0.00    -0.306 N 
ATOM     29  H   UNL d   1      25.874  -8.881  -1.023  0.00  0.00     0.170 HD
ATOM     30  C   UNL d   1      25.758 -10.558  -3.375  0.00  0.00     0.061 A 
ENDBRANCH   3  19
TORSDOF 7
ENDMDL
MODEL 6
REMARK VINA RESULT:    -7.758      4.677      8.728
REMARK INTER + INTRA:         -11.921
REMARK INTER:                  -9.846
REMARK INTRA:                  -2.075
REMARK CONF_INDEPENDENT:        2.088
REMARK UNBOUND:                -2.075
REMARK  7 active torsions:
REMARK  status: ('A' for Active; 'I' for Inactive)
REMARK    1  A    between atoms: C_8  and  S_9 
REMARK    2  A    between atoms: S_9  and  C_10 
REMARK    3  A    between atoms: C_10  and  C_11 
REMARK    4  A    between atoms: C_11  and  O_13 
REMARK    5  A    between atoms: O_13  and  C_14 
REMARK    6  A    between atoms: C_14  and  C_15 
REMARK       I    between atoms: C_15  and  N_17 
REMARK    7  A    between atoms: N_17  and  C_18 
ROOT
ATOM      1  C   UNL d   1      27.152 -13.171   2.546  0.00  0.00     0.246 C 
ATOM      2  O   UNL d   1      26.658 -12.062   2.761  0.00  0.00    -0.271 OA
ATOM      3  N   UNL d   1      27.890 -13.878   3.504  0.00  0.00    -0.325 N 
ATOM      4  H   UNL d   1      28.485 -14.643   3.206  0.00  0.00     0.169 HD
ENDROOT
BRANCH   1   5
ATOM      5  C   UNL d   1      27.019 -13.835   1.161  0.00  0.00     0.281 C 
BRANCH   5   6
ATOM      6  O   UNL d   1      27.602 -15.157   1.168  0.00  0.00    -0.311 OA
BRANCH   6   7
ATOM      7  C   UNL d   1      28.954 -15.198   0.945  0.00  0.00     0.268 C 
ATOM      8  O   UNL d   1      29.743 -14.413   1.452  0.00  0.00    -0.264 OA
BRANCH   7   9
ATOM      9  C   UNL d   1      29.291 -16.339  -0.000  0.00  0.00     0.190 C 
BRANCH   9  10
ATOM     10  S   UNL d   1      28.362 -16.249  -1.592  0.00  0.00    -0.120 SA
BRANCH  10  11
ATOM     11  C   UNL d   1      26.638 -16.716  -1.287  0.00  0.00     0.007 A 
ATOM     12  C   UNL d   1      26.471 -17.795  -0.383  0.00  0.00     0.020 A 
ATOM     13  C   UNL d   1      25.202 -18.285  -0.030  0.00  0.00     0.020 A 
ATOM     14  C   UNL d   1      24.071 -17.709  -0.587  0.00  0.00     0.011 A 
ATOM     15  C   UNL d   1      24.204 -16.654  -1.479  0.00  0.00     0.027 A 
ATOM     16 BR   UNL d   1      22.346 -18.339  -0.145  0.00  0.00    -0.051 Br
ATOM     17  C   UNL d   1      25.472 -16.144  -1.830  0.00  0.00    -0.044 A 
ATOM     18  C   UNL d   1      25.466 -14.995  -2.784  0.00  0.00     0.049 C 
ENDBRANCH  10  11
ENDBRANCH   9  10
ENDBRANCH   7   9
ENDBRANCH   6   7
ENDBRANCH   5   6
ENDBRANCH   1   5
BRANCH   3  19
ATOM     19  C   UNL d   1      28.093 -13.367   4.820  0.00  0.00     0.037 A 
ATOM     20  C   UNL d   1      27.979 -11.975   5.070  0.00  0.00     0.032 A 
ATOM     21  C   UNL d   1      28.121 -11.448   6.372  0.00  0.00     0.034 A 
ATOM     22  C   UNL d   1      28.427 -12.336   7.377  0.00  0.00     0.063 A 
ATOM     23  N   UNL d   1      28.647 -12.122   8.735  0.00  0.00    -0.307 N 
ATOM     24  C   UNL d   1      28.576 -13.696   7.128  0.00  0.00     0.065 A 
ATOM     25  C   UNL d   1      28.953 -13.351   9.339  0.00  0.00     0.325 A 
ATOM     26  H   UNL d   1      28.611 -11.250   9.237  0.00  0.00     0.170 HD
ATOM     27  O   UNL d   1      29.213 -13.538  10.518  0.00  0.00    -0.247 OA
ATOM     28  N   UNL d   1      28.906 -14.319   8.329  0.00  0.00    -0.306 N 
ATOM     29  H   UNL d   1      29.082 -15.299   8.479  0.00  0.00     0.170 HD
ATOM     30  C   UNL d   1      28.407 -14.239   5.875  0.00  0.00     0.061 A 
ENDBRANCH   3  19
TORSDOF 7
ENDMDL
MODEL 7
REMARK VINA RESULT:    -7.723      4.828      6.480
REMARK INTER + INTRA:         -11.945
REMARK INTER:                  -9.812
REMARK INTRA:                  -2.134
REMARK CONF_INDEPENDENT:        2.088
REMARK UNBOUND:                -2.134
REMARK  7 active torsions:
REMARK  status: ('A' for Active; 'I' for Inactive)
REMARK    1  A    between atoms: C_8  and  S_9 
REMARK    2  A    between atoms: S_9  and  C_10 
REMARK    3  A    between atoms: C_10  and  C_11 
REMARK    4  A    between atoms: C_11  and  O_13 
REMARK    5  A    between atoms: O_13  and  C_14 
REMARK    6  A    between atoms: C_14  and  C_15 
REMARK       I    between atoms: C_15  and  N_17 
REMARK    7  A    between atoms: N_17  and  C_18 
ROOT
ATOM      1  C   UNL d   1      26.523 -15.777  -1.333  0.00  0.00     0.246 C 
ATOM      2  O   UNL d   1      27.108 -16.825  -1.055  0.00  0.00    -0.271 OA
ATOM      3  N   UNL d   1      25.128 -15.653  -1.321  0.00  0.00    -0.325 N 
ATOM      4  H   UNL d   1      24.696 -14.870  -1.802  0.00  0.00     0.169 HD
ENDROOT
BRANCH   1   5
ATOM      5  C   UNL d   1      27.316 -14.526  -1.765  0.00  0.00     0.281 C 
BRANCH   5   6
ATOM      6  O   UNL d   1      26.447 -13.561  -2.396  0.00  0.00    -0.311 OA
BRANCH   6   7
ATOM      7  C   UNL d   1      25.953 -13.933  -3.619  0.00  0.00     0.268 C 
ATOM      8  O   UNL d   1      24.760 -14.082  -3.844  0.00  0.00    -0.264 OA
BRANCH   7   9
ATOM      9  C   UNL d   1      27.093 -14.119  -4.606  0.00  0.00     0.190 C 
BRANCH   9  10
ATOM     10  S   UNL d   1      28.001 -12.552  -4.957  0.00  0.00    -0.120 SA
BRANCH  10  11
ATOM     11  C   UNL d   1      26.820 -11.178  -4.932  0.00  0.00     0.007 A 
ATOM     12  C   UNL d   1      26.132 -10.970  -6.153  0.00  0.00     0.020 A 
ATOM     13  C   UNL d   1      25.178  -9.950  -6.308  0.00  0.00     0.020 A 
ATOM     14  C   UNL d   1      24.903  -9.107  -5.243  0.00  0.00     0.011 A 
ATOM     15  C   UNL d   1      25.565  -9.284  -4.036  0.00  0.00     0.027 A 
ATOM     16 BR   UNL d   1      23.631  -7.720  -5.408  0.00  0.00    -0.051 Br
ATOM     17  C   UNL d   1      26.515 -10.314  -3.863  0.00  0.00    -0.044 A 
ATOM     18  C   UNL d   1      27.135 -10.401  -2.508  0.00  0.00     0.049 C 
ENDBRANCH  10  11
ENDBRANCH   9  10
ENDBRANCH   7   9
ENDBRANCH   6   7
ENDBRANCH   5   6
ENDBRANCH   1   5
BRANCH   3  19
ATOM     19  C   UNL d   1      24.282 -16.739  -0.949  0.00  0.00     0.037 A 
ATOM     20  C   UNL d   1      24.818 -17.853  -0.252  0.00  0.00     0.032 A 
ATOM     21  C   UNL d   1      23.994 -18.916   0.177  0.00  0.00     0.034 A 
ATOM     22  C   UNL d   1      22.662 -18.850  -0.158  0.00  0.00     0.063 A 
ATOM     23  N   UNL d   1      21.622 -19.740   0.098  0.00  0.00    -0.307 N 
ATOM     24  C   UNL d   1      22.142 -17.778  -0.873  0.00  0.00     0.065 A 
ATOM     25  C   UNL d   1      20.446 -19.232  -0.475  0.00  0.00     0.325 A 
ATOM     26  H   UNL d   1      21.664 -20.613   0.598  0.00  0.00     0.170 HD
ATOM     27  O   UNL d   1      19.341 -19.754  -0.455  0.00  0.00    -0.247 OA
ATOM     28  N   UNL d   1      20.784 -18.014  -1.075  0.00  0.00    -0.306 N 
ATOM     29  H   UNL d   1      20.129 -17.424  -1.562  0.00  0.00     0.170 HD
ATOM     30  C   UNL d   1      22.916 -16.712  -1.271  0.00  0.00     0.061 A 
ENDBRANCH   3  19
TORSDOF 7
ENDMDL
MODEL 8
REMARK VINA RESULT:    -7.592      3.843      5.674
REMARK INTER + INTRA:         -12.294
REMARK INTER:                  -9.680
REMARK INTRA:                  -2.614
REMARK CONF_INDEPENDENT:        2.088
REMARK UNBOUND:                -2.614
REMARK  7 active torsions:
REMARK  status: ('A' for Active; 'I' for Inactive)
REMARK    1  A    between atoms: C_8  and  S_9 
REMARK    2  A    between atoms: S_9  and  C_10 
REMARK    3  A    between atoms: C_10  and  C_11 
REMARK    4  A    between atoms: C_11  and  O_13 
REMARK    5  A    between atoms: O_13  and  C_14 
REMARK    6  A    between atoms: C_14  and  C_15 
REMARK       I    between atoms: C_15  and  N_17 
REMARK    7  A    between atoms: N_17  and  C_18 
ROOT
ATOM      1  C   UNL d   1      27.348 -17.092  -0.694  0.00  0.00     0.246 C 
ATOM      2  O   UNL d   1      27.115 -16.902  -1.889  0.00  0.00    -0.271 OA
ATOM      3  N   UNL d   1      26.344 -17.328   0.253  0.00  0.00    -0.325 N 
ATOM      4  H   UNL d   1      26.556 -17.218   1.239  0.00  0.00     0.169 HD
ENDROOT
BRANCH   1   5
ATOM      5  C   UNL d   1      28.793 -17.035  -0.157  0.00  0.00     0.281 C 
BRANCH   5   6
ATOM      6  O   UNL d   1      29.154 -15.682   0.198  0.00  0.00    -0.311 OA
BRANCH   6   7
ATOM      7  C   UNL d   1      28.245 -15.023   0.984  0.00  0.00     0.268 C 
ATOM      8  O   UNL d   1      27.677 -15.542   1.934  0.00  0.00    -0.264 OA
BRANCH   7   9
ATOM      9  C   UNL d   1      28.071 -13.595   0.493  0.00  0.00     0.190 C 
BRANCH   9  10
ATOM     10  S   UNL d   1      26.654 -13.405  -0.673  0.00  0.00    -0.120 SA
BRANCH  10  11
ATOM     11  C   UNL d   1      27.190 -13.917  -2.327  0.00  0.00     0.007 A 
ATOM     12  C   UNL d   1      28.595 -13.993  -2.494  0.00  0.00     0.020 A 
ATOM     13  C   UNL d   1      29.183 -14.377  -3.711  0.00  0.00     0.020 A 
ATOM     14  C   UNL d   1      28.371 -14.682  -4.793  0.00  0.00     0.011 A 
ATOM     15  C   UNL d   1      26.991 -14.612  -4.660  0.00  0.00     0.027 A 
ATOM     16 BR   UNL d   1      29.119 -15.198  -6.449  0.00  0.00    -0.051 Br
ATOM     17  C   UNL d   1      26.389 -14.241  -3.439  0.00  0.00    -0.044 A 
ATOM     18  C   UNL d   1      24.896 -14.227  -3.432  0.00  0.00     0.049 C 
ENDBRANCH  10  11
ENDBRANCH   9  10
ENDBRANCH   7   9
ENDBRANCH   6   7
ENDBRANCH   5   6
ENDBRANCH   1   5
BRANCH   3  19
ATOM     19  C   UNL d   1      24.968 -17.397  -0.115  0.00  0.00     0.037 A 
ATOM     20  C   UNL d   1      24.331 -16.273  -0.703  0.00  0.00     0.032 A 
ATOM     21  C   UNL d   1      22.985 -16.330  -1.127  0.00  0.00     0.034 A 
ATOM     22  C   UNL d   1      22.305 -17.502  -0.896  0.00  0.00     0.063 A 
ATOM     23  N   UNL d   1      20.986 -17.851  -1.174  0.00  0.00    -0.307 N 
ATOM     24  C   UNL d   1      22.916 -18.592  -0.286  0.00  0.00     0.065 A 
ATOM     25  C   UNL d   1      20.763 -19.159  -0.721  0.00  0.00     0.325 A 
ATOM     26  H   UNL d   1      20.278 -17.288  -1.617  0.00  0.00     0.170 HD
ATOM     27  O   UNL d   1      19.716 -19.786  -0.790  0.00  0.00    -0.247 OA
ATOM     28  N   UNL d   1      21.969 -19.607  -0.170  0.00  0.00    -0.306 N 
ATOM     29  H   UNL d   1      22.101 -20.520   0.231  0.00  0.00     0.170 HD
ATOM     30  C   UNL d   1      24.236 -18.575   0.103  0.00  0.00     0.061 A 
ENDBRANCH   3  19
TORSDOF 7
ENDMDL
MODEL 9
REMARK VINA RESULT:    -7.587      4.915      6.638
REMARK INTER + INTRA:         -12.167
REMARK INTER:                  -9.675
REMARK INTRA:                  -2.492
REMARK CONF_INDEPENDENT:        2.088
REMARK UNBOUND:                -2.492
REMARK  7 active torsions:
REMARK  status: ('A' for Active; 'I' for Inactive)
REMARK    1  A    between atoms: C_8  and  S_9 
REMARK    2  A    between atoms: S_9  and  C_10 
REMARK    3  A    between atoms: C_10  and  C_11 
REMARK    4  A    between atoms: C_11  and  O_13 
REMARK    5  A    between atoms: O_13  and  C_14 
REMARK    6  A    between atoms: C_14  and  C_15 
REMARK       I    between atoms: C_15  and  N_17 
REMARK    7  A    between atoms: N_17  and  C_18 
ROOT
ATOM      1  C   UNL d   1      26.512 -15.550  -1.698  0.00  0.00     0.246 C 
ATOM      2  O   UNL d   1      27.006 -16.655  -1.928  0.00  0.00    -0.271 OA
ATOM      3  N   UNL d   1      25.218 -15.381  -1.189  0.00  0.00    -0.325 N 
ATOM      4  H   UNL d   1      24.770 -14.474  -1.265  0.00  0.00     0.169 HD
ENDROOT
BRANCH   1   5
ATOM      5  C   UNL d   1      27.296 -14.259  -2.011  0.00  0.00     0.281 C 
BRANCH   5   6
ATOM      6  O   UNL d   1      26.434 -13.103  -1.930  0.00  0.00    -0.311 OA
BRANCH   6   7
ATOM      7  C   UNL d   1      25.595 -12.926  -2.999  0.00  0.00     0.268 C 
ATOM      8  O   UNL d   1      24.657 -13.670  -3.248  0.00  0.00    -0.264 OA
BRANCH   7   9
ATOM      9  C   UNL d   1      26.012 -11.697  -3.791  0.00  0.00     0.190 C 
BRANCH   9  10
ATOM     10  S   UNL d   1      26.277 -12.054  -5.581  0.00  0.00    -0.120 SA
BRANCH  10  11
ATOM     11  C   UNL d   1      27.547 -13.338  -5.736  0.00  0.00     0.007 A 
ATOM     12  C   UNL d   1      28.814 -12.866  -6.162  0.00  0.00     0.020 A 
ATOM     13  C   UNL d   1      29.913 -13.725  -6.332  0.00  0.00     0.020 A 
ATOM     14  C   UNL d   1      29.761 -15.081  -6.089  0.00  0.00     0.011 A 
ATOM     15  C   UNL d   1      28.530 -15.573  -5.675  0.00  0.00     0.027 A 
ATOM     16 BR   UNL d   1      31.210 -16.272  -6.309  0.00  0.00    -0.051 Br
ATOM     17  C   UNL d   1      27.423 -14.718  -5.488  0.00  0.00    -0.044 A 
ATOM     18  C   UNL d   1      26.168 -15.379  -5.021  0.00  0.00     0.049 C 
ENDBRANCH  10  11
ENDBRANCH   9  10
ENDBRANCH   7   9
ENDBRANCH   6   7
ENDBRANCH   5   6
ENDBRANCH   1   5
BRANCH   3  19
ATOM     19  C   UNL d   1      24.388 -16.495  -0.867  0.00  0.00     0.037 A 
ATOM     20  C   UNL d   1      24.921 -17.597  -0.150  0.00  0.00     0.032 A 
ATOM     21  C   UNL d   1      24.109 -18.688   0.230  0.00  0.00     0.034 A 
ATOM     22  C   UNL d   1      22.795 -18.661  -0.173  0.00  0.00     0.063 A 
ATOM     23  N   UNL d   1      21.771 -19.583   0.024  0.00  0.00    -0.307 N 
ATOM     24  C   UNL d   1      22.279 -17.599  -0.908  0.00  0.00     0.065 A 
ATOM     25  C   UNL d   1      20.611 -19.107  -0.605  0.00  0.00     0.325 A 
ATOM     26  H   UNL d   1      21.814 -20.458   0.521  0.00  0.00     0.170 HD
ATOM     27  O   UNL d   1      19.523 -19.662  -0.645  0.00  0.00    -0.247 OA
ATOM     28  N   UNL d   1      20.942 -17.875  -1.181  0.00  0.00    -0.306 N 
ATOM     29  H   UNL d   1      20.295 -17.302  -1.697  0.00  0.00     0.170 HD
ATOM     30  C   UNL d   1      23.040 -16.507  -1.258  0.00  0.00     0.061 A 
ENDBRANCH   3  19
TORSDOF 7
ENDMDL
