MODEL 1
REMARK VINA RESULT:    -8.880      0.000      0.000
REMARK INTER + INTRA:         -14.091
REMARK INTER:                 -11.565
REMARK INTRA:                  -2.526
REMARK CONF_INDEPENDENT:        2.685
REMARK UNBOUND:                -2.526
REMARK  9 active torsions:
REMARK  status: ('A' for Active; 'I' for Inactive)
REMARK    1  A    between atoms: C_2  and  O_5 
REMARK    2  A    between atoms: O_5  and  C_6 
REMARK       I    between atoms: C_6  and  N_8 
REMARK    3  A    between atoms: N_8  and  C_9 
REMARK    4  A    between atoms: C_9  and  C_10 
REMARK    5  A    between atoms: C_9  and  C_20 
REMARK    6  A    between atoms: C_10  and  C_11 
REMARK    7  A    between atoms: C_23  and  S_24 
REMARK    8  A    between atoms: S_24  and  C_25 
REMARK    9  A    between atoms: C_25  and  C_26 
ROOT
ATOM      1  C   UNL d   1      26.088 -13.636  -3.649  0.00  0.00     0.135 C 
ENDROOT
BRANCH   1   2
ATOM      2  N   UNL d   1      27.316 -14.250  -4.214  0.00  0.00    -0.328 N 
ATOM      3  C   UNL d   1      27.268 -15.200  -5.208  0.00  0.00     0.361 C 
ATOM      4  O   UNL d   1      26.192 -15.511  -5.735  0.00  0.00    -0.238 OA
ATOM      5  H   UNL d   1      28.218 -13.904  -3.900  0.00  0.00     0.165 HD
BRANCH   3   6
ATOM      6  O   UNL d   1      28.457 -15.804  -5.504  0.00  0.00    -0.294 OA
BRANCH   6   7
ATOM      7  C   UNL d   1      29.503 -15.053  -6.229  0.00  0.00     0.061 C 
ATOM      8  C   UNL d   1      28.880 -14.065  -7.210  0.00  0.00     0.046 C 
ATOM      9  C   UNL d   1      30.559 -15.931  -6.900  0.00  0.00     0.046 C 
ATOM     10  C   UNL d   1      30.240 -14.145  -5.296  0.00  0.00     0.046 C 
ENDBRANCH   6   7
ENDBRANCH   3   6
ENDBRANCH   1   2
BRANCH   1  11
ATOM     11  C   UNL d   1      25.080 -14.688  -3.077  0.00  0.00     0.066 C 
BRANCH  11  12
ATOM     12  C   UNL d   1      25.605 -15.726  -2.154  0.00  0.00    -0.048 A 
ATOM     13  C   UNL d   1      24.871 -16.587  -1.444  0.00  0.00    -0.006 A 
ATOM     14  C   UNL d   1      23.464 -16.734  -1.270  0.00  0.00     0.014 C 
ATOM     15  C   UNL d   1      25.838 -17.247  -0.544  0.00  0.00     0.038 A 
ATOM     16  C   UNL d   1      23.022 -17.633  -0.377  0.00  0.00     0.001 C 
ATOM     17  C   UNL d   1      23.953 -18.379   0.478  0.00  0.00     0.002 C 
ATOM     18  C   UNL d   1      25.296 -18.199   0.456  0.00  0.00     0.030 C 
ATOM     19  N   UNL d   1      27.030 -16.809  -0.714  0.00  0.00    -0.385 N 
ATOM     20  C   UNL d   1      27.059 -15.808  -1.801  0.00  0.00     0.155 A 
ATOM     21  H   UNL d   1      27.820 -17.066  -0.129  0.00  0.00     0.160 HD
ENDBRANCH  11  12
ENDBRANCH   1  11
BRANCH   1  22
ATOM     22  C   UNL d   1      26.323 -12.554  -2.525  0.00  0.00     0.233 C 
ATOM     23  N   UNL d   1      26.239 -11.125  -2.854  0.00  0.00    -0.228 NA
ATOM     24  N   UNL d   1      27.245 -10.479  -1.937  0.00  0.00    -0.222 NA
ATOM     25  H   UNL d   1      25.300 -10.793  -2.615  0.00  0.00     0.143 HD
ATOM     26  C   UNL d   1      27.855 -11.560  -1.181  0.00  0.00     0.275 C 
ATOM     27  H   UNL d   1      26.806  -9.863  -1.251  0.00  0.00     0.144 HD
ATOM     28  O   UNL d   1      27.619 -12.739  -1.937  0.00  0.00    -0.338 OA
BRANCH  26  29
ATOM     29  S   UNL d   1      27.034 -11.846   0.373  0.00  0.00    -0.116 SA
BRANCH  29  30
ATOM     30  C   UNL d   1      28.105 -11.380   1.732  0.00  0.00     0.120 C 
BRANCH  30  31
ATOM     31  C   UNL d   1      27.916 -12.301   2.947  0.00  0.00    -0.005 C 
ATOM     32  C   UNL d   1      27.843 -13.726   2.943  0.00  0.00     0.042 C 
ATOM     33 CL   UNL d   1      27.917 -14.845   1.607  0.00  0.00    -0.084 Cl
ATOM     34  C   UNL d   1      27.776 -14.452   4.132  0.00  0.00     0.024 C 
ATOM     35  C   UNL d   1      27.977 -13.830   5.343  0.00  0.00     0.003 C 
ATOM     36  C   UNL d   1      27.943 -12.448   5.402  0.00  0.00     0.024 C 
ATOM     37  C   UNL d   1      27.864 -11.690   4.225  0.00  0.00     0.042 C 
ATOM     38 CL   UNL d   1      27.703  -9.976   4.432  0.00  0.00    -0.084 Cl
ENDBRANCH  30  31
ENDBRANCH  29  30
ENDBRANCH  26  29
ENDBRANCH   1  22
TORSDOF 9
ENDMDL
MODEL 2
REMARK VINA RESULT:    -8.584      3.436      7.038
REMARK INTER + INTRA:         -14.091
REMARK INTER:                 -11.268
REMARK INTRA:                  -2.823
REMARK CONF_INDEPENDENT:        2.685
REMARK UNBOUND:                -2.823
REMARK  9 active torsions:
REMARK  status: ('A' for Active; 'I' for Inactive)
REMARK    1  A    between atoms: C_2  and  O_5 
REMARK    2  A    between atoms: O_5  and  C_6 
REMARK       I    between atoms: C_6  and  N_8 
REMARK    3  A    between atoms: N_8  and  C_9 
REMARK    4  A    between atoms: C_9  and  C_10 
REMARK    5  A    between atoms: C_9  and  C_20 
REMARK    6  A    between atoms: C_10  and  C_11 
REMARK    7  A    between atoms: C_23  and  S_24 
REMARK    8  A    between atoms: S_24  and  C_25 
REMARK    9  A    between atoms: C_25  and  C_26 
ROOT
ATOM      1  C   UNL d   1      28.333 -12.883   1.906  0.00  0.00     0.135 C 
ENDROOT
BRANCH   1   2
ATOM      2  N   UNL d   1      27.855 -12.072   0.757  0.00  0.00    -0.328 N 
ATOM      3  C   UNL d   1      26.960 -12.564  -0.164  0.00  0.00     0.361 C 
ATOM      4  O   UNL d   1      26.446 -13.681  -0.013  0.00  0.00    -0.238 OA
ATOM      5  H   UNL d   1      28.152 -11.103   0.694  0.00  0.00     0.165 HD
BRANCH   3   6
ATOM      6  O   UNL d   1      26.749 -11.777  -1.259  0.00  0.00    -0.294 OA
BRANCH   6   7
ATOM      7  C   UNL d   1      27.660 -11.870  -2.419  0.00  0.00     0.061 C 
ATOM      8  C   UNL d   1      28.391 -13.209  -2.428  0.00  0.00     0.046 C 
ATOM      9  C   UNL d   1      28.626 -10.693  -2.559  0.00  0.00     0.046 C 
ATOM     10  C   UNL d   1      26.881 -11.930  -3.694  0.00  0.00     0.046 C 
ENDBRANCH   6   7
ENDBRANCH   3   6
ENDBRANCH   1   2
BRANCH   1  11
ATOM     11  C   UNL d   1      27.232 -13.123   2.992  0.00  0.00     0.066 C 
BRANCH  11  12
ATOM     12  C   UNL d   1      27.655 -13.681   4.301  0.00  0.00    -0.048 A 
ATOM     13  C   UNL d   1      27.963 -12.974   5.392  0.00  0.00    -0.006 A 
ATOM     14  C   UNL d   1      28.074 -11.572   5.628  0.00  0.00     0.014 C 
ATOM     15  C   UNL d   1      28.515 -13.966   6.337  0.00  0.00     0.038 A 
ATOM     16  C   UNL d   1      28.532 -11.160   6.820  0.00  0.00     0.001 C 
ATOM     17  C   UNL d   1      29.007 -12.118   7.826  0.00  0.00     0.002 C 
ATOM     18  C   UNL d   1      29.050 -13.456   7.623  0.00  0.00     0.030 C 
ATOM     19  N   UNL d   1      28.527 -15.147   5.840  0.00  0.00    -0.385 N 
ATOM     20  C   UNL d   1      27.935 -15.141   4.487  0.00  0.00     0.155 A 
ATOM     21  H   UNL d   1      28.953 -15.951   6.293  0.00  0.00     0.160 HD
ENDBRANCH  11  12
ENDBRANCH   1  11
BRANCH   1  22
ATOM     22  C   UNL d   1      28.944 -14.291   1.539  0.00  0.00     0.233 C 
ATOM     23  N   UNL d   1      30.144 -14.773   2.234  0.00  0.00    -0.228 NA
ATOM     24  N   UNL d   1      30.869 -15.583   1.191  0.00  0.00    -0.222 NA
ATOM     25  H   UNL d   1      29.850 -15.389   2.998  0.00  0.00     0.143 HD
ATOM     26  C   UNL d   1      30.073 -15.488  -0.021  0.00  0.00     0.275 C 
ATOM     27  H   UNL d   1      30.909 -16.575   1.429  0.00  0.00     0.144 HD
ATOM     28  O   UNL d   1      29.264 -14.331   0.140  0.00  0.00    -0.338 OA
BRANCH  26  29
ATOM     29  S   UNL d   1      28.916 -16.832  -0.178  0.00  0.00    -0.116 SA
BRANCH  29  30
ATOM     30  C   UNL d   1      27.870 -16.581  -1.611  0.00  0.00     0.120 C 
BRANCH  30  31
ATOM     31  C   UNL d   1      26.384 -16.781  -1.273  0.00  0.00    -0.005 C 
ATOM     32  C   UNL d   1      25.842 -17.578  -0.221  0.00  0.00     0.042 C 
ATOM     33 CL   UNL d   1      26.653 -18.565   0.966  0.00  0.00    -0.084 Cl
ATOM     34  C   UNL d   1      24.472 -17.591   0.046  0.00  0.00     0.024 C 
ATOM     35  C   UNL d   1      23.632 -16.690  -0.566  0.00  0.00     0.003 C 
ATOM     36  C   UNL d   1      24.091 -15.980  -1.662  0.00  0.00     0.024 C 
ATOM     37  C   UNL d   1      25.438 -16.060  -2.044  0.00  0.00     0.042 C 
ATOM     38 CL   UNL d   1      25.867 -15.227  -3.503  0.00  0.00    -0.084 Cl
ENDBRANCH  30  31
ENDBRANCH  29  30
ENDBRANCH  26  29
ENDBRANCH   1  22
TORSDOF 9
ENDMDL
MODEL 3
REMARK VINA RESULT:    -8.508      1.708      2.533
REMARK INTER + INTRA:         -14.613
REMARK INTER:                 -11.193
REMARK INTRA:                  -3.420
REMARK CONF_INDEPENDENT:        2.685
REMARK UNBOUND:                -3.420
REMARK  9 active torsions:
REMARK  status: ('A' for Active; 'I' for Inactive)
REMARK    1  A    between atoms: C_2  and  O_5 
REMARK    2  A    between atoms: O_5  and  C_6 
REMARK       I    between atoms: C_6  and  N_8 
REMARK    3  A    between atoms: N_8  and  C_9 
REMARK    4  A    between atoms: C_9  and  C_10 
REMARK    5  A    between atoms: C_9  and  C_20 
REMARK    6  A    between atoms: C_10  and  C_11 
REMARK    7  A    between atoms: C_23  and  S_24 
REMARK    8  A    between atoms: S_24  and  C_25 
REMARK    9  A    between atoms: C_25  and  C_26 
ROOT
ATOM      1  C   UNL d   1      25.763 -13.387  -4.012  0.00  0.00     0.135 C 
ENDROOT
BRANCH   1   2
ATOM      2  N   UNL d   1      26.998 -14.105  -4.420  0.00  0.00    -0.328 N 
ATOM      3  C   UNL d   1      26.967 -15.201  -5.250  0.00  0.00     0.361 C 
ATOM      4  O   UNL d   1      25.905 -15.575  -5.765  0.00  0.00    -0.238 OA
ATOM      5  H   UNL d   1      27.895 -13.728  -4.127  0.00  0.00     0.165 HD
BRANCH   3   6
ATOM      6  O   UNL d   1      28.152 -15.864  -5.395  0.00  0.00    -0.294 OA
BRANCH   6   7
ATOM      7  C   UNL d   1      29.331 -15.154  -5.932  0.00  0.00     0.061 C 
ATOM      8  C   UNL d   1      30.162 -14.552  -4.803  0.00  0.00     0.046 C 
ATOM      9  C   UNL d   1      29.009 -14.123  -7.014  0.00  0.00     0.046 C 
ATOM     10  C   UNL d   1      30.292 -16.123  -6.545  0.00  0.00     0.046 C 
ENDBRANCH   6   7
ENDBRANCH   3   6
ENDBRANCH   1   2
BRANCH   1  11
ATOM     11  C   UNL d   1      25.021 -14.069  -2.815  0.00  0.00     0.066 C 
BRANCH  11  12
ATOM     12  C   UNL d   1      25.658 -15.255  -2.186  0.00  0.00    -0.048 A 
ATOM     13  C   UNL d   1      25.018 -16.258  -1.579  0.00  0.00    -0.006 A 
ATOM     14  C   UNL d   1      23.642 -16.472  -1.269  0.00  0.00     0.014 C 
ATOM     15  C   UNL d   1      26.089 -17.057  -0.950  0.00  0.00     0.038 A 
ATOM     16  C   UNL d   1      23.315 -17.541  -0.527  0.00  0.00     0.001 C 
ATOM     17  C   UNL d   1      24.345 -18.416   0.045  0.00  0.00     0.002 C 
ATOM     18  C   UNL d   1      25.674 -18.201  -0.102  0.00  0.00     0.030 C 
ATOM     19  N   UNL d   1      27.250 -16.563  -1.171  0.00  0.00    -0.385 N 
ATOM     20  C   UNL d   1      27.143 -15.368  -2.033  0.00  0.00     0.155 A 
ATOM     21  H   UNL d   1      28.106 -16.910  -0.748  0.00  0.00     0.160 HD
ENDBRANCH  11  12
ENDBRANCH   1  11
BRANCH   1  22
ATOM     22  C   UNL d   1      25.951 -11.865  -3.642  0.00  0.00     0.233 C 
ATOM     23  N   UNL d   1      25.530 -10.823  -4.586  0.00  0.00    -0.228 NA
ATOM     24  N   UNL d   1      26.518  -9.707  -4.364  0.00  0.00    -0.222 NA
ATOM     25  H   UNL d   1      24.593 -10.504  -4.320  0.00  0.00     0.143 HD
ATOM     26  C   UNL d   1      27.445 -10.184  -3.352  0.00  0.00     0.275 C 
ATOM     27  H   UNL d   1      26.078  -8.871  -3.977  0.00  0.00     0.144 HD
ATOM     28  O   UNL d   1      27.335 -11.600  -3.366  0.00  0.00    -0.338 OA
BRANCH  26  29
ATOM     29  S   UNL d   1      26.957  -9.707  -1.708  0.00  0.00    -0.116 SA
BRANCH  29  30
ATOM     30  C   UNL d   1      28.244 -10.129  -0.535  0.00  0.00     0.120 C 
BRANCH  30  31
ATOM     31  C   UNL d   1      27.844 -11.326   0.343  0.00  0.00    -0.005 C 
ATOM     32  C   UNL d   1      27.032 -11.298   1.517  0.00  0.00     0.042 C 
ATOM     33 CL   UNL d   1      26.275  -9.948   2.321  0.00  0.00    -0.084 Cl
ATOM     34  C   UNL d   1      26.655 -12.475   2.164  0.00  0.00     0.024 C 
ATOM     35  C   UNL d   1      26.889 -13.700   1.582  0.00  0.00     0.003 C 
ATOM     36  C   UNL d   1      27.760 -13.778   0.510  0.00  0.00     0.024 C 
ATOM     37  C   UNL d   1      28.273 -12.611  -0.074  0.00  0.00     0.042 C 
ATOM     38 CL   UNL d   1      29.449 -12.839  -1.327  0.00  0.00    -0.084 Cl
ENDBRANCH  30  31
ENDBRANCH  29  30
ENDBRANCH  26  29
ENDBRANCH   1  22
TORSDOF 9
ENDMDL
MODEL 4
REMARK VINA RESULT:    -8.465      1.462      1.707
REMARK INTER + INTRA:         -14.515
REMARK INTER:                 -11.150
REMARK INTRA:                  -3.365
REMARK CONF_INDEPENDENT:        2.685
REMARK UNBOUND:                -3.365
REMARK  9 active torsions:
REMARK  status: ('A' for Active; 'I' for Inactive)
REMARK    1  A    between atoms: C_2  and  O_5 
REMARK    2  A    between atoms: O_5  and  C_6 
REMARK       I    between atoms: C_6  and  N_8 
REMARK    3  A    between atoms: N_8  and  C_9 
REMARK    4  A    between atoms: C_9  and  C_10 
REMARK    5  A    between atoms: C_9  and  C_20 
REMARK    6  A    between atoms: C_10  and  C_11 
REMARK    7  A    between atoms: C_23  and  S_24 
REMARK    8  A    between atoms: S_24  and  C_25 
REMARK    9  A    between atoms: C_25  and  C_26 
ROOT
ATOM      1  C   UNL d   1      25.753 -13.389  -4.015  0.00  0.00     0.135 C 
ENDROOT
BRANCH   1   2
ATOM      2  N   UNL d   1      26.990 -14.105  -4.418  0.00  0.00    -0.328 N 
ATOM      3  C   UNL d   1      26.964 -15.200  -5.249  0.00  0.00     0.361 C 
ATOM      4  O   UNL d   1      25.905 -15.575  -5.770  0.00  0.00    -0.238 OA
ATOM      5  H   UNL d   1      27.885 -13.728  -4.120  0.00  0.00     0.165 HD
BRANCH   3   6
ATOM      6  O   UNL d   1      28.151 -15.862  -5.389  0.00  0.00    -0.294 OA
BRANCH   6   7
ATOM      7  C   UNL d   1      29.313 -15.171  -5.984  0.00  0.00     0.061 C 
ATOM      8  C   UNL d   1      28.860 -14.071  -6.938  0.00  0.00     0.046 C 
ATOM      9  C   UNL d   1      30.336 -16.102  -6.634  0.00  0.00     0.046 C 
ATOM     10  C   UNL d   1      30.052 -14.395  -4.940  0.00  0.00     0.046 C 
ENDBRANCH   6   7
ENDBRANCH   3   6
ENDBRANCH   1   2
BRANCH   1  11
ATOM     11  C   UNL d   1      24.894 -14.180  -2.973  0.00  0.00     0.066 C 
BRANCH  11  12
ATOM     12  C   UNL d   1      25.553 -15.277  -2.218  0.00  0.00    -0.048 A 
ATOM     13  C   UNL d   1      24.930 -16.251  -1.548  0.00  0.00    -0.006 A 
ATOM     14  C   UNL d   1      23.554 -16.498  -1.270  0.00  0.00     0.014 C 
ATOM     15  C   UNL d   1      26.007 -16.944  -0.812  0.00  0.00     0.038 A 
ATOM     16  C   UNL d   1      23.241 -17.511  -0.448  0.00  0.00     0.001 C 
ATOM     17  C   UNL d   1      24.282 -18.287   0.236  0.00  0.00     0.002 C 
ATOM     18  C   UNL d   1      25.606 -18.027   0.118  0.00  0.00     0.030 C 
ATOM     19  N   UNL d   1      27.155 -16.421  -1.035  0.00  0.00    -0.385 N 
ATOM     20  C   UNL d   1      27.035 -15.311  -2.003  0.00  0.00     0.155 A 
ATOM     21  H   UNL d   1      28.008 -16.692  -0.552  0.00  0.00     0.160 HD
ENDBRANCH  11  12
ENDBRANCH   1  11
BRANCH   1  22
ATOM     22  C   UNL d   1      25.963 -11.935  -3.442  0.00  0.00     0.233 C 
ATOM     23  N   UNL d   1      25.533 -10.769  -4.224  0.00  0.00    -0.228 NA
ATOM     24  N   UNL d   1      26.536  -9.701  -3.871  0.00  0.00    -0.222 NA
ATOM     25  H   UNL d   1      24.605 -10.484  -3.895  0.00  0.00     0.143 HD
ATOM     26  C   UNL d   1      27.479 -10.321  -2.955  0.00  0.00     0.275 C 
ATOM     27  H   UNL d   1      26.113  -8.924  -3.362  0.00  0.00     0.144 HD
ATOM     28  O   UNL d   1      27.355 -11.720  -3.162  0.00  0.00    -0.338 OA
BRANCH  26  29
ATOM     29  S   UNL d   1      27.030 -10.073  -1.251  0.00  0.00    -0.116 SA
BRANCH  29  30
ATOM     30  C   UNL d   1      28.366 -10.597  -0.177  0.00  0.00     0.120 C 
BRANCH  30  31
ATOM     31  C   UNL d   1      28.040 -11.920   0.533  0.00  0.00    -0.005 C 
ATOM     32  C   UNL d   1      28.542 -13.216   0.208  0.00  0.00     0.042 C 
ATOM     33 CL   UNL d   1      29.628 -13.708  -1.064  0.00  0.00    -0.084 Cl
ATOM     34  C   UNL d   1      28.249 -14.326   1.002  0.00  0.00     0.024 C 
ATOM     35  C   UNL d   1      27.634 -14.170   2.223  0.00  0.00     0.003 C 
ATOM     36  C   UNL d   1      27.038 -12.958   2.525  0.00  0.00     0.024 C 
ATOM     37  C   UNL d   1      27.195 -11.858   1.670  0.00  0.00     0.042 C 
ATOM     38 CL   UNL d   1      26.302 -10.433   2.089  0.00  0.00    -0.084 Cl
ENDBRANCH  30  31
ENDBRANCH  29  30
ENDBRANCH  26  29
ENDBRANCH   1  22
TORSDOF 9
ENDMDL
MODEL 5
REMARK VINA RESULT:    -8.424      3.812      5.744
REMARK INTER + INTRA:         -14.098
REMARK INTER:                 -11.109
REMARK INTRA:                  -2.989
REMARK CONF_INDEPENDENT:        2.685
REMARK UNBOUND:                -2.989
REMARK  9 active torsions:
REMARK  status: ('A' for Active; 'I' for Inactive)
REMARK    1  A    between atoms: C_2  and  O_5 
REMARK    2  A    between atoms: O_5  and  C_6 
REMARK       I    between atoms: C_6  and  N_8 
REMARK    3  A    between atoms: N_8  and  C_9 
REMARK    4  A    between atoms: C_9  and  C_10 
REMARK    5  A    between atoms: C_9  and  C_20 
REMARK    6  A    between atoms: C_10  and  C_11 
REMARK    7  A    between atoms: C_23  and  S_24 
REMARK    8  A    between atoms: S_24  and  C_25 
REMARK    9  A    between atoms: C_25  and  C_26 
ROOT
ATOM      1  C   UNL d   1      27.194 -15.474  -3.049  0.00  0.00     0.135 C 
ENDROOT
BRANCH   1   2
ATOM      2  N   UNL d   1      28.519 -15.406  -3.719  0.00  0.00    -0.328 N 
ATOM      3  C   UNL d   1      28.655 -15.511  -5.083  0.00  0.00     0.361 C 
ATOM      4  O   UNL d   1      27.658 -15.574  -5.816  0.00  0.00    -0.238 OA
ATOM      5  H   UNL d   1      29.337 -15.209  -3.151  0.00  0.00     0.165 HD
BRANCH   3   6
ATOM      6  O   UNL d   1      29.937 -15.611  -5.542  0.00  0.00    -0.294 OA
BRANCH   6   7
ATOM      7  C   UNL d   1      30.641 -16.908  -5.480  0.00  0.00     0.061 C 
ATOM      8  C   UNL d   1      30.805 -17.504  -6.874  0.00  0.00     0.046 C 
ATOM      9  C   UNL d   1      30.030 -17.911  -4.500  0.00  0.00     0.046 C 
ATOM     10  C   UNL d   1      32.062 -16.714  -5.053  0.00  0.00     0.046 C 
ENDBRANCH   6   7
ENDBRANCH   3   6
ENDBRANCH   1   2
BRANCH   1  11
ATOM     11  C   UNL d   1      27.297 -15.608  -1.493  0.00  0.00     0.066 C 
BRANCH  11  12
ATOM     12  C   UNL d   1      26.639 -16.775  -0.850  0.00  0.00    -0.048 A 
ATOM     13  C   UNL d   1      25.323 -16.997  -0.793  0.00  0.00    -0.006 A 
ATOM     14  C   UNL d   1      24.198 -16.222  -1.204  0.00  0.00     0.014 C 
ATOM     15  C   UNL d   1      25.179 -18.151   0.118  0.00  0.00     0.038 A 
ATOM     16  C   UNL d   1      22.970 -16.666  -0.895  0.00  0.00     0.001 C 
ATOM     17  C   UNL d   1      22.779 -17.862  -0.065  0.00  0.00     0.002 C 
ATOM     18  C   UNL d   1      23.801 -18.575   0.465  0.00  0.00     0.030 C 
ATOM     19  N   UNL d   1      26.311 -18.564   0.552  0.00  0.00    -0.385 N 
ATOM     20  C   UNL d   1      27.409 -17.773  -0.043  0.00  0.00     0.155 A 
ATOM     21  H   UNL d   1      26.421 -19.284   1.261  0.00  0.00     0.160 HD
ENDBRANCH  11  12
ENDBRANCH   1  11
BRANCH   1  22
ATOM     22  C   UNL d   1      26.216 -14.275  -3.352  0.00  0.00     0.233 C 
ATOM     23  N   UNL d   1      24.781 -14.528  -3.534  0.00  0.00    -0.228 NA
ATOM     24  N   UNL d   1      24.352 -13.493  -4.542  0.00  0.00    -0.222 NA
ATOM     25  H   UNL d   1      24.306 -14.350  -2.644  0.00  0.00     0.143 HD
ATOM     26  C   UNL d   1      25.551 -12.751  -4.894  0.00  0.00     0.275 C 
ATOM     27  H   UNL d   1      23.701 -12.813  -4.148  0.00  0.00     0.144 HD
ATOM     28  O   UNL d   1      26.641 -13.590  -4.541  0.00  0.00    -0.338 OA
BRANCH  26  29
ATOM     29  S   UNL d   1      25.760 -11.291  -3.897  0.00  0.00    -0.116 SA
BRANCH  29  30
ATOM     30  C   UNL d   1      27.272 -10.444  -4.351  0.00  0.00     0.120 C 
BRANCH  30  31
ATOM     31  C   UNL d   1      28.038 -11.197  -5.452  0.00  0.00    -0.005 C 
ATOM     32  C   UNL d   1      29.191 -12.021  -5.287  0.00  0.00     0.042 C 
ATOM     33 CL   UNL d   1      30.089 -12.411  -3.844  0.00  0.00    -0.084 Cl
ATOM     34  C   UNL d   1      29.729 -12.735  -6.357  0.00  0.00     0.024 C 
ATOM     35  C   UNL d   1      29.052 -12.822  -7.552  0.00  0.00     0.003 C 
ATOM     36  C   UNL d   1      27.996 -11.960  -7.790  0.00  0.00     0.024 C 
ATOM     37  C   UNL d   1      27.524 -11.120  -6.771  0.00  0.00     0.042 C 
ATOM     38 CL   UNL d   1      26.282  -9.998  -7.223  0.00  0.00    -0.084 Cl
ENDBRANCH  30  31
ENDBRANCH  29  30
ENDBRANCH  26  29
ENDBRANCH   1  22
TORSDOF 9
ENDMDL
MODEL 6
REMARK VINA RESULT:    -8.408      4.339      8.157
REMARK INTER + INTRA:         -14.049
REMARK INTER:                 -11.093
REMARK INTRA:                  -2.956
REMARK CONF_INDEPENDENT:        2.685
REMARK UNBOUND:                -2.956
REMARK  9 active torsions:
REMARK  status: ('A' for Active; 'I' for Inactive)
REMARK    1  A    between atoms: C_2  and  O_5 
REMARK    2  A    between atoms: O_5  and  C_6 
REMARK       I    between atoms: C_6  and  N_8 
REMARK    3  A    between atoms: N_8  and  C_9 
REMARK    4  A    between atoms: C_9  and  C_10 
REMARK    5  A    between atoms: C_9  and  C_20 
REMARK    6  A    between atoms: C_10  and  C_11 
REMARK    7  A    between atoms: C_23  and  S_24 
REMARK    8  A    between atoms: S_24  and  C_25 
REMARK    9  A    between atoms: C_25  and  C_26 
ROOT
ATOM      1  C   UNL d   1      26.679 -16.671  -1.750  0.00  0.00     0.135 C 
ENDROOT
BRANCH   1   2
ATOM      2  N   UNL d   1      25.456 -17.386  -1.302  0.00  0.00    -0.328 N 
ATOM      3  C   UNL d   1      25.270 -17.771   0.005  0.00  0.00     0.361 C 
ATOM      4  O   UNL d   1      26.084 -17.450   0.881  0.00  0.00    -0.238 OA
ATOM      5  H   UNL d   1      24.709 -17.532  -1.975  0.00  0.00     0.165 HD
BRANCH   3   6
ATOM      6  O   UNL d   1      24.189 -18.573   0.235  0.00  0.00    -0.294 OA
BRANCH   6   7
ATOM      7  C   UNL d   1      22.911 -18.300  -0.455  0.00  0.00     0.061 C 
ATOM      8  C   UNL d   1      22.888 -18.952  -1.833  0.00  0.00     0.046 C 
ATOM      9  C   UNL d   1      22.532 -16.820  -0.520  0.00  0.00     0.046 C 
ATOM     10  C   UNL d   1      21.782 -18.994   0.239  0.00  0.00     0.046 C 
ENDBRANCH   6   7
ENDBRANCH   3   6
ENDBRANCH   1   2
BRANCH   1  11
ATOM     11  C   UNL d   1      26.545 -15.114  -1.673  0.00  0.00     0.066 C 
BRANCH  11  12
ATOM     12  C   UNL d   1      26.346 -14.369  -2.942  0.00  0.00    -0.048 A 
ATOM     13  C   UNL d   1      27.150 -14.409  -4.008  0.00  0.00    -0.006 A 
ATOM     14  C   UNL d   1      28.406 -15.044  -4.241  0.00  0.00     0.014 C 
ATOM     15  C   UNL d   1      26.637 -13.351  -4.902  0.00  0.00     0.038 A 
ATOM     16  C   UNL d   1      29.043 -14.793  -5.395  0.00  0.00     0.001 C 
ATOM     17  C   UNL d   1      28.522 -13.814  -6.356  0.00  0.00     0.002 C 
ATOM     18  C   UNL d   1      27.402 -13.081  -6.144  0.00  0.00     0.030 C 
ATOM     19  N   UNL d   1      25.624 -12.748  -4.402  0.00  0.00    -0.385 N 
ATOM     20  C   UNL d   1      25.264 -13.345  -3.099  0.00  0.00     0.155 A 
ATOM     21  H   UNL d   1      25.186 -11.931  -4.816  0.00  0.00     0.160 HD
ENDBRANCH  11  12
ENDBRANCH   1  11
BRANCH   1  22
ATOM     22  C   UNL d   1      28.010 -17.065  -1.001  0.00  0.00     0.233 C 
ATOM     23  N   UNL d   1      28.355 -16.417   0.271  0.00  0.00    -0.228 NA
ATOM     24  N   UNL d   1      29.861 -16.355   0.252  0.00  0.00    -0.222 NA
ATOM     25  H   UNL d   1      28.051 -17.026   1.037  0.00  0.00     0.143 HD
ATOM     26  C   UNL d   1      30.273 -16.927  -1.018  0.00  0.00     0.275 C 
ATOM     27  H   UNL d   1      30.282 -16.936   0.978  0.00  0.00     0.144 HD
ATOM     28  O   UNL d   1      29.136 -16.845  -1.865  0.00  0.00    -0.338 OA
BRANCH  26  29
ATOM     29  S   UNL d   1      30.623 -18.668  -0.895  0.00  0.00    -0.116 SA
BRANCH  29  30
ATOM     30  C   UNL d   1      31.977 -19.104  -1.984  0.00  0.00     0.120 C 
BRANCH  30  31
ATOM     31  C   UNL d   1      31.540 -19.124  -3.457  0.00  0.00    -0.005 C 
ATOM     32  C   UNL d   1      31.036 -20.241  -4.189  0.00  0.00     0.042 C 
ATOM     33 CL   UNL d   1      30.784 -21.889  -3.680  0.00  0.00    -0.084 Cl
ATOM     34  C   UNL d   1      30.573 -20.099  -5.497  0.00  0.00     0.024 C 
ATOM     35  C   UNL d   1      30.405 -18.850  -6.049  0.00  0.00     0.003 C 
ATOM     36  C   UNL d   1      30.977 -17.756  -5.422  0.00  0.00     0.024 C 
ATOM     37  C   UNL d   1      31.581 -17.896  -4.165  0.00  0.00     0.042 C 
ATOM     38 CL   UNL d   1      32.371 -16.486  -3.537  0.00  0.00    -0.084 Cl
ENDBRANCH  30  31
ENDBRANCH  29  30
ENDBRANCH  26  29
ENDBRANCH   1  22
TORSDOF 9
ENDMDL
MODEL 7
REMARK VINA RESULT:    -8.156      3.103      6.731
REMARK INTER + INTRA:         -14.243
REMARK INTER:                 -10.841
REMARK INTRA:                  -3.402
REMARK CONF_INDEPENDENT:        2.685
REMARK UNBOUND:                -3.402
REMARK  9 active torsions:
REMARK  status: ('A' for Active; 'I' for Inactive)
REMARK    1  A    between atoms: C_2  and  O_5 
REMARK    2  A    between atoms: O_5  and  C_6 
REMARK       I    between atoms: C_6  and  N_8 
REMARK    3  A    between atoms: N_8  and  C_9 
REMARK    4  A    between atoms: C_9  and  C_10 
REMARK    5  A    between atoms: C_9  and  C_20 
REMARK    6  A    between atoms: C_10  and  C_11 
REMARK    7  A    between atoms: C_23  and  S_24 
REMARK    8  A    between atoms: S_24  and  C_25 
REMARK    9  A    between atoms: C_25  and  C_26 
ROOT
ATOM      1  C   UNL d   1      28.045 -14.932   0.776  0.00  0.00     0.135 C 
ENDROOT
BRANCH   1   2
ATOM      2  N   UNL d   1      27.792 -14.794   2.233  0.00  0.00    -0.328 N 
ATOM      3  C   UNL d   1      27.105 -13.726   2.758  0.00  0.00     0.361 C 
ATOM      4  O   UNL d   1      26.587 -12.879   2.017  0.00  0.00    -0.238 OA
ATOM      5  H   UNL d   1      28.080 -15.551   2.847  0.00  0.00     0.165 HD
BRANCH   3   6
ATOM      6  O   UNL d   1      27.103 -13.639   4.121  0.00  0.00    -0.294 OA
BRANCH   6   7
ATOM      7  C   UNL d   1      28.371 -13.772   4.868  0.00  0.00     0.061 C 
ATOM      8  C   UNL d   1      28.289 -13.049   6.209  0.00  0.00     0.046 C 
ATOM      9  C   UNL d   1      29.614 -13.366   4.077  0.00  0.00     0.046 C 
ATOM     10  C   UNL d   1      28.584 -15.191   5.290  0.00  0.00     0.046 C 
ENDBRANCH   6   7
ENDBRANCH   3   6
ENDBRANCH   1   2
BRANCH   1  11
ATOM     11  C   UNL d   1      26.738 -15.146  -0.059  0.00  0.00     0.066 C 
BRANCH  11  12
ATOM     12  C   UNL d   1      26.239 -16.536  -0.227  0.00  0.00    -0.048 A 
ATOM     13  C   UNL d   1      24.983 -16.888  -0.515  0.00  0.00    -0.006 A 
ATOM     14  C   UNL d   1      23.782 -16.132  -0.655  0.00  0.00     0.014 C 
ATOM     15  C   UNL d   1      24.964 -18.357  -0.364  0.00  0.00     0.038 A 
ATOM     16  C   UNL d   1      22.628 -16.795  -0.829  0.00  0.00     0.001 C 
ATOM     17  C   UNL d   1      22.577 -18.261  -0.776  0.00  0.00     0.002 C 
ATOM     18  C   UNL d   1      23.656 -19.039  -0.521  0.00  0.00     0.030 C 
ATOM     19  N   UNL d   1      26.107 -18.819  -0.018  0.00  0.00    -0.385 N 
ATOM     20  C   UNL d   1      27.097 -17.726   0.072  0.00  0.00     0.155 A 
ATOM     21  H   UNL d   1      26.277 -19.790   0.229  0.00  0.00     0.160 HD
ENDBRANCH  11  12
ENDBRANCH   1  11
BRANCH   1  22
ATOM     22  C   UNL d   1      28.839 -13.745   0.107  0.00  0.00     0.233 C 
ATOM     23  N   UNL d   1      29.443 -12.703   0.946  0.00  0.00    -0.228 NA
ATOM     24  N   UNL d   1      29.346 -11.455   0.105  0.00  0.00    -0.222 NA
ATOM     25  H   UNL d   1      30.430 -12.937   1.092  0.00  0.00     0.143 HD
ATOM     26  C   UNL d   1      28.675 -11.847  -1.123  0.00  0.00     0.275 C 
ATOM     27  H   UNL d   1      30.263 -11.101  -0.171  0.00  0.00     0.144 HD
ATOM     28  O   UNL d   1      27.987 -13.052  -0.818  0.00  0.00    -0.338 OA
BRANCH  26  29
ATOM     29  S   UNL d   1      29.822 -12.292  -2.409  0.00  0.00    -0.116 SA
BRANCH  29  30
ATOM     30  C   UNL d   1      28.937 -12.682  -3.918  0.00  0.00     0.120 C 
BRANCH  30  31
ATOM     31  C   UNL d   1      27.588 -13.359  -3.628  0.00  0.00    -0.005 C 
ATOM     32  C   UNL d   1      26.321 -12.719  -3.473  0.00  0.00     0.042 C 
ATOM     33 CL   UNL d   1      25.909 -11.026  -3.536  0.00  0.00    -0.084 Cl
ATOM     34  C   UNL d   1      25.150 -13.461  -3.317  0.00  0.00     0.024 C 
ATOM     35  C   UNL d   1      25.155 -14.824  -3.505  0.00  0.00     0.003 C 
ATOM     36  C   UNL d   1      26.367 -15.492  -3.548  0.00  0.00     0.024 C 
ATOM     37  C   UNL d   1      27.571 -14.774  -3.560  0.00  0.00     0.042 C 
ATOM     38 CL   UNL d   1      29.023 -15.720  -3.489  0.00  0.00    -0.084 Cl
ENDBRANCH  30  31
ENDBRANCH  29  30
ENDBRANCH  26  29
ENDBRANCH   1  22
TORSDOF 9
ENDMDL
MODEL 8
REMARK VINA RESULT:    -8.110      2.945      6.459
REMARK INTER + INTRA:         -14.300
REMARK INTER:                 -10.795
REMARK INTRA:                  -3.505
REMARK CONF_INDEPENDENT:        2.685
REMARK UNBOUND:                -3.505
REMARK  9 active torsions:
REMARK  status: ('A' for Active; 'I' for Inactive)
REMARK    1  A    between atoms: C_2  and  O_5 
REMARK    2  A    between atoms: O_5  and  C_6 
REMARK       I    between atoms: C_6  and  N_8 
REMARK    3  A    between atoms: N_8  and  C_9 
REMARK    4  A    between atoms: C_9  and  C_10 
REMARK    5  A    between atoms: C_9  and  C_20 
REMARK    6  A    between atoms: C_10  and  C_11 
REMARK    7  A    between atoms: C_23  and  S_24 
REMARK    8  A    between atoms: S_24  and  C_25 
REMARK    9  A    between atoms: C_25  and  C_26 
ROOT
ATOM      1  C   UNL d   1      29.094 -15.090  -0.538  0.00  0.00     0.135 C 
ENDROOT
BRANCH   1   2
ATOM      2  N   UNL d   1      28.863 -15.342   0.907  0.00  0.00    -0.328 N 
ATOM      3  C   UNL d   1      27.770 -14.838   1.572  0.00  0.00     0.361 C 
ATOM      4  O   UNL d   1      26.883 -14.226   0.961  0.00  0.00    -0.238 OA
ATOM      5  H   UNL d   1      29.500 -15.963   1.397  0.00  0.00     0.165 HD
BRANCH   3   6
ATOM      6  O   UNL d   1      27.780 -14.998   2.929  0.00  0.00    -0.294 OA
BRANCH   6   7
ATOM      7  C   UNL d   1      28.497 -14.025   3.779  0.00  0.00     0.061 C 
ATOM      8  C   UNL d   1      29.863 -13.692   3.188  0.00  0.00     0.046 C 
ATOM      9  C   UNL d   1      28.596 -14.426   5.251  0.00  0.00     0.046 C 
ATOM     10  C   UNL d   1      27.810 -12.697   3.749  0.00  0.00     0.046 C 
ENDBRANCH   6   7
ENDBRANCH   3   6
ENDBRANCH   1   2
BRANCH   1  11
ATOM     11  C   UNL d   1      28.056 -15.810  -1.463  0.00  0.00     0.066 C 
BRANCH  11  12
ATOM     12  C   UNL d   1      27.208 -16.872  -0.862  0.00  0.00    -0.048 A 
ATOM     13  C   UNL d   1      25.875 -16.934  -0.916  0.00  0.00    -0.006 A 
ATOM     14  C   UNL d   1      24.892 -16.040  -1.435  0.00  0.00     0.014 C 
ATOM     15  C   UNL d   1      25.516 -18.038  -0.004  0.00  0.00     0.038 A 
ATOM     16  C   UNL d   1      23.597 -16.325  -1.227  0.00  0.00     0.001 C 
ATOM     17  C   UNL d   1      23.193 -17.468  -0.399  0.00  0.00     0.002 C 
ATOM     18  C   UNL d   1      24.072 -18.285   0.229  0.00  0.00     0.030 C 
ATOM     19  N   UNL d   1      26.548 -18.573   0.534  0.00  0.00    -0.385 N 
ATOM     20  C   UNL d   1      27.780 -17.935   0.024  0.00  0.00     0.155 A 
ATOM     21  H   UNL d   1      26.509 -19.282   1.260  0.00  0.00     0.160 HD
ENDBRANCH  11  12
ENDBRANCH   1  11
BRANCH   1  22
ATOM     22  C   UNL d   1      29.131 -13.573  -0.968  0.00  0.00     0.233 C 
ATOM     23  N   UNL d   1      29.063 -12.521   0.053  0.00  0.00    -0.228 NA
ATOM     24  N   UNL d   1      28.321 -11.399  -0.627  0.00  0.00    -0.222 NA
ATOM     25  H   UNL d   1      30.017 -12.215   0.267  0.00  0.00     0.143 HD
ATOM     26  C   UNL d   1      27.988 -11.883  -1.956  0.00  0.00     0.275 C 
ATOM     27  H   UNL d   1      28.906 -10.573  -0.763  0.00  0.00     0.144 HD
ATOM     28  O   UNL d   1      28.055 -13.300  -1.878  0.00  0.00    -0.338 OA
BRANCH  26  29
ATOM     29  S   UNL d   1      29.213 -11.437  -3.167  0.00  0.00    -0.116 SA
BRANCH  29  30
ATOM     30  C   UNL d   1      28.694 -11.969  -4.797  0.00  0.00     0.120 C 
BRANCH  30  31
ATOM     31  C   UNL d   1      27.474 -12.902  -4.730  0.00  0.00    -0.005 C 
ATOM     32  C   UNL d   1      27.477 -14.328  -4.796  0.00  0.00     0.042 C 
ATOM     33 CL   UNL d   1      28.810 -15.434  -4.990  0.00  0.00    -0.084 Cl
ATOM     34  C   UNL d   1      26.306 -15.063  -4.615  0.00  0.00     0.024 C 
ATOM     35  C   UNL d   1      25.155 -14.450  -4.175  0.00  0.00     0.003 C 
ATOM     36  C   UNL d   1      25.077 -13.068  -4.203  0.00  0.00     0.024 C 
ATOM     37  C   UNL d   1      26.207 -12.301  -4.523  0.00  0.00     0.042 C 
ATOM     38 CL   UNL d   1      25.956 -10.590  -4.648  0.00  0.00    -0.084 Cl
ENDBRANCH  30  31
ENDBRANCH  29  30
ENDBRANCH  26  29
ENDBRANCH   1  22
TORSDOF 9
ENDMDL
MODEL 9
REMARK VINA RESULT:    -7.386      3.435      7.051
REMARK INTER + INTRA:         -14.001
REMARK INTER:                 -10.071
REMARK INTRA:                  -3.931
REMARK CONF_INDEPENDENT:        2.685
REMARK UNBOUND:                -3.931
REMARK  9 active torsions:
REMARK  status: ('A' for Active; 'I' for Inactive)
REMARK    1  A    between atoms: C_2  and  O_5 
REMARK    2  A    between atoms: O_5  and  C_6 
REMARK       I    between atoms: C_6  and  N_8 
REMARK    3  A    between atoms: N_8  and  C_9 
REMARK    4  A    between atoms: C_9  and  C_10 
REMARK    5  A    between atoms: C_9  and  C_20 
REMARK    6  A    between atoms: C_10  and  C_11 
REMARK    7  A    between atoms: C_23  and  S_24 
REMARK    8  A    between atoms: S_24  and  C_25 
REMARK    9  A    between atoms: C_25  and  C_26 
ROOT
ATOM      1  C   UNL d   1      27.488 -14.244   0.982  0.00  0.00     0.135 C 
ENDROOT
BRANCH   1   2
ATOM      2  N   UNL d   1      28.890 -14.452   1.427  0.00  0.00    -0.328 N 
ATOM      3  C   UNL d   1      29.911 -13.612   1.047  0.00  0.00     0.361 C 
ATOM      4  O   UNL d   1      29.678 -12.590   0.388  0.00  0.00    -0.238 OA
ATOM      5  H   UNL d   1      29.081 -15.200   2.087  0.00  0.00     0.165 HD
BRANCH   3   6
ATOM      6  O   UNL d   1      31.169 -14.025   1.382  0.00  0.00    -0.294 OA
BRANCH   6   7
ATOM      7  C   UNL d   1      31.630 -13.914   2.781  0.00  0.00     0.061 C 
ATOM      8  C   UNL d   1      31.155 -15.106   3.605  0.00  0.00     0.046 C 
ATOM      9  C   UNL d   1      31.290 -12.585   3.455  0.00  0.00     0.046 C 
ATOM     10  C   UNL d   1      33.118 -14.055   2.855  0.00  0.00     0.046 C 
ENDBRANCH   6   7
ENDBRANCH   3   6
ENDBRANCH   1   2
BRANCH   1  11
ATOM     11  C   UNL d   1      26.761 -13.093   1.754  0.00  0.00     0.066 C 
BRANCH  11  12
ATOM     12  C   UNL d   1      27.399 -12.573   2.991  0.00  0.00    -0.048 A 
ATOM     13  C   UNL d   1      27.852 -13.312   4.008  0.00  0.00    -0.006 A 
ATOM     14  C   UNL d   1      27.800 -14.711   4.277  0.00  0.00     0.014 C 
ATOM     15  C   UNL d   1      28.189 -12.331   5.059  0.00  0.00     0.038 A 
ATOM     16  C   UNL d   1      28.242 -15.149   5.466  0.00  0.00     0.001 C 
ATOM     17  C   UNL d   1      28.672 -14.212   6.511  0.00  0.00     0.002 C 
ATOM     18  C   UNL d   1      28.629 -12.865   6.371  0.00  0.00     0.030 C 
ATOM     19  N   UNL d   1      27.954 -11.128   4.688  0.00  0.00    -0.385 N 
ATOM     20  C   UNL d   1      27.460 -11.108   3.295  0.00  0.00     0.155 A 
ATOM     21  H   UNL d   1      28.029 -10.318   5.297  0.00  0.00     0.160 HD
ENDBRANCH  11  12
ENDBRANCH   1  11
BRANCH   1  22
ATOM     22  C   UNL d   1      27.297 -13.968  -0.559  0.00  0.00     0.233 C 
ATOM     23  N   UNL d   1      27.761 -12.703  -1.141  0.00  0.00    -0.228 NA
ATOM     24  N   UNL d   1      26.774 -12.423  -2.244  0.00  0.00    -0.222 NA
ATOM     25  H   UNL d   1      28.690 -12.856  -1.548  0.00  0.00     0.143 HD
ATOM     26  C   UNL d   1      25.804 -13.505  -2.202  0.00  0.00     0.275 C 
ATOM     27  H   UNL d   1      27.203 -12.460  -3.169  0.00  0.00     0.144 HD
ATOM     28  O   UNL d   1      25.905 -14.062  -0.900  0.00  0.00    -0.338 OA
BRANCH  26  29
ATOM     29  S   UNL d   1      26.232 -14.839  -3.300  0.00  0.00    -0.116 SA
BRANCH  29  30
ATOM     30  C   UNL d   1      25.342 -16.325  -2.842  0.00  0.00     0.120 C 
BRANCH  30  31
ATOM     31  C   UNL d   1      25.959 -17.000  -1.606  0.00  0.00    -0.005 C 
ATOM     32  C   UNL d   1      27.344 -17.075  -1.270  0.00  0.00     0.042 C 
ATOM     33 CL   UNL d   1      28.737 -16.470  -2.127  0.00  0.00    -0.084 Cl
ATOM     34  C   UNL d   1      27.766 -17.626  -0.060  0.00  0.00     0.024 C 
ATOM     35  C   UNL d   1      26.856 -17.932   0.925  0.00  0.00     0.003 C 
ATOM     36  C   UNL d   1      25.510 -17.978   0.605  0.00  0.00     0.024 C 
ATOM     37  C   UNL d   1      25.068 -17.564  -0.660  0.00  0.00     0.042 C 
ATOM     38 CL   UNL d   1      23.379 -17.784  -0.986  0.00  0.00    -0.084 Cl
ENDBRANCH  30  31
ENDBRANCH  29  30
ENDBRANCH  26  29
ENDBRANCH   1  22
TORSDOF 9
ENDMDL
