MODEL 1
REMARK VINA RESULT:    -7.446      0.000      0.000
REMARK INTER + INTRA:         -11.558
REMARK INTER:                  -9.534
REMARK INTRA:                  -2.024
REMARK CONF_INDEPENDENT:        2.088
REMARK UNBOUND:                -2.024
REMARK  7 active torsions:
REMARK  status: ('A' for Active; 'I' for Inactive)
REMARK    1  A    between atoms: C_2  and  N_4 
REMARK       I    between atoms: N_4  and  C_5 
REMARK       I    between atoms: C_5  and  N_7 
REMARK    2  A    between atoms: N_7  and  N_8 
REMARK       I    between atoms: N_8  and  C_9 
REMARK    3  A    between atoms: C_9  and  C_11 
REMARK    4  A    between atoms: C_11  and  N_13 
REMARK       I    between atoms: N_13  and  C_14 
REMARK    5  A    between atoms: C_14  and  C_16 
REMARK    6  A    between atoms: C_16  and  O_17 
REMARK    7  A    between atoms: O_17  and  C_18 
ROOT
ATOM      1  C   UNL d   1      25.330 -16.457  -2.325  0.00  0.00     0.174 C 
ATOM      2  C   UNL d   1      26.458 -16.389  -1.294  0.00  0.00     0.042 C 
ENDROOT
BRANCH   1   3
ATOM      3  C   UNL d   1      25.455 -15.257  -3.345  0.00  0.00     0.258 C 
ATOM      4  N   UNL d   1      26.594 -15.219  -4.153  0.00  0.00    -0.264 N 
ATOM      5  H   UNL d   1      27.345 -15.910  -4.123  0.00  0.00     0.190 HD
ATOM      6  O   UNL d   1      24.572 -14.397  -3.430  0.00  0.00    -0.269 OA
BRANCH   4   7
ATOM      7  N   UNL d   1      26.807 -14.135  -5.082  0.00  0.00    -0.249 N 
ATOM      8  C   UNL d   1      27.778 -14.268  -6.065  0.00  0.00     0.335 C 
ATOM      9  N   UNL d   1      27.949 -13.164  -6.886  0.00  0.00    -0.338 N 
ATOM     10  O   UNL d   1      28.454 -15.295  -6.162  0.00  0.00    -0.246 OA
ATOM     11  H   UNL d   1      27.320 -12.380  -6.797  0.00  0.00     0.164 HD
ATOM     12  H   UNL d   1      26.201 -13.327  -4.986  0.00  0.00     0.192 HD
BRANCH   9  13
ATOM     13  C   UNL d   1      28.957 -13.127  -7.968  0.00  0.00     0.078 C 
ATOM     14  C   UNL d   1      28.946 -11.808  -8.759  0.00  0.00     0.032 C 
ATOM     15  C   UNL d   1      30.373 -13.334  -7.422  0.00  0.00     0.032 C 
ENDBRANCH   9  13
ENDBRANCH   4   7
ENDBRANCH   1   3
BRANCH   1  16
ATOM     16  N   UNL d   1      24.014 -16.481  -1.624  0.00  0.00    -0.346 N 
ATOM     17  C   UNL d   1      23.593 -17.575  -0.870  0.00  0.00     0.242 C 
ATOM     18  O   UNL d   1      24.278 -18.594  -0.788  0.00  0.00    -0.271 OA
ATOM     19  H   UNL d   1      23.416 -15.671  -1.747  0.00  0.00     0.163 HD
BRANCH  17  20
ATOM     20  C   UNL d   1      22.231 -17.447  -0.145  0.00  0.00     0.278 C 
BRANCH  20  21
ATOM     21  O   UNL d   1      21.227 -18.177  -0.867  0.00  0.00    -0.342 OA
BRANCH  21  22
ATOM     22  C   UNL d   1      20.454 -19.052  -0.154  0.00  0.00     0.069 A 
ATOM     23  C   UNL d   1      19.358 -19.613  -0.822  0.00  0.00     0.037 A 
ATOM     24  C   UNL d   1      18.463 -20.450  -0.144  0.00  0.00     0.003 A 
ATOM     25  C   UNL d   1      18.687 -20.769   1.192  0.00  0.00     0.000 A 
ATOM     26  C   UNL d   1      19.764 -20.197   1.867  0.00  0.00     0.003 A 
ATOM     27  C   UNL d   1      20.632 -19.325   1.202  0.00  0.00     0.037 A 
ENDBRANCH  21  22
ENDBRANCH  20  21
ENDBRANCH  17  20
ENDBRANCH   1  16
TORSDOF 7
ENDMDL
MODEL 2
REMARK VINA RESULT:    -7.339      2.514      9.851
REMARK INTER + INTRA:         -11.627
REMARK INTER:                  -9.427
REMARK INTRA:                  -2.200
REMARK CONF_INDEPENDENT:        2.088
REMARK UNBOUND:                -2.200
REMARK  7 active torsions:
REMARK  status: ('A' for Active; 'I' for Inactive)
REMARK    1  A    between atoms: C_2  and  N_4 
REMARK       I    between atoms: N_4  and  C_5 
REMARK       I    between atoms: C_5  and  N_7 
REMARK    2  A    between atoms: N_7  and  N_8 
REMARK       I    between atoms: N_8  and  C_9 
REMARK    3  A    between atoms: C_9  and  C_11 
REMARK    4  A    between atoms: C_11  and  N_13 
REMARK       I    between atoms: N_13  and  C_14 
REMARK    5  A    between atoms: C_14  and  C_16 
REMARK    6  A    between atoms: C_16  and  O_17 
REMARK    7  A    between atoms: O_17  and  C_18 
ROOT
ATOM      1  C   UNL d   1      25.448 -15.423  -1.892  0.00  0.00     0.174 C 
ATOM      2  C   UNL d   1      26.094 -14.603  -0.775  0.00  0.00     0.042 C 
ENDROOT
BRANCH   1   3
ATOM      3  C   UNL d   1      25.027 -16.844  -1.347  0.00  0.00     0.258 C 
ATOM      4  N   UNL d   1      23.661 -17.089  -1.185  0.00  0.00    -0.264 N 
ATOM      5  H   UNL d   1      22.926 -16.411  -1.391  0.00  0.00     0.190 HD
ATOM      6  O   UNL d   1      25.874 -17.706  -1.089  0.00  0.00    -0.269 OA
BRANCH   4   7
ATOM      7  N   UNL d   1      23.192 -18.346  -0.652  0.00  0.00    -0.249 N 
ATOM      8  C   UNL d   1      21.826 -18.566  -0.542  0.00  0.00     0.335 C 
ATOM      9  N   UNL d   1      21.462 -19.779   0.021  0.00  0.00    -0.338 N 
ATOM     10  O   UNL d   1      21.009 -17.713  -0.898  0.00  0.00    -0.246 OA
ATOM     11  H   UNL d   1      22.176 -20.461   0.231  0.00  0.00     0.164 HD
ATOM     12  H   UNL d   1      23.901 -19.030  -0.409  0.00  0.00     0.192 HD
BRANCH   9  13
ATOM     13  C   UNL d   1      20.050 -20.164   0.234  0.00  0.00     0.078 C 
ATOM     14  C   UNL d   1      19.471 -19.632   1.557  0.00  0.00     0.032 C 
ATOM     15  C   UNL d   1      19.154 -19.666  -0.903  0.00  0.00     0.032 C 
ENDBRANCH   9  13
ENDBRANCH   4   7
ENDBRANCH   1   3
BRANCH   1  16
ATOM     16  N   UNL d   1      26.380 -15.505  -3.054  0.00  0.00    -0.346 N 
ATOM     17  C   UNL d   1      26.054 -14.989  -4.306  0.00  0.00     0.242 C 
ATOM     18  O   UNL d   1      24.954 -14.479  -4.519  0.00  0.00    -0.271 OA
ATOM     19  H   UNL d   1      27.259 -15.987  -2.901  0.00  0.00     0.163 HD
BRANCH  17  20
ATOM     20  C   UNL d   1      27.135 -15.088  -5.410  0.00  0.00     0.278 C 
BRANCH  20  21
ATOM     21  O   UNL d   1      28.440 -15.096  -4.812  0.00  0.00    -0.342 OA
BRANCH  21  22
ATOM     22  C   UNL d   1      29.273 -16.131  -5.140  0.00  0.00     0.069 A 
ATOM     23  C   UNL d   1      29.665 -16.978  -4.096  0.00  0.00     0.037 A 
ATOM     24  C   UNL d   1      30.584 -18.010  -4.323  0.00  0.00     0.003 A 
ATOM     25  C   UNL d   1      31.079 -18.230  -5.605  0.00  0.00     0.000 A 
ATOM     26  C   UNL d   1      30.708 -17.377  -6.643  0.00  0.00     0.003 A 
ATOM     27  C   UNL d   1      29.825 -16.318  -6.407  0.00  0.00     0.037 A 
ENDBRANCH  21  22
ENDBRANCH  20  21
ENDBRANCH  17  20
ENDBRANCH   1  16
TORSDOF 7
ENDMDL
MODEL 3
REMARK VINA RESULT:    -7.251      2.086      2.890
REMARK INTER + INTRA:         -12.405
REMARK INTER:                  -9.339
REMARK INTRA:                  -3.066
REMARK CONF_INDEPENDENT:        2.088
REMARK UNBOUND:                -3.066
REMARK  7 active torsions:
REMARK  status: ('A' for Active; 'I' for Inactive)
REMARK    1  A    between atoms: C_2  and  N_4 
REMARK       I    between atoms: N_4  and  C_5 
REMARK       I    between atoms: C_5  and  N_7 
REMARK    2  A    between atoms: N_7  and  N_8 
REMARK       I    between atoms: N_8  and  C_9 
REMARK    3  A    between atoms: C_9  and  C_11 
REMARK    4  A    between atoms: C_11  and  N_13 
REMARK       I    between atoms: N_13  and  C_14 
REMARK    5  A    between atoms: C_14  and  C_16 
REMARK    6  A    between atoms: C_16  and  O_17 
REMARK    7  A    between atoms: O_17  and  C_18 
ROOT
ATOM      1  C   UNL d   1      25.875 -18.074  -0.116  0.00  0.00     0.174 C 
ATOM      2  C   UNL d   1      26.515 -18.575   1.178  0.00  0.00     0.042 C 
ENDROOT
BRANCH   1   3
ATOM      3  C   UNL d   1      26.343 -16.595  -0.417  0.00  0.00     0.258 C 
ATOM      4  N   UNL d   1      25.836 -15.984  -1.566  0.00  0.00    -0.264 N 
ATOM      5  H   UNL d   1      25.190 -16.430  -2.218  0.00  0.00     0.190 HD
ATOM      6  O   UNL d   1      27.118 -16.004   0.343  0.00  0.00    -0.269 OA
BRANCH   4   7
ATOM      7  N   UNL d   1      26.246 -14.650  -1.937  0.00  0.00    -0.249 N 
ATOM      8  C   UNL d   1      25.848 -14.138  -3.165  0.00  0.00     0.335 C 
ATOM      9  N   UNL d   1      26.322 -12.870  -3.462  0.00  0.00    -0.338 N 
ATOM     10  O   UNL d   1      25.147 -14.797  -3.936  0.00  0.00    -0.246 OA
ATOM     11  H   UNL d   1      26.836 -12.357  -2.761  0.00  0.00     0.164 HD
ATOM     12  H   UNL d   1      26.789 -14.133  -1.253  0.00  0.00     0.192 HD
BRANCH   9  13
ATOM     13  C   UNL d   1      26.015 -12.185  -4.737  0.00  0.00     0.078 C 
ATOM     14  C   UNL d   1      25.891 -10.659  -4.590  0.00  0.00     0.032 C 
ATOM     15  C   UNL d   1      27.084 -12.468  -5.797  0.00  0.00     0.032 C 
ENDBRANCH   9  13
ENDBRANCH   4   7
ENDBRANCH   1   3
BRANCH   1  16
ATOM     16  N   UNL d   1      24.391 -18.199  -0.021  0.00  0.00    -0.346 N 
ATOM     17  C   UNL d   1      23.562 -18.073  -1.133  0.00  0.00     0.242 C 
ATOM     18  O   UNL d   1      24.021 -17.806  -2.244  0.00  0.00    -0.271 OA
ATOM     19  H   UNL d   1      24.004 -18.348   0.904  0.00  0.00     0.163 HD
BRANCH  17  20
ATOM     20  C   UNL d   1      22.045 -18.284  -0.907  0.00  0.00     0.278 C 
BRANCH  20  21
ATOM     21  O   UNL d   1      21.801 -18.612   0.470  0.00  0.00    -0.342 OA
BRANCH  21  22
ATOM     22  C   UNL d   1      20.698 -19.373   0.746  0.00  0.00     0.069 A 
ATOM     23  C   UNL d   1      19.901 -19.745  -0.343  0.00  0.00     0.037 A 
ATOM     24  C   UNL d   1      18.707 -20.449  -0.145  0.00  0.00     0.003 A 
ATOM     25  C   UNL d   1      18.329 -20.827   1.141  0.00  0.00     0.000 A 
ATOM     26  C   UNL d   1      19.109 -20.442   2.229  0.00  0.00     0.003 A 
ATOM     27  C   UNL d   1      20.278 -19.700   2.035  0.00  0.00     0.037 A 
ENDBRANCH  21  22
ENDBRANCH  20  21
ENDBRANCH  17  20
ENDBRANCH   1  16
TORSDOF 7
ENDMDL
MODEL 4
REMARK VINA RESULT:    -7.227      1.827      9.742
REMARK INTER + INTRA:         -12.446
REMARK INTER:                  -9.315
REMARK INTRA:                  -3.131
REMARK CONF_INDEPENDENT:        2.088
REMARK UNBOUND:                -3.131
REMARK  7 active torsions:
REMARK  status: ('A' for Active; 'I' for Inactive)
REMARK    1  A    between atoms: C_2  and  N_4 
REMARK       I    between atoms: N_4  and  C_5 
REMARK       I    between atoms: C_5  and  N_7 
REMARK    2  A    between atoms: N_7  and  N_8 
REMARK       I    between atoms: N_8  and  C_9 
REMARK    3  A    between atoms: C_9  and  C_11 
REMARK    4  A    between atoms: C_11  and  N_13 
REMARK       I    between atoms: N_13  and  C_14 
REMARK    5  A    between atoms: C_14  and  C_16 
REMARK    6  A    between atoms: C_16  and  O_17 
REMARK    7  A    between atoms: O_17  and  C_18 
ROOT
ATOM      1  C   UNL d   1      26.607 -16.058  -0.953  0.00  0.00     0.174 C 
ATOM      2  C   UNL d   1      28.067 -16.145  -0.508  0.00  0.00     0.042 C 
ENDROOT
BRANCH   1   3
ATOM      3  C   UNL d   1      25.807 -17.320  -0.440  0.00  0.00     0.258 C 
ATOM      4  N   UNL d   1      24.422 -17.317  -0.621  0.00  0.00    -0.264 N 
ATOM      5  H   UNL d   1      23.899 -16.556  -1.059  0.00  0.00     0.190 HD
ATOM      6  O   UNL d   1      26.389 -18.273   0.090  0.00  0.00    -0.269 OA
BRANCH   4   7
ATOM      7  N   UNL d   1      23.610 -18.411  -0.143  0.00  0.00    -0.249 N 
ATOM      8  C   UNL d   1      22.233 -18.354  -0.307  0.00  0.00     0.335 C 
ATOM      9  N   UNL d   1      21.525 -19.422   0.220  0.00  0.00    -0.338 N 
ATOM     10  O   UNL d   1      21.694 -17.392  -0.861  0.00  0.00    -0.246 OA
ATOM     11  H   UNL d   1      22.030 -20.209   0.602  0.00  0.00     0.164 HD
ATOM     12  H   UNL d   1      24.102 -19.197   0.271  0.00  0.00     0.192 HD
BRANCH   9  13
ATOM     13  C   UNL d   1      20.050 -19.509   0.154  0.00  0.00     0.078 C 
ATOM     14  C   UNL d   1      19.496 -19.327  -1.270  0.00  0.00     0.032 C 
ATOM     15  C   UNL d   1      19.543 -20.852   0.686  0.00  0.00     0.032 C 
ENDBRANCH   9  13
ENDBRANCH   4   7
ENDBRANCH   1   3
BRANCH   1  16
ATOM     16  N   UNL d   1      26.546 -15.903  -2.436  0.00  0.00    -0.346 N 
ATOM     17  C   UNL d   1      25.440 -15.352  -3.081  0.00  0.00     0.242 C 
ATOM     18  O   UNL d   1      24.440 -15.008  -2.450  0.00  0.00    -0.271 OA
ATOM     19  H   UNL d   1      27.339 -16.250  -2.964  0.00  0.00     0.163 HD
BRANCH  17  20
ATOM     20  C   UNL d   1      25.530 -15.194  -4.618  0.00  0.00     0.278 C 
BRANCH  20  21
ATOM     21  O   UNL d   1      26.838 -15.577  -5.070  0.00  0.00    -0.342 OA
BRANCH  21  22
ATOM     22  C   UNL d   1      27.631 -14.595  -5.599  0.00  0.00     0.069 A 
ATOM     23  C   UNL d   1      27.312 -13.275  -5.256  0.00  0.00     0.037 A 
ATOM     24  C   UNL d   1      28.014 -12.203  -5.819  0.00  0.00     0.003 A 
ATOM     25  C   UNL d   1      29.070 -12.448  -6.692  0.00  0.00     0.000 A 
ATOM     26  C   UNL d   1      29.378 -13.758  -7.053  0.00  0.00     0.003 A 
ATOM     27  C   UNL d   1      28.647 -14.827  -6.524  0.00  0.00     0.037 A 
ENDBRANCH  21  22
ENDBRANCH  20  21
ENDBRANCH  17  20
ENDBRANCH   1  16
TORSDOF 7
ENDMDL
MODEL 5
REMARK VINA RESULT:    -6.902      4.179      9.624
REMARK INTER + INTRA:         -11.445
REMARK INTER:                  -8.990
REMARK INTRA:                  -2.456
REMARK CONF_INDEPENDENT:        2.088
REMARK UNBOUND:                -2.456
REMARK  7 active torsions:
REMARK  status: ('A' for Active; 'I' for Inactive)
REMARK    1  A    between atoms: C_2  and  N_4 
REMARK       I    between atoms: N_4  and  C_5 
REMARK       I    between atoms: C_5  and  N_7 
REMARK    2  A    between atoms: N_7  and  N_8 
REMARK       I    between atoms: N_8  and  C_9 
REMARK    3  A    between atoms: C_9  and  C_11 
REMARK    4  A    between atoms: C_11  and  N_13 
REMARK       I    between atoms: N_13  and  C_14 
REMARK    5  A    between atoms: C_14  and  C_16 
REMARK    6  A    between atoms: C_16  and  O_17 
REMARK    7  A    between atoms: O_17  and  C_18 
ROOT
ATOM      1  C   UNL d   1      25.598 -16.602  -1.388  0.00  0.00     0.174 C 
ATOM      2  C   UNL d   1      24.598 -15.652  -2.047  0.00  0.00     0.042 C 
ENDROOT
BRANCH   1   3
ATOM      3  C   UNL d   1      24.838 -17.633  -0.463  0.00  0.00     0.258 C 
ATOM      4  N   UNL d   1      23.475 -17.826  -0.704  0.00  0.00    -0.264 N 
ATOM      5  H   UNL d   1      22.945 -17.345  -1.432  0.00  0.00     0.190 HD
ATOM      6  O   UNL d   1      25.431 -18.250   0.428  0.00  0.00    -0.269 OA
BRANCH   4   7
ATOM      7  N   UNL d   1      22.696 -18.718   0.122  0.00  0.00    -0.249 N 
ATOM      8  C   UNL d   1      21.318 -18.764  -0.045  0.00  0.00     0.335 C 
ATOM      9  N   UNL d   1      20.642 -19.611   0.818  0.00  0.00    -0.338 N 
ATOM     10  O   UNL d   1      20.753 -18.065  -0.889  0.00  0.00    -0.246 OA
ATOM     11  H   UNL d   1      21.169 -20.205   1.442  0.00  0.00     0.164 HD
ATOM     12  H   UNL d   1      23.211 -19.300   0.775  0.00  0.00     0.192 HD
BRANCH   9  13
ATOM     13  C   UNL d   1      19.171 -19.762   0.794  0.00  0.00     0.078 C 
ATOM     14  C   UNL d   1      18.654 -20.440  -0.487  0.00  0.00     0.032 C 
ATOM     15  C   UNL d   1      18.671 -20.577   1.990  0.00  0.00     0.032 C 
ENDBRANCH   9  13
ENDBRANCH   4   7
ENDBRANCH   1   3
BRANCH   1  16
ATOM     16  N   UNL d   1      26.624 -15.813  -0.647  0.00  0.00    -0.346 N 
ATOM     17  C   UNL d   1      27.889 -16.323  -0.360  0.00  0.00     0.242 C 
ATOM     18  O   UNL d   1      28.198 -17.474  -0.670  0.00  0.00    -0.271 OA
ATOM     19  H   UNL d   1      26.349 -14.891  -0.329  0.00  0.00     0.163 HD
BRANCH  17  20
ATOM     20  C   UNL d   1      28.880 -15.379   0.362  0.00  0.00     0.278 C 
BRANCH  20  21
ATOM     21  O   UNL d   1      28.233 -14.131   0.658  0.00  0.00    -0.342 OA
BRANCH  21  22
ATOM     22  C   UNL d   1      28.127 -13.778   1.976  0.00  0.00     0.069 A 
ATOM     23  C   UNL d   1      28.144 -14.821   2.911  0.00  0.00     0.037 A 
ATOM     24  C   UNL d   1      27.954 -14.560   4.273  0.00  0.00     0.003 A 
ATOM     25  C   UNL d   1      27.795 -13.248   4.713  0.00  0.00     0.000 A 
ATOM     26  C   UNL d   1      27.757 -12.210   3.785  0.00  0.00     0.003 A 
ATOM     27  C   UNL d   1      27.901 -12.475   2.420  0.00  0.00     0.037 A 
ENDBRANCH  21  22
ENDBRANCH  20  21
ENDBRANCH  17  20
ENDBRANCH   1  16
TORSDOF 7
ENDMDL
MODEL 6
REMARK VINA RESULT:    -6.863      3.271      3.618
REMARK INTER + INTRA:         -11.461
REMARK INTER:                  -8.951
REMARK INTRA:                  -2.509
REMARK CONF_INDEPENDENT:        2.088
REMARK UNBOUND:                -2.509
REMARK  7 active torsions:
REMARK  status: ('A' for Active; 'I' for Inactive)
REMARK    1  A    between atoms: C_2  and  N_4 
REMARK       I    between atoms: N_4  and  C_5 
REMARK       I    between atoms: C_5  and  N_7 
REMARK    2  A    between atoms: N_7  and  N_8 
REMARK       I    between atoms: N_8  and  C_9 
REMARK    3  A    between atoms: C_9  and  C_11 
REMARK    4  A    between atoms: C_11  and  N_13 
REMARK       I    between atoms: N_13  and  C_14 
REMARK    5  A    between atoms: C_14  and  C_16 
REMARK    6  A    between atoms: C_16  and  O_17 
REMARK    7  A    between atoms: O_17  and  C_18 
ROOT
ATOM      1  C   UNL d   1      25.909 -15.587  -1.946  0.00  0.00     0.174 C 
ATOM      2  C   UNL d   1      26.673 -14.998  -0.760  0.00  0.00     0.042 C 
ENDROOT
BRANCH   1   3
ATOM      3  C   UNL d   1      25.277 -14.428  -2.814  0.00  0.00     0.258 C 
ATOM      4  N   UNL d   1      25.969 -13.215  -2.863  0.00  0.00    -0.264 N 
ATOM      5  H   UNL d   1      26.847 -13.032  -2.375  0.00  0.00     0.190 HD
ATOM      6  O   UNL d   1      24.221 -14.596  -3.432  0.00  0.00    -0.269 OA
BRANCH   4   7
ATOM      7  N   UNL d   1      25.440 -12.090  -3.598  0.00  0.00    -0.249 N 
ATOM      8  C   UNL d   1      25.994 -10.832  -3.401  0.00  0.00     0.335 C 
ATOM      9  N   UNL d   1      25.399  -9.802  -4.110  0.00  0.00    -0.338 N 
ATOM     10  O   UNL d   1      26.932 -10.663  -2.618  0.00  0.00    -0.246 OA
ATOM     11  H   UNL d   1      24.678 -10.017  -4.784  0.00  0.00     0.164 HD
ATOM     12  H   UNL d   1      24.694 -12.287  -4.257  0.00  0.00     0.192 HD
BRANCH   9  13
ATOM     13  C   UNL d   1      25.848  -8.397  -3.999  0.00  0.00     0.078 C 
ATOM     14  C   UNL d   1      25.015  -7.426  -4.854  0.00  0.00     0.032 C 
ATOM     15  C   UNL d   1      25.798  -7.905  -2.550  0.00  0.00     0.032 C 
ENDBRANCH   9  13
ENDBRANCH   4   7
ENDBRANCH   1   3
BRANCH   1  16
ATOM     16  N   UNL d   1      24.889 -16.556  -1.452  0.00  0.00    -0.346 N 
ATOM     17  C   UNL d   1      25.222 -17.635  -0.635  0.00  0.00     0.242 C 
ATOM     18  O   UNL d   1      26.391 -17.860  -0.322  0.00  0.00    -0.271 OA
ATOM     19  H   UNL d   1      23.935 -16.415  -1.765  0.00  0.00     0.163 HD
BRANCH  17  20
ATOM     20  C   UNL d   1      24.060 -18.531  -0.144  0.00  0.00     0.278 C 
BRANCH  20  21
ATOM     21  O   UNL d   1      22.803 -17.927  -0.488  0.00  0.00    -0.342 OA
BRANCH  21  22
ATOM     22  C   UNL d   1      21.668 -18.633  -0.194  0.00  0.00     0.069 A 
ATOM     23  C   UNL d   1      20.828 -18.951  -1.270  0.00  0.00     0.037 A 
ATOM     24  C   UNL d   1      19.604 -19.594  -1.052  0.00  0.00     0.003 A 
ATOM     25  C   UNL d   1      19.235 -19.965   0.239  0.00  0.00     0.000 A 
ATOM     26  C   UNL d   1      20.057 -19.633   1.313  0.00  0.00     0.003 A 
ATOM     27  C   UNL d   1      21.259 -18.950   1.100  0.00  0.00     0.037 A 
ENDBRANCH  21  22
ENDBRANCH  20  21
ENDBRANCH  17  20
ENDBRANCH   1  16
TORSDOF 7
ENDMDL
MODEL 7
REMARK VINA RESULT:    -6.836      1.935      2.159
REMARK INTER + INTRA:         -11.568
REMARK INTER:                  -8.924
REMARK INTRA:                  -2.644
REMARK CONF_INDEPENDENT:        2.088
REMARK UNBOUND:                -2.644
REMARK  7 active torsions:
REMARK  status: ('A' for Active; 'I' for Inactive)
REMARK    1  A    between atoms: C_2  and  N_4 
REMARK       I    between atoms: N_4  and  C_5 
REMARK       I    between atoms: C_5  and  N_7 
REMARK    2  A    between atoms: N_7  and  N_8 
REMARK       I    between atoms: N_8  and  C_9 
REMARK    3  A    between atoms: C_9  and  C_11 
REMARK    4  A    between atoms: C_11  and  N_13 
REMARK       I    between atoms: N_13  and  C_14 
REMARK    5  A    between atoms: C_14  and  C_16 
REMARK    6  A    between atoms: C_16  and  O_17 
REMARK    7  A    between atoms: O_17  and  C_18 
ROOT
ATOM      1  C   UNL d   1      25.564 -15.648  -1.847  0.00  0.00     0.174 C 
ATOM      2  C   UNL d   1      26.337 -14.921  -0.747  0.00  0.00     0.042 C 
ENDROOT
BRANCH   1   3
ATOM      3  C   UNL d   1      24.899 -14.601  -2.825  0.00  0.00     0.258 C 
ATOM      4  N   UNL d   1      25.752 -13.864  -3.650  0.00  0.00    -0.264 N 
ATOM      5  H   UNL d   1      26.768 -13.957  -3.658  0.00  0.00     0.190 HD
ATOM      6  O   UNL d   1      23.673 -14.452  -2.864  0.00  0.00    -0.269 OA
BRANCH   4   7
ATOM      7  N   UNL d   1      25.230 -12.856  -4.543  0.00  0.00    -0.249 N 
ATOM      8  C   UNL d   1      26.108 -12.156  -5.360  0.00  0.00     0.335 C 
ATOM      9  N   UNL d   1      25.532 -11.177  -6.153  0.00  0.00    -0.338 N 
ATOM     10  O   UNL d   1      27.320 -12.386  -5.342  0.00  0.00    -0.246 OA
ATOM     11  H   UNL d   1      24.526 -11.083  -6.170  0.00  0.00     0.164 HD
ATOM     12  H   UNL d   1      24.223 -12.730  -4.549  0.00  0.00     0.192 HD
BRANCH   9  13
ATOM     13  C   UNL d   1      26.324 -10.322  -7.062  0.00  0.00     0.078 C 
ATOM     14  C   UNL d   1      27.148  -9.253  -6.323  0.00  0.00     0.032 C 
ATOM     15  C   UNL d   1      27.290 -11.152  -7.912  0.00  0.00     0.032 C 
ENDBRANCH   9  13
ENDBRANCH   4   7
ENDBRANCH   1   3
BRANCH   1  16
ATOM     16  N   UNL d   1      24.568 -16.572  -1.231  0.00  0.00    -0.346 N 
ATOM     17  C   UNL d   1      24.933 -17.799  -0.682  0.00  0.00     0.242 C 
ATOM     18  O   UNL d   1      26.098 -18.196  -0.724  0.00  0.00    -0.271 OA
ATOM     19  H   UNL d   1      23.597 -16.280  -1.257  0.00  0.00     0.163 HD
BRANCH  17  20
ATOM     20  C   UNL d   1      23.811 -18.636  -0.021  0.00  0.00     0.278 C 
BRANCH  20  21
ATOM     21  O   UNL d   1      22.537 -18.018  -0.265  0.00  0.00    -0.342 OA
BRANCH  21  22
ATOM     22  C   UNL d   1      21.424 -18.801  -0.123  0.00  0.00     0.069 A 
ATOM     23  C   UNL d   1      20.636 -18.986  -1.266  0.00  0.00     0.037 A 
ATOM     24  C   UNL d   1      19.433 -19.700  -1.194  0.00  0.00     0.003 A 
ATOM     25  C   UNL d   1      19.037 -20.272   0.011  0.00  0.00     0.000 A 
ATOM     26  C   UNL d   1      19.807 -20.073   1.155  0.00  0.00     0.003 A 
ATOM     27  C   UNL d   1      20.985 -19.322   1.093  0.00  0.00     0.037 A 
ENDBRANCH  21  22
ENDBRANCH  20  21
ENDBRANCH  17  20
ENDBRANCH   1  16
TORSDOF 7
ENDMDL
MODEL 8
REMARK VINA RESULT:    -6.425      3.728      5.124
REMARK INTER + INTRA:         -11.616
REMARK INTER:                  -8.514
REMARK INTRA:                  -3.103
REMARK CONF_INDEPENDENT:        2.088
REMARK UNBOUND:                -3.103
REMARK  7 active torsions:
REMARK  status: ('A' for Active; 'I' for Inactive)
REMARK    1  A    between atoms: C_2  and  N_4 
REMARK       I    between atoms: N_4  and  C_5 
REMARK       I    between atoms: C_5  and  N_7 
REMARK    2  A    between atoms: N_7  and  N_8 
REMARK       I    between atoms: N_8  and  C_9 
REMARK    3  A    between atoms: C_9  and  C_11 
REMARK    4  A    between atoms: C_11  and  N_13 
REMARK       I    between atoms: N_13  and  C_14 
REMARK    5  A    between atoms: C_14  and  C_16 
REMARK    6  A    between atoms: C_16  and  O_17 
REMARK    7  A    between atoms: O_17  and  C_18 
ROOT
ATOM      1  C   UNL d   1      25.990 -15.224  -4.041  0.00  0.00     0.174 C 
ATOM      2  C   UNL d   1      27.418 -15.015  -4.546  0.00  0.00     0.042 C 
ENDROOT
BRANCH   1   3
ATOM      3  C   UNL d   1      25.229 -13.841  -3.977  0.00  0.00     0.258 C 
ATOM      4  N   UNL d   1      25.967 -12.721  -3.586  0.00  0.00    -0.264 N 
ATOM      5  H   UNL d   1      26.958 -12.742  -3.337  0.00  0.00     0.190 HD
ATOM      6  O   UNL d   1      24.033 -13.756  -4.275  0.00  0.00    -0.269 OA
BRANCH   4   7
ATOM      7  N   UNL d   1      25.339 -11.427  -3.460  0.00  0.00    -0.249 N 
ATOM      8  C   UNL d   1      26.051 -10.383  -2.884  0.00  0.00     0.335 C 
ATOM      9  N   UNL d   1      25.359  -9.189  -2.761  0.00  0.00    -0.338 N 
ATOM     10  O   UNL d   1      27.208 -10.540  -2.488  0.00  0.00    -0.246 OA
ATOM     11  H   UNL d   1      24.437  -9.107  -3.165  0.00  0.00     0.164 HD
ATOM     12  H   UNL d   1      24.400 -11.339  -3.835  0.00  0.00     0.192 HD
BRANCH   9  13
ATOM     13  C   UNL d   1      25.959  -7.983  -2.149  0.00  0.00     0.078 C 
ATOM     14  C   UNL d   1      25.594  -6.684  -2.888  0.00  0.00     0.032 C 
ATOM     15  C   UNL d   1      25.532  -7.826  -0.687  0.00  0.00     0.032 C 
ENDBRANCH   9  13
ENDBRANCH   4   7
ENDBRANCH   1   3
BRANCH   1  16
ATOM     16  N   UNL d   1      26.024 -15.923  -2.723  0.00  0.00    -0.346 N 
ATOM     17  C   UNL d   1      26.457 -15.293  -1.558  0.00  0.00     0.242 C 
ATOM     18  O   UNL d   1      26.876 -14.135  -1.577  0.00  0.00    -0.271 OA
ATOM     19  H   UNL d   1      25.745 -16.898  -2.716  0.00  0.00     0.163 HD
BRANCH  17  20
ATOM     20  C   UNL d   1      26.385 -16.112  -0.247  0.00  0.00     0.278 C 
BRANCH  20  21
ATOM     21  O   UNL d   1      25.957 -17.452  -0.535  0.00  0.00    -0.342 OA
BRANCH  21  22
ATOM     22  C   UNL d   1      24.609 -17.685  -0.574  0.00  0.00     0.069 A 
ATOM     23  C   UNL d   1      23.776 -16.559  -0.570  0.00  0.00     0.037 A 
ATOM     24  C   UNL d   1      22.384 -16.703  -0.521  0.00  0.00     0.003 A 
ATOM     25  C   UNL d   1      21.817 -17.974  -0.523  0.00  0.00     0.000 A 
ATOM     26  C   UNL d   1      22.642 -19.097  -0.506  0.00  0.00     0.003 A 
ATOM     27  C   UNL d   1      24.033 -18.953  -0.510  0.00  0.00     0.037 A 
ENDBRANCH  21  22
ENDBRANCH  20  21
ENDBRANCH  17  20
ENDBRANCH   1  16
TORSDOF 7
ENDMDL
MODEL 9
REMARK VINA RESULT:    -6.360      3.747      5.223
REMARK INTER + INTRA:         -11.641
REMARK INTER:                  -8.448
REMARK INTRA:                  -3.193
REMARK CONF_INDEPENDENT:        2.088
REMARK UNBOUND:                -3.193
REMARK  7 active torsions:
REMARK  status: ('A' for Active; 'I' for Inactive)
REMARK    1  A    between atoms: C_2  and  N_4 
REMARK       I    between atoms: N_4  and  C_5 
REMARK       I    between atoms: C_5  and  N_7 
REMARK    2  A    between atoms: N_7  and  N_8 
REMARK       I    between atoms: N_8  and  C_9 
REMARK    3  A    between atoms: C_9  and  C_11 
REMARK    4  A    between atoms: C_11  and  N_13 
REMARK       I    between atoms: N_13  and  C_14 
REMARK    5  A    between atoms: C_14  and  C_16 
REMARK    6  A    between atoms: C_16  and  O_17 
REMARK    7  A    between atoms: O_17  and  C_18 
ROOT
ATOM      1  C   UNL d   1      25.967 -15.173  -4.150  0.00  0.00     0.174 C 
ATOM      2  C   UNL d   1      27.348 -14.970  -4.773  0.00  0.00     0.042 C 
ENDROOT
BRANCH   1   3
ATOM      3  C   UNL d   1      25.213 -13.789  -4.037  0.00  0.00     0.258 C 
ATOM      4  N   UNL d   1      25.973 -12.674  -3.677  0.00  0.00    -0.264 N 
ATOM      5  H   UNL d   1      26.976 -12.698  -3.481  0.00  0.00     0.190 HD
ATOM      6  O   UNL d   1      24.003 -13.700  -4.270  0.00  0.00    -0.269 OA
BRANCH   4   7
ATOM      7  N   UNL d   1      25.356 -11.379  -3.509  0.00  0.00    -0.249 N 
ATOM      8  C   UNL d   1      26.091 -10.347  -2.942  0.00  0.00     0.335 C 
ATOM      9  N   UNL d   1      25.410  -9.152  -2.776  0.00  0.00    -0.338 N 
ATOM     10  O   UNL d   1      27.261 -10.515  -2.588  0.00  0.00    -0.246 OA
ATOM     11  H   UNL d   1      24.475  -9.060  -3.147  0.00  0.00     0.164 HD
ATOM     12  H   UNL d   1      24.405 -11.281  -3.851  0.00  0.00     0.192 HD
BRANCH   9  13
ATOM     13  C   UNL d   1      26.035  -7.959  -2.165  0.00  0.00     0.078 C 
ATOM     14  C   UNL d   1      25.423  -6.636  -2.658  0.00  0.00     0.032 C 
ATOM     15  C   UNL d   1      25.922  -7.987  -0.638  0.00  0.00     0.032 C 
ENDBRANCH   9  13
ENDBRANCH   4   7
ENDBRANCH   1   3
BRANCH   1  16
ATOM     16  N   UNL d   1      26.109 -15.859  -2.832  0.00  0.00    -0.346 N 
ATOM     17  C   UNL d   1      26.686 -15.236  -1.728  0.00  0.00     0.242 C 
ATOM     18  O   UNL d   1      27.148 -14.097  -1.807  0.00  0.00    -0.271 OA
ATOM     19  H   UNL d   1      25.794 -16.822  -2.783  0.00  0.00     0.163 HD
BRANCH  17  20
ATOM     20  C   UNL d   1      26.719 -16.039  -0.405  0.00  0.00     0.278 C 
BRANCH  20  21
ATOM     21  O   UNL d   1      26.150 -17.341  -0.614  0.00  0.00    -0.342 OA
BRANCH  21  22
ATOM     22  C   UNL d   1      24.788 -17.448  -0.544  0.00  0.00     0.069 A 
ATOM     23  C   UNL d   1      24.262 -18.744  -0.461  0.00  0.00     0.037 A 
ATOM     24  C   UNL d   1      22.878 -18.953  -0.473  0.00  0.00     0.003 A 
ATOM     25  C   UNL d   1      22.012 -17.863  -0.520  0.00  0.00     0.000 A 
ATOM     26  C   UNL d   1      22.530 -16.574  -0.624  0.00  0.00     0.003 A 
ATOM     27  C   UNL d   1      23.913 -16.369  -0.657  0.00  0.00     0.037 A 
ENDBRANCH  21  22
ENDBRANCH  20  21
ENDBRANCH  17  20
ENDBRANCH   1  16
TORSDOF 7
ENDMDL
