MODEL 1
REMARK VINA RESULT:   -33.569      0.000      0.000
REMARK INTER + INTRA:         -40.932
REMARK INTER:                 -36.552
REMARK INTRA:                  -4.380
REMARK CONF_INDEPENDENT:        2.983
REMARK UNBOUND:                -4.380
REMARK  10 active torsions:
REMARK  status: ('A' for Active; 'I' for Inactive)
REMARK    1  A    between atoms: S_2  and  C_3 
REMARK    2  A    between atoms: C_8  and  N_9 
REMARK       I    between atoms: N_9  and  C_10 
REMARK    3  A    between atoms: C_10  and  C_12 
REMARK    4  A    between atoms: C_12  and  O_13 
REMARK    5  A    between atoms: O_13  and  C_14 
REMARK    6  A    between atoms: C_16  and  C_14 
REMARK    7  A    between atoms: C_16  and  N_27 
REMARK    8  A    between atoms: C_16  and  C_17 
REMARK    9  A    between atoms: C_17  and  C_18 
REMARK       I    between atoms: N_27  and  C_28 
REMARK   10  A    between atoms: C_28  and  C_30 
ROOT
ATOM      1  C   UNL d   1      24.525 -16.762  -0.680  0.00  0.00     0.188 C 
ENDROOT
BRANCH   1   2
ATOM      2  N   UNL d   1      25.444 -16.173  -1.826  0.00  0.00    -0.343 N 
ATOM      3  C   UNL d   1      25.119 -15.156  -2.770  0.00  0.00     0.254 C 
ATOM      4  O   UNL d   1      24.022 -14.619  -2.895  0.00  0.00    -0.268 OA
ATOM      5  H   UNL d   1      26.275 -16.699  -2.047  0.00  0.00     0.163 HD
BRANCH   3   6
ATOM      6  C   UNL d   1      26.206 -14.656  -3.701  0.00  0.00     0.053 A 
ATOM      7  C   UNL d   1      26.918 -15.573  -4.518  0.00  0.00     0.019 A 
ATOM      8  C   UNL d   1      28.013 -15.160  -5.304  0.00  0.00     0.001 A 
ATOM      9  C   UNL d   1      28.385 -13.819  -5.326  0.00  0.00     0.002 A 
ATOM     10  C   UNL d   1      27.707 -12.912  -4.511  0.00  0.00     0.025 A 
ATOM     11  C   UNL d   1      26.636 -13.326  -3.695  0.00  0.00     0.049 A 
ATOM     12 CL   UNL d   1      25.906 -12.133  -2.686  0.00  0.00    -0.083 Cl
ENDBRANCH   3   6
ENDBRANCH   1   2
BRANCH   1  13
ATOM     13  C   UNL d   1      22.934 -17.401  -1.271  0.00  0.00     0.072 C 
BRANCH  13  14
ATOM     14  C   UNL d   1      21.535 -18.220  -0.457  0.00  0.00    -0.046 C 
ATOM     15  C   UNL d   1      21.203 -19.209  -1.348  0.00  0.00     0.112 C 
ATOM     16  N   UNL d   1      19.905 -18.906  -1.138  0.00  0.00    -0.282 NA
ATOM     17  C   UNL d   1      19.675 -19.544   0.046  0.00  0.00     0.019 C 
ATOM     18  H   UNL d   1      19.468 -17.983  -1.201  0.00  0.00     0.128 HD
ATOM     19  C   UNL d   1      18.451 -20.347   0.191  0.00  0.00     0.024 C 
ATOM     20  C   UNL d   1      20.846 -19.132   0.899  0.00  0.00    -0.011 C 
ATOM     21  C   UNL d   1      17.966 -20.919   1.313  0.00  0.00     0.002 C 
ATOM     22  C   UNL d   1      18.904 -20.825   2.272  0.00  0.00     0.001 C 
ATOM     23  C   UNL d   1      20.173 -19.966   2.049  0.00  0.00     0.013 C 
ENDBRANCH  13  14
ENDBRANCH   1  13
BRANCH   1  24
ATOM     24  C   UNL d   1      25.465 -17.728   0.068  0.00  0.00     0.282 C 
ATOM     25  O   UNL d   1      25.362 -18.134   1.223  0.00  0.00    -0.263 OA
BRANCH  24  26
ATOM     26  O   UNL d   1      26.449 -18.156  -0.729  0.00  0.00    -0.310 OA
BRANCH  26  27
ATOM     27  C   UNL d   1      27.766 -17.893  -0.192  0.00  0.00     0.281 C 
BRANCH  27  28
ATOM     28  C   UNL d   1      27.728 -16.395  -0.010  0.00  0.00     0.246 C 
ATOM     29  N   UNL d   1      27.397 -15.889   1.237  0.00  0.00    -0.324 N 
ATOM     30  H   UNL d   1      26.870 -16.495   1.855  0.00  0.00     0.169 HD
ATOM     31  O   UNL d   1      27.962 -15.704  -1.000  0.00  0.00    -0.271 OA
BRANCH  29  32
ATOM     32  C   UNL d   1      27.442 -14.493   1.578  0.00  0.00     0.051 C 
ATOM     33  C   UNL d   1      27.064 -13.533   0.633  0.00  0.00     0.031 C 
ATOM     34  C   UNL d   1      27.123 -12.152   0.932  0.00  0.00     0.002 C 
ATOM     35  C   UNL d   1      27.643 -11.695   2.135  0.00  0.00     0.002 C 
ATOM     36  C   UNL d   1      28.098 -12.622   3.031  0.00  0.00     0.021 C 
ATOM     37  C   UNL d   1      27.817 -13.980   2.822  0.00  0.00     0.026 C 
BRANCH  37  38
ATOM     38  S   UNL d   1      27.783 -14.711   4.392  0.00  0.00    -0.132 SA
ATOM     39  C   UNL d   1      29.194 -14.213   5.351  0.00  0.00     0.095 C 
ENDBRANCH  37  38
ENDBRANCH  29  32
ENDBRANCH  27  28
ENDBRANCH  26  27
ENDBRANCH  24  26
ENDBRANCH   1  24
TORSDOF 10
ENDMDL
MODEL 2
REMARK VINA RESULT:   -33.451      2.818      4.312
REMARK INTER + INTRA:         -40.806
REMARK INTER:                 -36.434
REMARK INTRA:                  -4.372
REMARK CONF_INDEPENDENT:        2.983
REMARK UNBOUND:                -4.372
REMARK  10 active torsions:
REMARK  status: ('A' for Active; 'I' for Inactive)
REMARK    1  A    between atoms: S_2  and  C_3 
REMARK    2  A    between atoms: C_8  and  N_9 
REMARK       I    between atoms: N_9  and  C_10 
REMARK    3  A    between atoms: C_10  and  C_12 
REMARK    4  A    between atoms: C_12  and  O_13 
REMARK    5  A    between atoms: O_13  and  C_14 
REMARK    6  A    between atoms: C_16  and  C_14 
REMARK    7  A    between atoms: C_16  and  N_27 
REMARK    8  A    between atoms: C_16  and  C_17 
REMARK    9  A    between atoms: C_17  and  C_18 
REMARK       I    between atoms: N_27  and  C_28 
REMARK   10  A    between atoms: C_28  and  C_30 
ROOT
ATOM      1  C   UNL d   1      24.413 -16.814  -0.248  0.00  0.00     0.188 C 
ENDROOT
BRANCH   1   2
ATOM      2  N   UNL d   1      24.918 -15.528  -1.018  0.00  0.00    -0.343 N 
ATOM      3  C   UNL d   1      25.250 -15.411  -2.399  0.00  0.00     0.254 C 
ATOM      4  O   UNL d   1      25.273 -16.332  -3.210  0.00  0.00    -0.268 OA
ATOM      5  H   UNL d   1      25.228 -14.758  -0.446  0.00  0.00     0.163 HD
BRANCH   3   6
ATOM      6  C   UNL d   1      25.590 -14.040  -2.950  0.00  0.00     0.053 A 
ATOM      7  C   UNL d   1      25.132 -13.658  -4.238  0.00  0.00     0.019 A 
ATOM      8  C   UNL d   1      25.531 -12.442  -4.829  0.00  0.00     0.001 A 
ATOM      9  C   UNL d   1      26.350 -11.565  -4.126  0.00  0.00     0.002 A 
ATOM     10  C   UNL d   1      26.825 -11.937  -2.868  0.00  0.00     0.025 A 
ATOM     11  C   UNL d   1      26.460 -13.168  -2.288  0.00  0.00     0.049 A 
ATOM     12 CL   UNL d   1      27.148 -13.552  -0.754  0.00  0.00    -0.083 Cl
ENDBRANCH   3   6
ENDBRANCH   1   2
BRANCH   1  13
ATOM     13  C   UNL d   1      23.012 -17.645  -1.046  0.00  0.00     0.072 C 
BRANCH  13  14
ATOM     14  C   UNL d   1      21.521 -18.465  -0.418  0.00  0.00    -0.046 C 
ATOM     15  C   UNL d   1      21.196 -19.325  -1.436  0.00  0.00     0.112 C 
ATOM     16  N   UNL d   1      19.905 -18.970  -1.269  0.00  0.00    -0.282 NA
ATOM     17  C   UNL d   1      19.564 -19.723  -0.184  0.00  0.00     0.019 C 
ATOM     18  H   UNL d   1      19.522 -18.022  -1.250  0.00  0.00     0.128 HD
ATOM     19  C   UNL d   1      18.293 -20.463  -0.206  0.00  0.00     0.024 C 
ATOM     20  C   UNL d   1      20.697 -19.482   0.779  0.00  0.00    -0.011 C 
ATOM     21  C   UNL d   1      17.706 -21.129   0.810  0.00  0.00     0.002 C 
ATOM     22  C   UNL d   1      18.582 -21.200   1.827  0.00  0.00     0.001 C 
ATOM     23  C   UNL d   1      19.907 -20.398   1.782  0.00  0.00     0.013 C 
ENDBRANCH  13  14
ENDBRANCH   1  13
BRANCH   1  24
ATOM     24  C   UNL d   1      25.705 -17.624  -0.022  0.00  0.00     0.282 C 
ATOM     25  O   UNL d   1      25.900 -18.516   0.799  0.00  0.00    -0.263 OA
BRANCH  24  26
ATOM     26  O   UNL d   1      26.651 -17.275  -0.900  0.00  0.00    -0.310 OA
BRANCH  26  27
ATOM     27  C   UNL d   1      27.951 -17.102  -0.292  0.00  0.00     0.281 C 
BRANCH  27  28
ATOM     28  C   UNL d   1      28.791 -16.692  -1.478  0.00  0.00     0.246 C 
ATOM     29  N   UNL d   1      28.160 -16.488  -2.695  0.00  0.00    -0.324 N 
ATOM     30  H   UNL d   1      27.265 -16.943  -2.833  0.00  0.00     0.169 HD
ATOM     31  O   UNL d   1      30.003 -16.595  -1.300  0.00  0.00    -0.271 OA
BRANCH  29  32
ATOM     32  C   UNL d   1      28.818 -15.980  -3.869  0.00  0.00     0.051 C 
ATOM     33  C   UNL d   1      28.519 -14.696  -4.335  0.00  0.00     0.031 C 
ATOM     34  C   UNL d   1      29.132 -14.182  -5.502  0.00  0.00     0.002 C 
ATOM     35  C   UNL d   1      29.979 -14.962  -6.276  0.00  0.00     0.002 C 
ATOM     36  C   UNL d   1      30.210 -16.249  -5.877  0.00  0.00     0.021 C 
ATOM     37  C   UNL d   1      29.789 -16.664  -4.605  0.00  0.00     0.026 C 
BRANCH  37  38
ATOM     38  S   UNL d   1      30.872 -17.929  -4.129  0.00  0.00    -0.132 SA
ATOM     39  C   UNL d   1      30.404 -19.474  -4.873  0.00  0.00     0.095 C 
ENDBRANCH  37  38
ENDBRANCH  29  32
ENDBRANCH  27  28
ENDBRANCH  26  27
ENDBRANCH  24  26
ENDBRANCH   1  24
TORSDOF 10
ENDMDL
MODEL 3
REMARK VINA RESULT:   -33.395      2.652      3.942
REMARK INTER + INTRA:         -40.291
REMARK INTER:                 -36.378
REMARK INTRA:                  -3.913
REMARK CONF_INDEPENDENT:        2.983
REMARK UNBOUND:                -3.913
REMARK  10 active torsions:
REMARK  status: ('A' for Active; 'I' for Inactive)
REMARK    1  A    between atoms: S_2  and  C_3 
REMARK    2  A    between atoms: C_8  and  N_9 
REMARK       I    between atoms: N_9  and  C_10 
REMARK    3  A    between atoms: C_10  and  C_12 
REMARK    4  A    between atoms: C_12  and  O_13 
REMARK    5  A    between atoms: O_13  and  C_14 
REMARK    6  A    between atoms: C_16  and  C_14 
REMARK    7  A    between atoms: C_16  and  N_27 
REMARK    8  A    between atoms: C_16  and  C_17 
REMARK    9  A    between atoms: C_17  and  C_18 
REMARK       I    between atoms: N_27  and  C_28 
REMARK   10  A    between atoms: C_28  and  C_30 
ROOT
ATOM      1  C   UNL d   1      24.465 -16.841  -0.612  0.00  0.00     0.188 C 
ENDROOT
BRANCH   1   2
ATOM      2  N   UNL d   1      25.426 -16.243  -1.718  0.00  0.00    -0.343 N 
ATOM      3  C   UNL d   1      25.144 -15.205  -2.651  0.00  0.00     0.254 C 
ATOM      4  O   UNL d   1      24.058 -14.651  -2.800  0.00  0.00    -0.268 OA
ATOM      5  H   UNL d   1      26.256 -16.776  -1.923  0.00  0.00     0.163 HD
BRANCH   3   6
ATOM      6  C   UNL d   1      26.265 -14.702  -3.539  0.00  0.00     0.053 A 
ATOM      7  C   UNL d   1      26.394 -15.190  -4.866  0.00  0.00     0.019 A 
ATOM      8  C   UNL d   1      27.493 -14.837  -5.675  0.00  0.00     0.001 A 
ATOM      9  C   UNL d   1      28.453 -13.953  -5.194  0.00  0.00     0.002 A 
ATOM     10  C   UNL d   1      28.350 -13.483  -3.885  0.00  0.00     0.025 A 
ATOM     11  C   UNL d   1      27.274 -13.862  -3.058  0.00  0.00     0.049 A 
ATOM     12 CL   UNL d   1      27.275 -13.267  -1.440  0.00  0.00    -0.083 Cl
ENDBRANCH   3   6
ENDBRANCH   1   2
BRANCH   1  13
ATOM     13  C   UNL d   1      22.904 -17.490  -1.270  0.00  0.00     0.072 C 
BRANCH  13  14
ATOM     14  C   UNL d   1      21.484 -18.331  -0.518  0.00  0.00    -0.046 C 
ATOM     15  C   UNL d   1      21.206 -19.325  -1.423  0.00  0.00     0.112 C 
ATOM     16  N   UNL d   1      19.896 -19.042  -1.270  0.00  0.00    -0.282 NA
ATOM     17  C   UNL d   1      19.624 -19.685  -0.097  0.00  0.00     0.019 C 
ATOM     18  H   UNL d   1      19.447 -18.127  -1.353  0.00  0.00     0.128 HD
ATOM     19  C   UNL d   1      18.408 -20.507  -0.007  0.00  0.00     0.024 C 
ATOM     20  C   UNL d   1      20.750 -19.256   0.806  0.00  0.00    -0.011 C 
ATOM     21  C   UNL d   1      17.884 -21.088   1.093  0.00  0.00     0.002 C 
ATOM     22  C   UNL d   1      18.776 -20.980   2.092  0.00  0.00     0.001 C 
ATOM     23  C   UNL d   1      20.041 -20.100   1.925  0.00  0.00     0.013 C 
ENDBRANCH  13  14
ENDBRANCH   1  13
BRANCH   1  24
ATOM     24  C   UNL d   1      25.379 -17.803   0.172  0.00  0.00     0.282 C 
ATOM     25  O   UNL d   1      25.131 -18.388   1.223  0.00  0.00    -0.263 OA
BRANCH  24  26
ATOM     26  O   UNL d   1      26.536 -17.997  -0.469  0.00  0.00    -0.310 OA
BRANCH  26  27
ATOM     27  C   UNL d   1      27.669 -17.426   0.224  0.00  0.00     0.281 C 
BRANCH  27  28
ATOM     28  C   UNL d   1      28.622 -17.161  -0.917  0.00  0.00     0.246 C 
ATOM     29  N   UNL d   1      29.785 -17.912  -0.995  0.00  0.00    -0.324 N 
ATOM     30  H   UNL d   1      30.116 -18.340  -0.139  0.00  0.00     0.169 HD
ATOM     31  O   UNL d   1      28.325 -16.260  -1.698  0.00  0.00    -0.271 OA
BRANCH  29  32
ATOM     32  C   UNL d   1      30.714 -17.846  -2.091  0.00  0.00     0.051 C 
ATOM     33  C   UNL d   1      30.271 -17.449  -3.357  0.00  0.00     0.031 C 
ATOM     34  C   UNL d   1      31.158 -17.400  -4.458  0.00  0.00     0.002 C 
ATOM     35  C   UNL d   1      32.473 -17.830  -4.345  0.00  0.00     0.002 C 
ATOM     36  C   UNL d   1      32.892 -18.303  -3.134  0.00  0.00     0.021 C 
ATOM     37  C   UNL d   1      32.080 -18.125  -2.004  0.00  0.00     0.026 C 
BRANCH  37  38
ATOM     38  S   UNL d   1      33.153 -18.065  -0.645  0.00  0.00    -0.132 SA
ATOM     39  C   UNL d   1      32.748 -19.331   0.535  0.00  0.00     0.095 C 
ENDBRANCH  37  38
ENDBRANCH  29  32
ENDBRANCH  27  28
ENDBRANCH  26  27
ENDBRANCH  24  26
ENDBRANCH   1  24
TORSDOF 10
ENDMDL
MODEL 4
REMARK VINA RESULT:   -32.961      2.572      3.319
REMARK INTER + INTRA:         -40.627
REMARK INTER:                 -35.944
REMARK INTRA:                  -4.682
REMARK CONF_INDEPENDENT:        2.983
REMARK UNBOUND:                -4.682
REMARK  10 active torsions:
REMARK  status: ('A' for Active; 'I' for Inactive)
REMARK    1  A    between atoms: S_2  and  C_3 
REMARK    2  A    between atoms: C_8  and  N_9 
REMARK       I    between atoms: N_9  and  C_10 
REMARK    3  A    between atoms: C_10  and  C_12 
REMARK    4  A    between atoms: C_12  and  O_13 
REMARK    5  A    between atoms: O_13  and  C_14 
REMARK    6  A    between atoms: C_16  and  C_14 
REMARK    7  A    between atoms: C_16  and  N_27 
REMARK    8  A    between atoms: C_16  and  C_17 
REMARK    9  A    between atoms: C_17  and  C_18 
REMARK       I    between atoms: N_27  and  C_28 
REMARK   10  A    between atoms: C_28  and  C_30 
ROOT
ATOM      1  C   UNL d   1      24.414 -16.891  -0.531  0.00  0.00     0.188 C 
ENDROOT
BRANCH   1   2
ATOM      2  N   UNL d   1      25.392 -16.298  -1.625  0.00  0.00    -0.343 N 
ATOM      3  C   UNL d   1      25.130 -15.253  -2.556  0.00  0.00     0.254 C 
ATOM      4  O   UNL d   1      24.051 -14.687  -2.713  0.00  0.00    -0.268 OA
ATOM      5  H   UNL d   1      26.219 -16.839  -1.824  0.00  0.00     0.163 HD
BRANCH   3   6
ATOM      6  C   UNL d   1      26.265 -14.757  -3.430  0.00  0.00     0.053 A 
ATOM      7  C   UNL d   1      26.351 -15.172  -4.785  0.00  0.00     0.019 A 
ATOM      8  C   UNL d   1      27.457 -14.829  -5.590  0.00  0.00     0.001 A 
ATOM      9  C   UNL d   1      28.469 -14.026  -5.072  0.00  0.00     0.002 A 
ATOM     10  C   UNL d   1      28.406 -13.629  -3.736  0.00  0.00     0.025 A 
ATOM     11  C   UNL d   1      27.323 -14.001  -2.917  0.00  0.00     0.049 A 
ATOM     12 CL   UNL d   1      27.375 -13.503  -1.267  0.00  0.00    -0.083 Cl
ENDBRANCH   3   6
ENDBRANCH   1   2
BRANCH   1  13
ATOM     13  C   UNL d   1      22.828 -17.463  -1.199  0.00  0.00     0.072 C 
BRANCH  13  14
ATOM     14  C   UNL d   1      21.417 -18.351  -0.484  0.00  0.00    -0.046 C 
ATOM     15  C   UNL d   1      21.167 -19.325  -1.418  0.00  0.00     0.112 C 
ATOM     16  N   UNL d   1      19.850 -19.071  -1.270  0.00  0.00    -0.282 NA
ATOM     17  C   UNL d   1      19.580 -19.751  -0.118  0.00  0.00     0.019 C 
ATOM     18  H   UNL d   1      19.385 -18.163  -1.332  0.00  0.00     0.128 HD
ATOM     19  C   UNL d   1      18.380 -20.598  -0.061  0.00  0.00     0.024 C 
ATOM     20  C   UNL d   1      20.689 -19.325   0.808  0.00  0.00    -0.011 C 
ATOM     21  C   UNL d   1      17.856 -21.219   1.018  0.00  0.00     0.002 C 
ATOM     22  C   UNL d   1      18.737 -21.121   2.028  0.00  0.00     0.001 C 
ATOM     23  C   UNL d   1      19.986 -20.213   1.897  0.00  0.00     0.013 C 
ENDBRANCH  13  14
ENDBRANCH   1  13
BRANCH   1  24
ATOM     24  C   UNL d   1      25.296 -17.909   0.220  0.00  0.00     0.282 C 
ATOM     25  O   UNL d   1      25.086 -18.420   1.317  0.00  0.00    -0.263 OA
BRANCH  24  26
ATOM     26  O   UNL d   1      26.365 -18.248  -0.506  0.00  0.00    -0.310 OA
BRANCH  26  27
ATOM     27  C   UNL d   1      27.605 -18.147   0.230  0.00  0.00     0.281 C 
BRANCH  27  28
ATOM     28  C   UNL d   1      28.372 -17.146  -0.600  0.00  0.00     0.246 C 
ATOM     29  N   UNL d   1      29.525 -16.591  -0.067  0.00  0.00    -0.324 N 
ATOM     30  H   UNL d   1      29.616 -16.599   0.942  0.00  0.00     0.169 HD
ATOM     31  O   UNL d   1      27.904 -16.852  -1.698  0.00  0.00    -0.271 OA
BRANCH  29  32
ATOM     32  C   UNL d   1      30.411 -15.722  -0.793  0.00  0.00     0.051 C 
ATOM     33  C   UNL d   1      30.964 -14.604  -0.160  0.00  0.00     0.031 C 
ATOM     34  C   UNL d   1      31.817 -13.718  -0.858  0.00  0.00     0.002 C 
ATOM     35  C   UNL d   1      32.062 -13.871  -2.215  0.00  0.00     0.002 C 
ATOM     36  C   UNL d   1      31.456 -14.910  -2.864  0.00  0.00     0.021 C 
ATOM     37  C   UNL d   1      30.811 -15.907  -2.119  0.00  0.00     0.026 C 
BRANCH  37  38
ATOM     38  S   UNL d   1      30.894 -17.350  -3.073  0.00  0.00    -0.132 SA
ATOM     39  C   UNL d   1      30.219 -17.075  -4.694  0.00  0.00     0.095 C 
ENDBRANCH  37  38
ENDBRANCH  29  32
ENDBRANCH  27  28
ENDBRANCH  26  27
ENDBRANCH  24  26
ENDBRANCH   1  24
TORSDOF 10
ENDMDL
MODEL 5
REMARK VINA RESULT:   -32.921      1.741      1.972
REMARK INTER + INTRA:         -40.405
REMARK INTER:                 -35.904
REMARK INTRA:                  -4.501
REMARK CONF_INDEPENDENT:        2.983
REMARK UNBOUND:                -4.501
REMARK  10 active torsions:
REMARK  status: ('A' for Active; 'I' for Inactive)
REMARK    1  A    between atoms: S_2  and  C_3 
REMARK    2  A    between atoms: C_8  and  N_9 
REMARK       I    between atoms: N_9  and  C_10 
REMARK    3  A    between atoms: C_10  and  C_12 
REMARK    4  A    between atoms: C_12  and  O_13 
REMARK    5  A    between atoms: O_13  and  C_14 
REMARK    6  A    between atoms: C_16  and  C_14 
REMARK    7  A    between atoms: C_16  and  N_27 
REMARK    8  A    between atoms: C_16  and  C_17 
REMARK    9  A    between atoms: C_17  and  C_18 
REMARK       I    between atoms: N_27  and  C_28 
REMARK   10  A    between atoms: C_28  and  C_30 
ROOT
ATOM      1  C   UNL d   1      24.402 -16.796  -0.638  0.00  0.00     0.188 C 
ENDROOT
BRANCH   1   2
ATOM      2  N   UNL d   1      25.337 -16.174  -1.752  0.00  0.00    -0.343 N 
ATOM      3  C   UNL d   1      25.036 -15.112  -2.653  0.00  0.00     0.254 C 
ATOM      4  O   UNL d   1      23.948 -14.551  -2.761  0.00  0.00    -0.268 OA
ATOM      5  H   UNL d   1      26.160 -16.704  -1.991  0.00  0.00     0.163 HD
BRANCH   3   6
ATOM      6  C   UNL d   1      26.136 -14.591  -3.555  0.00  0.00     0.053 A 
ATOM      7  C   UNL d   1      26.376 -15.206  -4.812  0.00  0.00     0.019 A 
ATOM      8  C   UNL d   1      27.467 -14.826  -5.621  0.00  0.00     0.001 A 
ATOM      9  C   UNL d   1      28.305 -13.794  -5.213  0.00  0.00     0.002 A 
ATOM     10  C   UNL d   1      28.094 -13.195  -3.971  0.00  0.00     0.025 A 
ATOM     11  C   UNL d   1      27.028 -13.596  -3.142  0.00  0.00     0.049 A 
ATOM     12 CL   UNL d   1      26.893 -12.828  -1.604  0.00  0.00    -0.083 Cl
ENDBRANCH   3   6
ENDBRANCH   1   2
BRANCH   1  13
ATOM     13  C   UNL d   1      22.800 -17.373  -1.263  0.00  0.00     0.072 C 
BRANCH  13  14
ATOM     14  C   UNL d   1      21.410 -18.261  -0.510  0.00  0.00    -0.046 C 
ATOM     15  C   UNL d   1      21.234 -19.325  -1.358  0.00  0.00     0.112 C 
ATOM     16  N   UNL d   1      19.903 -19.123  -1.270  0.00  0.00    -0.282 NA
ATOM     17  C   UNL d   1      19.628 -19.710  -0.069  0.00  0.00     0.019 C 
ATOM     18  H   UNL d   1      19.398 -18.247  -1.427  0.00  0.00     0.128 HD
ATOM     19  C   UNL d   1      18.466 -20.606   0.032  0.00  0.00     0.024 C 
ATOM     20  C   UNL d   1      20.687 -19.150   0.844  0.00  0.00    -0.011 C 
ATOM     21  C   UNL d   1      17.938 -21.152   1.147  0.00  0.00     0.002 C 
ATOM     22  C   UNL d   1      18.781 -20.922   2.168  0.00  0.00     0.001 C 
ATOM     23  C   UNL d   1      19.991 -19.970   1.989  0.00  0.00     0.013 C 
ENDBRANCH  13  14
ENDBRANCH   1  13
BRANCH   1  24
ATOM     24  C   UNL d   1      25.318 -17.817   0.067  0.00  0.00     0.282 C 
ATOM     25  O   UNL d   1      25.099 -18.430   1.108  0.00  0.00    -0.263 OA
BRANCH  24  26
ATOM     26  O   UNL d   1      26.435 -18.027  -0.637  0.00  0.00    -0.310 OA
BRANCH  26  27
ATOM     27  C   UNL d   1      27.636 -17.887   0.155  0.00  0.00     0.281 C 
BRANCH  27  28
ATOM     28  C   UNL d   1      28.254 -16.646  -0.444  0.00  0.00     0.246 C 
ATOM     29  N   UNL d   1      29.079 -15.868   0.353  0.00  0.00    -0.324 N 
ATOM     30  H   UNL d   1      28.963 -15.951   1.356  0.00  0.00     0.169 HD
ATOM     31  O   UNL d   1      27.956 -16.376  -1.606  0.00  0.00    -0.271 OA
BRANCH  29  32
ATOM     32  C   UNL d   1      29.823 -14.734  -0.124  0.00  0.00     0.051 C 
ATOM     33  C   UNL d   1      30.563 -14.833  -1.307  0.00  0.00     0.031 C 
ATOM     34  C   UNL d   1      31.325 -13.742  -1.785  0.00  0.00     0.002 C 
ATOM     35  C   UNL d   1      31.441 -12.568  -1.054  0.00  0.00     0.002 C 
ATOM     36  C   UNL d   1      30.793 -12.492   0.146  0.00  0.00     0.021 C 
ATOM     37  C   UNL d   1      29.859 -13.480   0.491  0.00  0.00     0.026 C 
BRANCH  37  38
ATOM     38  S   UNL d   1      28.721 -12.718   1.551  0.00  0.00    -0.132 SA
ATOM     39  C   UNL d   1      27.647 -13.923   2.296  0.00  0.00     0.095 C 
ENDBRANCH  37  38
ENDBRANCH  29  32
ENDBRANCH  27  28
ENDBRANCH  26  27
ENDBRANCH  24  26
ENDBRANCH   1  24
TORSDOF 10
ENDMDL
MODEL 6
REMARK VINA RESULT:   -32.518      2.858      3.881
REMARK INTER + INTRA:         -40.173
REMARK INTER:                 -35.501
REMARK INTRA:                  -4.672
REMARK CONF_INDEPENDENT:        2.983
REMARK UNBOUND:                -4.672
REMARK  10 active torsions:
REMARK  status: ('A' for Active; 'I' for Inactive)
REMARK    1  A    between atoms: S_2  and  C_3 
REMARK    2  A    between atoms: C_8  and  N_9 
REMARK       I    between atoms: N_9  and  C_10 
REMARK    3  A    between atoms: C_10  and  C_12 
REMARK    4  A    between atoms: C_12  and  O_13 
REMARK    5  A    between atoms: O_13  and  C_14 
REMARK    6  A    between atoms: C_16  and  C_14 
REMARK    7  A    between atoms: C_16  and  N_27 
REMARK    8  A    between atoms: C_16  and  C_17 
REMARK    9  A    between atoms: C_17  and  C_18 
REMARK       I    between atoms: N_27  and  C_28 
REMARK   10  A    between atoms: C_28  and  C_30 
ROOT
ATOM      1  C   UNL d   1      24.412 -16.825  -0.376  0.00  0.00     0.188 C 
ENDROOT
BRANCH   1   2
ATOM      2  N   UNL d   1      24.921 -15.505  -1.085  0.00  0.00    -0.343 N 
ATOM      3  C   UNL d   1      25.414 -15.362  -2.415  0.00  0.00     0.254 C 
ATOM      4  O   UNL d   1      25.599 -16.277  -3.212  0.00  0.00    -0.268 OA
ATOM      5  H   UNL d   1      25.105 -14.718  -0.484  0.00  0.00     0.163 HD
BRANCH   3   6
ATOM      6  C   UNL d   1      25.726 -13.970  -2.926  0.00  0.00     0.053 A 
ATOM      7  C   UNL d   1      25.404 -13.615  -4.263  0.00  0.00     0.019 A 
ATOM      8  C   UNL d   1      25.790 -12.372  -4.807  0.00  0.00     0.001 A 
ATOM      9  C   UNL d   1      26.458 -11.446  -4.014  0.00  0.00     0.002 A 
ATOM     10  C   UNL d   1      26.800 -11.790  -2.706  0.00  0.00     0.025 A 
ATOM     11  C   UNL d   1      26.450 -13.044  -2.169  0.00  0.00     0.049 A 
ATOM     12 CL   UNL d   1      26.972 -13.387  -0.561  0.00  0.00    -0.083 Cl
ENDBRANCH   3   6
ENDBRANCH   1   2
BRANCH   1  13
ATOM     13  C   UNL d   1      22.915 -17.527  -1.121  0.00  0.00     0.072 C 
BRANCH  13  14
ATOM     14  C   UNL d   1      21.464 -18.381  -0.446  0.00  0.00    -0.046 C 
ATOM     15  C   UNL d   1      21.194 -19.324  -1.405  0.00  0.00     0.112 C 
ATOM     16  N   UNL d   1      19.884 -19.028  -1.270  0.00  0.00    -0.282 NA
ATOM     17  C   UNL d   1      19.574 -19.722  -0.137  0.00  0.00     0.019 C 
ATOM     18  H   UNL d   1      19.452 -18.102  -1.318  0.00  0.00     0.128 HD
ATOM     19  C   UNL d   1      18.344 -20.528  -0.115  0.00  0.00     0.024 C 
ATOM     20  C   UNL d   1      20.684 -19.356   0.813  0.00  0.00    -0.011 C 
ATOM     21  C   UNL d   1      17.784 -21.153   0.942  0.00  0.00     0.002 C 
ATOM     22  C   UNL d   1      18.653 -21.108   1.966  0.00  0.00     0.001 C 
ATOM     23  C   UNL d   1      19.935 -20.242   1.872  0.00  0.00     0.013 C 
ENDBRANCH  13  14
ENDBRANCH   1  13
BRANCH   1  24
ATOM     24  C   UNL d   1      25.676 -17.706  -0.315  0.00  0.00     0.282 C 
ATOM     25  O   UNL d   1      25.776 -18.848   0.124  0.00  0.00    -0.263 OA
BRANCH  24  26
ATOM     26  O   UNL d   1      26.722 -17.086  -0.870  0.00  0.00    -0.310 OA
BRANCH  26  27
ATOM     27  C   UNL d   1      27.966 -17.347  -0.181  0.00  0.00     0.281 C 
BRANCH  27  28
ATOM     28  C   UNL d   1      28.906 -16.390  -0.873  0.00  0.00     0.246 C 
ATOM     29  N   UNL d   1      28.473 -15.759  -2.029  0.00  0.00    -0.324 N 
ATOM     30  H   UNL d   1      27.723 -16.204  -2.544  0.00  0.00     0.169 HD
ATOM     31  O   UNL d   1      30.025 -16.252  -0.385  0.00  0.00    -0.271 OA
BRANCH  29  32
ATOM     32  C   UNL d   1      29.218 -14.738  -2.716  0.00  0.00     0.051 C 
ATOM     33  C   UNL d   1      30.262 -14.077  -2.061  0.00  0.00     0.031 C 
ATOM     34  C   UNL d   1      30.993 -13.051  -2.703  0.00  0.00     0.002 C 
ATOM     35  C   UNL d   1      30.645 -12.600  -3.969  0.00  0.00     0.002 C 
ATOM     36  C   UNL d   1      29.570 -13.179  -4.583  0.00  0.00     0.021 C 
ATOM     37  C   UNL d   1      29.008 -14.344  -4.040  0.00  0.00     0.026 C 
BRANCH  37  38
ATOM     38  S   UNL d   1      28.309 -15.206  -5.369  0.00  0.00    -0.132 SA
ATOM     39  C   UNL d   1      29.539 -15.575  -6.599  0.00  0.00     0.095 C 
ENDBRANCH  37  38
ENDBRANCH  29  32
ENDBRANCH  27  28
ENDBRANCH  26  27
ENDBRANCH  24  26
ENDBRANCH   1  24
TORSDOF 10
ENDMDL
MODEL 7
REMARK VINA RESULT:   -32.413      2.576      3.578
REMARK INTER + INTRA:         -40.298
REMARK INTER:                 -35.396
REMARK INTRA:                  -4.902
REMARK CONF_INDEPENDENT:        2.983
REMARK UNBOUND:                -4.902
REMARK  10 active torsions:
REMARK  status: ('A' for Active; 'I' for Inactive)
REMARK    1  A    between atoms: S_2  and  C_3 
REMARK    2  A    between atoms: C_8  and  N_9 
REMARK       I    between atoms: N_9  and  C_10 
REMARK    3  A    between atoms: C_10  and  C_12 
REMARK    4  A    between atoms: C_12  and  O_13 
REMARK    5  A    between atoms: O_13  and  C_14 
REMARK    6  A    between atoms: C_16  and  C_14 
REMARK    7  A    between atoms: C_16  and  N_27 
REMARK    8  A    between atoms: C_16  and  C_17 
REMARK    9  A    between atoms: C_17  and  C_18 
REMARK       I    between atoms: N_27  and  C_28 
REMARK   10  A    between atoms: C_28  and  C_30 
ROOT
ATOM      1  C   UNL d   1      24.350 -16.710  -0.319  0.00  0.00     0.188 C 
ENDROOT
BRANCH   1   2
ATOM      2  N   UNL d   1      24.882 -15.439  -1.095  0.00  0.00    -0.343 N 
ATOM      3  C   UNL d   1      25.304 -15.358  -2.454  0.00  0.00     0.254 C 
ATOM      4  O   UNL d   1      25.398 -16.304  -3.232  0.00  0.00    -0.268 OA
ATOM      5  H   UNL d   1      25.139 -14.645  -0.530  0.00  0.00     0.163 HD
BRANCH   3   6
ATOM      6  C   UNL d   1      25.656 -13.999  -3.025  0.00  0.00     0.053 A 
ATOM      7  C   UNL d   1      25.262 -13.660  -4.347  0.00  0.00     0.019 A 
ATOM      8  C   UNL d   1      25.676 -12.456  -4.951  0.00  0.00     0.001 A 
ATOM      9  C   UNL d   1      26.446 -11.548  -4.231  0.00  0.00     0.002 A 
ATOM     10  C   UNL d   1      26.858 -11.878  -2.940  0.00  0.00     0.025 A 
ATOM     11  C   UNL d   1      26.479 -13.097  -2.345  0.00  0.00     0.049 A 
ATOM     12 CL   UNL d   1      27.089 -13.427  -0.766  0.00  0.00    -0.083 Cl
ENDBRANCH   3   6
ENDBRANCH   1   2
BRANCH   1  13
ATOM     13  C   UNL d   1      22.895 -17.480  -1.080  0.00  0.00     0.072 C 
BRANCH  13  14
ATOM     14  C   UNL d   1      21.451 -18.354  -0.417  0.00  0.00    -0.046 C 
ATOM     15  C   UNL d   1      21.224 -19.324  -1.361  0.00  0.00     0.112 C 
ATOM     16  N   UNL d   1      19.905 -19.057  -1.259  0.00  0.00    -0.282 NA
ATOM     17  C   UNL d   1      19.587 -19.735  -0.119  0.00  0.00     0.019 C 
ATOM     18  H   UNL d   1      19.452 -18.143  -1.336  0.00  0.00     0.128 HD
ATOM     19  C   UNL d   1      18.377 -20.570  -0.105  0.00  0.00     0.024 C 
ATOM     20  C   UNL d   1      20.669 -19.322   0.846  0.00  0.00    -0.011 C 
ATOM     21  C   UNL d   1      17.810 -21.187   0.953  0.00  0.00     0.002 C 
ATOM     22  C   UNL d   1      18.656 -21.100   1.993  0.00  0.00     0.001 C 
ATOM     23  C   UNL d   1      19.918 -20.205   1.908  0.00  0.00     0.013 C 
ENDBRANCH  13  14
ENDBRANCH   1  13
BRANCH   1  24
ATOM     24  C   UNL d   1      25.616 -17.571  -0.136  0.00  0.00     0.282 C 
ATOM     25  O   UNL d   1      25.703 -18.796  -0.164  0.00  0.00    -0.263 OA
BRANCH  24  26
ATOM     26  O   UNL d   1      26.700 -16.805   0.019  0.00  0.00    -0.310 OA
BRANCH  26  27
ATOM     27  C   UNL d   1      27.922 -17.570   0.130  0.00  0.00     0.281 C 
BRANCH  27  28
ATOM     28  C   UNL d   1      28.724 -17.034  -1.032  0.00  0.00     0.246 C 
ATOM     29  N   UNL d   1      28.060 -16.330  -2.024  0.00  0.00    -0.324 N 
ATOM     30  H   UNL d   1      27.066 -16.496  -2.121  0.00  0.00     0.169 HD
ATOM     31  O   UNL d   1      29.927 -17.286  -1.046  0.00  0.00    -0.271 OA
BRANCH  29  32
ATOM     32  C   UNL d   1      28.717 -15.665  -3.117  0.00  0.00     0.051 C 
ATOM     33  C   UNL d   1      28.228 -15.814  -4.418  0.00  0.00     0.031 C 
ATOM     34  C   UNL d   1      28.870 -15.194  -5.515  0.00  0.00     0.002 C 
ATOM     35  C   UNL d   1      30.057 -14.493  -5.355  0.00  0.00     0.002 C 
ATOM     36  C   UNL d   1      30.592 -14.415  -4.100  0.00  0.00     0.021 C 
ATOM     37  C   UNL d   1      29.829 -14.827  -2.997  0.00  0.00     0.026 C 
BRANCH  37  38
ATOM     38  S   UNL d   1      30.393 -13.900  -1.648  0.00  0.00    -0.132 SA
ATOM     39  C   UNL d   1      32.109 -13.479  -1.844  0.00  0.00     0.095 C 
ENDBRANCH  37  38
ENDBRANCH  29  32
ENDBRANCH  27  28
ENDBRANCH  26  27
ENDBRANCH  24  26
ENDBRANCH   1  24
TORSDOF 10
ENDMDL
MODEL 8
REMARK VINA RESULT:   -30.933      2.573      5.239
REMARK INTER + INTRA:         -37.706
REMARK INTER:                 -33.916
REMARK INTRA:                  -3.790
REMARK CONF_INDEPENDENT:        2.983
REMARK UNBOUND:                -3.790
REMARK  10 active torsions:
REMARK  status: ('A' for Active; 'I' for Inactive)
REMARK    1  A    between atoms: S_2  and  C_3 
REMARK    2  A    between atoms: C_8  and  N_9 
REMARK       I    between atoms: N_9  and  C_10 
REMARK    3  A    between atoms: C_10  and  C_12 
REMARK    4  A    between atoms: C_12  and  O_13 
REMARK    5  A    between atoms: O_13  and  C_14 
REMARK    6  A    between atoms: C_16  and  C_14 
REMARK    7  A    between atoms: C_16  and  N_27 
REMARK    8  A    between atoms: C_16  and  C_17 
REMARK    9  A    between atoms: C_17  and  C_18 
REMARK       I    between atoms: N_27  and  C_28 
REMARK   10  A    between atoms: C_28  and  C_30 
ROOT
ATOM      1  C   UNL d   1      23.774 -16.969  -1.388  0.00  0.00     0.188 C 
ENDROOT
BRANCH   1   2
ATOM      2  N   UNL d   1      25.327 -16.755  -1.178  0.00  0.00    -0.343 N 
ATOM      3  C   UNL d   1      26.137 -17.227  -0.105  0.00  0.00     0.254 C 
ATOM      4  O   UNL d   1      25.732 -17.822   0.890  0.00  0.00    -0.268 OA
ATOM      5  H   UNL d   1      25.762 -16.050  -1.752  0.00  0.00     0.163 HD
BRANCH   3   6
ATOM      6  C   UNL d   1      27.636 -17.011  -0.177  0.00  0.00     0.053 A 
ATOM      7  C   UNL d   1      28.492 -18.084  -0.538  0.00  0.00     0.019 A 
ATOM      8  C   UNL d   1      29.895 -17.950  -0.496  0.00  0.00     0.001 A 
ATOM      9  C   UNL d   1      30.466 -16.732  -0.144  0.00  0.00     0.002 A 
ATOM     10  C   UNL d   1      29.636 -15.675   0.234  0.00  0.00     0.025 A 
ATOM     11  C   UNL d   1      28.234 -15.815   0.230  0.00  0.00     0.049 A 
ATOM     12 CL   UNL d   1      27.306 -14.464   0.768  0.00  0.00    -0.083 Cl
ENDBRANCH   3   6
ENDBRANCH   1   2
BRANCH   1  13
ATOM     13  C   UNL d   1      22.948 -17.773   0.013  0.00  0.00     0.072 C 
BRANCH  13  14
ATOM     14  C   UNL d   1      21.356 -18.619   0.209  0.00  0.00    -0.046 C 
ATOM     15  C   UNL d   1      21.198 -19.252  -0.998  0.00  0.00     0.112 C 
ATOM     16  N   UNL d   1      19.905 -18.869  -0.984  0.00  0.00    -0.282 NA
ATOM     17  C   UNL d   1      19.365 -19.795  -0.140  0.00  0.00     0.019 C 
ATOM     18  H   UNL d   1      19.542 -17.923  -0.845  0.00  0.00     0.128 HD
ATOM     19  C   UNL d   1      18.104 -20.449  -0.520  0.00  0.00     0.024 C 
ATOM     20  C   UNL d   1      20.316 -19.799   1.028  0.00  0.00    -0.011 C 
ATOM     21  C   UNL d   1      17.336 -21.264   0.234  0.00  0.00     0.002 C 
ATOM     22  C   UNL d   1      18.019 -21.572   1.350  0.00  0.00     0.001 C 
ATOM     23  C   UNL d   1      19.346 -20.846   1.685  0.00  0.00     0.013 C 
ENDBRANCH  13  14
ENDBRANCH   1  13
BRANCH   1  24
ATOM     24  C   UNL d   1      23.278 -15.576  -1.823  0.00  0.00     0.282 C 
ATOM     25  O   UNL d   1      22.167 -15.084  -1.645  0.00  0.00    -0.263 OA
BRANCH  24  26
ATOM     26  O   UNL d   1      24.255 -14.879  -2.412  0.00  0.00    -0.310 OA
BRANCH  26  27
ATOM     27  C   UNL d   1      23.788 -14.074  -3.518  0.00  0.00     0.281 C 
BRANCH  27  28
ATOM     28  C   UNL d   1      25.069 -13.829  -4.278  0.00  0.00     0.246 C 
ATOM     29  N   UNL d   1      26.079 -14.775  -4.196  0.00  0.00    -0.324 N 
ATOM     30  H   UNL d   1      26.070 -15.389  -3.390  0.00  0.00     0.169 HD
ATOM     31  O   UNL d   1      25.156 -12.775  -4.906  0.00  0.00    -0.271 OA
BRANCH  29  32
ATOM     32  C   UNL d   1      27.295 -14.724  -4.961  0.00  0.00     0.051 C 
ATOM     33  C   UNL d   1      27.423 -13.801  -6.004  0.00  0.00     0.031 C 
ATOM     34  C   UNL d   1      28.597 -13.748  -6.791  0.00  0.00     0.002 C 
ATOM     35  C   UNL d   1      29.624 -14.665  -6.619  0.00  0.00     0.002 C 
ATOM     36  C   UNL d   1      29.472 -15.627  -5.660  0.00  0.00     0.021 C 
ATOM     37  C   UNL d   1      28.419 -15.523  -4.739  0.00  0.00     0.026 C 
BRANCH  37  38
ATOM     38  S   UNL d   1      28.957 -16.325  -3.301  0.00  0.00    -0.132 SA
ATOM     39  C   UNL d   1      30.233 -17.505  -3.676  0.00  0.00     0.095 C 
ENDBRANCH  37  38
ENDBRANCH  29  32
ENDBRANCH  27  28
ENDBRANCH  26  27
ENDBRANCH  24  26
ENDBRANCH   1  24
TORSDOF 10
ENDMDL
MODEL 9
REMARK VINA RESULT:   -30.732      2.831      5.293
REMARK INTER + INTRA:         -37.571
REMARK INTER:                 -33.715
REMARK INTRA:                  -3.856
REMARK CONF_INDEPENDENT:        2.983
REMARK UNBOUND:                -3.856
REMARK  10 active torsions:
REMARK  status: ('A' for Active; 'I' for Inactive)
REMARK    1  A    between atoms: S_2  and  C_3 
REMARK    2  A    between atoms: C_8  and  N_9 
REMARK       I    between atoms: N_9  and  C_10 
REMARK    3  A    between atoms: C_10  and  C_12 
REMARK    4  A    between atoms: C_12  and  O_13 
REMARK    5  A    between atoms: O_13  and  C_14 
REMARK    6  A    between atoms: C_16  and  C_14 
REMARK    7  A    between atoms: C_16  and  N_27 
REMARK    8  A    between atoms: C_16  and  C_17 
REMARK    9  A    between atoms: C_17  and  C_18 
REMARK       I    between atoms: N_27  and  C_28 
REMARK   10  A    between atoms: C_28  and  C_30 
ROOT
ATOM      1  C   UNL d   1      23.765 -16.984  -1.332  0.00  0.00     0.188 C 
ENDROOT
BRANCH   1   2
ATOM      2  N   UNL d   1      25.318 -16.759  -1.130  0.00  0.00    -0.343 N 
ATOM      3  C   UNL d   1      26.150 -17.283  -0.098  0.00  0.00     0.254 C 
ATOM      4  O   UNL d   1      25.767 -17.943   0.864  0.00  0.00    -0.268 OA
ATOM      5  H   UNL d   1      25.735 -16.014  -1.665  0.00  0.00     0.163 HD
BRANCH   3   6
ATOM      6  C   UNL d   1      27.644 -17.040  -0.177  0.00  0.00     0.053 A 
ATOM      7  C   UNL d   1      28.516 -18.094  -0.554  0.00  0.00     0.019 A 
ATOM      8  C   UNL d   1      29.917 -17.937  -0.519  0.00  0.00     0.001 A 
ATOM      9  C   UNL d   1      30.469 -16.713  -0.157  0.00  0.00     0.002 A 
ATOM     10  C   UNL d   1      29.623 -15.675   0.236  0.00  0.00     0.025 A 
ATOM     11  C   UNL d   1      28.224 -15.838   0.240  0.00  0.00     0.049 A 
ATOM     12 CL   UNL d   1      27.277 -14.510   0.798  0.00  0.00    -0.083 Cl
ENDBRANCH   3   6
ENDBRANCH   1   2
BRANCH   1  13
ATOM     13  C   UNL d   1      22.970 -17.878   0.031  0.00  0.00     0.072 C 
BRANCH  13  14
ATOM     14  C   UNL d   1      21.360 -18.690   0.224  0.00  0.00    -0.046 C 
ATOM     15  C   UNL d   1      21.190 -19.318  -0.984  0.00  0.00     0.112 C 
ATOM     16  N   UNL d   1      19.905 -18.907  -0.972  0.00  0.00    -0.282 NA
ATOM     17  C   UNL d   1      19.345 -19.823  -0.130  0.00  0.00     0.019 C 
ATOM     18  H   UNL d   1      19.562 -17.954  -0.831  0.00  0.00     0.128 HD
ATOM     19  C   UNL d   1      18.071 -20.450  -0.513  0.00  0.00     0.024 C 
ATOM     20  C   UNL d   1      20.295 -19.851   1.039  0.00  0.00    -0.011 C 
ATOM     21  C   UNL d   1      17.285 -21.250   0.238  0.00  0.00     0.002 C 
ATOM     22  C   UNL d   1      17.959 -21.575   1.354  0.00  0.00     0.001 C 
ATOM     23  C   UNL d   1      19.302 -20.878   1.693  0.00  0.00     0.013 C 
ENDBRANCH  13  14
ENDBRANCH   1  13
BRANCH   1  24
ATOM     24  C   UNL d   1      23.244 -15.575  -1.679  0.00  0.00     0.282 C 
ATOM     25  O   UNL d   1      22.086 -15.168  -1.628  0.00  0.00    -0.263 OA
BRANCH  24  26
ATOM     26  O   UNL d   1      24.248 -14.761  -2.020  0.00  0.00    -0.310 OA
BRANCH  26  27
ATOM     27  C   UNL d   1      24.056 -14.135  -3.309  0.00  0.00     0.281 C 
BRANCH  27  28
ATOM     28  C   UNL d   1      25.325 -14.526  -4.029  0.00  0.00     0.246 C 
ATOM     29  N   UNL d   1      26.534 -14.364  -3.372  0.00  0.00    -0.324 N 
ATOM     30  H   UNL d   1      26.561 -13.692  -2.614  0.00  0.00     0.169 HD
ATOM     31  O   UNL d   1      25.210 -14.937  -5.182  0.00  0.00    -0.271 OA
BRANCH  29  32
ATOM     32  C   UNL d   1      27.800 -14.805  -3.894  0.00  0.00     0.051 C 
ATOM     33  C   UNL d   1      28.407 -15.950  -3.369  0.00  0.00     0.031 C 
ATOM     34  C   UNL d   1      29.664 -16.393  -3.845  0.00  0.00     0.002 C 
ATOM     35  C   UNL d   1      30.380 -15.660  -4.781  0.00  0.00     0.002 C 
ATOM     36  C   UNL d   1      29.835 -14.492  -5.236  0.00  0.00     0.021 C 
ATOM     37  C   UNL d   1      28.498 -14.192  -4.937  0.00  0.00     0.026 C 
BRANCH  37  38
ATOM     38  S   UNL d   1      27.928 -13.191  -6.231  0.00  0.00    -0.132 SA
ATOM     39  C   UNL d   1      29.213 -12.916  -7.428  0.00  0.00     0.095 C 
ENDBRANCH  37  38
ENDBRANCH  29  32
ENDBRANCH  27  28
ENDBRANCH  26  27
ENDBRANCH  24  26
ENDBRANCH   1  24
TORSDOF 10
ENDMDL
