MODEL 1
REMARK VINA RESULT:   -23.677      0.000      0.000
REMARK INTER + INTRA:         -26.887
REMARK INTER:                 -26.063
REMARK INTRA:                  -0.824
REMARK CONF_INDEPENDENT:        2.386
REMARK UNBOUND:                -0.824
REMARK  8 active torsions:
REMARK  status: ('A' for Active; 'I' for Inactive)
REMARK       I    between atoms: C_2  and  N_3 
REMARK    1  A    between atoms: C_2  and  C_13 
REMARK    2  A    between atoms: N_3  and  N_4 
REMARK    3  A    between atoms: C_5  and  C_6 
REMARK    4  A    between atoms: C_11  and  O_12 
REMARK    5  A    between atoms: C_15  and  C_16 
REMARK    6  A    between atoms: C_19  and  O_20 
REMARK    7  A    between atoms: O_20  and  C_21 
REMARK    8  A    between atoms: C_21  and  C_22 
ROOT
ATOM      1  C   UNL d   1      23.149 -16.924  -1.560  0.00  0.00     0.121 A 
ATOM      2  C   UNL d   1      24.458 -17.196  -1.923  0.00  0.00     0.071 A 
ATOM      3  C   UNL d   1      25.049 -15.967  -2.305  0.00  0.00     0.089 A 
ATOM      4  N   UNL d   1      24.172 -14.965  -2.142  0.00  0.00    -0.174 NA
ATOM      5  N   UNL d   1      23.051 -15.564  -1.680  0.00  0.00    -0.272 N 
ATOM      6  H   UNL d   1      22.275 -14.964  -1.421  0.00  0.00     0.189 HD
ENDROOT
BRANCH   3   7
ATOM      7  C   UNL d   1      26.404 -15.778  -2.826  0.00  0.00    -0.005 A 
ATOM      8  C   UNL d   1      27.504 -16.189  -2.061  0.00  0.00     0.016 A 
ATOM      9  C   UNL d   1      28.813 -16.001  -2.519  0.00  0.00     0.037 A 
ATOM     10  C   UNL d   1      29.045 -15.388  -3.750  0.00  0.00     0.069 A 
ATOM     11  C   UNL d   1      27.954 -14.961  -4.511  0.00  0.00     0.037 A 
ATOM     12  C   UNL d   1      26.640 -15.157  -4.058  0.00  0.00     0.016 A 
BRANCH  10  13
ATOM     13  O   UNL d   1      30.274 -15.154  -4.301  0.00  0.00    -0.347 OA
BRANCH  13  14
ATOM     14  C   UNL d   1      31.340 -16.024  -3.896  0.00  0.00     0.216 C 
BRANCH  14  15
ATOM     15  C   UNL d   1      31.036 -17.409  -4.411  0.00  0.00    -0.012 A 
ATOM     16  C   UNL d   1      31.164 -18.497  -3.526  0.00  0.00     0.011 A 
ATOM     17  C   UNL d   1      31.013 -19.808  -3.978  0.00  0.00     0.001 A 
ATOM     18  C   UNL d   1      30.661 -20.050  -5.301  0.00  0.00     0.002 A 
ATOM     19  C   UNL d   1      30.480 -18.982  -6.179  0.00  0.00     0.024 A 
ATOM     20  C   UNL d   1      30.667 -17.668  -5.740  0.00  0.00     0.042 A 
ATOM     21 CL   UNL d   1      30.413 -16.408  -6.896  0.00  0.00    -0.084 Cl
ENDBRANCH  14  15
ENDBRANCH  13  14
ENDBRANCH  10  13
ENDBRANCH   3   7
BRANCH   1  22
ATOM     22  C   UNL d   1      22.179 -17.865  -1.035  0.00  0.00     0.289 C 
ATOM     23  O   UNL d   1      22.568 -18.867  -0.424  0.00  0.00    -0.264 OA
ATOM     24  N   UNL d   1      20.827 -17.631  -1.307  0.00  0.00    -0.242 N 
ATOM     25  H   UNL d   1      20.523 -16.872  -1.904  0.00  0.00     0.192 HD
BRANCH  24  26
ATOM     26  N   UNL d   1      19.905 -18.575  -0.895  0.00  0.00    -0.183 NA
ATOM     27  C   UNL d   1      20.171 -19.307   0.142  0.00  0.00     0.153 C 
BRANCH  27  28
ATOM     28  C   UNL d   1      19.239 -20.361   0.641  0.00  0.00     0.016 A 
ATOM     29  C   UNL d   1      18.205 -20.801  -0.200  0.00  0.00     0.016 A 
ATOM     30  C   UNL d   1      17.286 -21.762   0.246  0.00  0.00     0.001 A 
ATOM     31  C   UNL d   1      17.383 -22.275   1.539  0.00  0.00     0.003 A 
ATOM     32  C   UNL d   1      18.405 -21.840   2.386  0.00  0.00     0.037 A 
ATOM     33  C   UNL d   1      19.328 -20.887   1.937  0.00  0.00     0.077 A 
BRANCH  33  34
ATOM     34  O   UNL d   1      20.278 -20.420   2.798  0.00  0.00    -0.360 OA
ATOM     35  H   UNL d   1      20.970 -19.949   2.310  0.00  0.00     0.217 HD
ENDBRANCH  33  34
ENDBRANCH  27  28
ENDBRANCH  24  26
ENDBRANCH   1  22
TORSDOF 8
ENDMDL
MODEL 2
REMARK VINA RESULT:   -23.186      1.136      1.451
REMARK INTER + INTRA:         -26.306
REMARK INTER:                 -25.572
REMARK INTRA:                  -0.734
REMARK CONF_INDEPENDENT:        2.386
REMARK UNBOUND:                -0.734
REMARK  8 active torsions:
REMARK  status: ('A' for Active; 'I' for Inactive)
REMARK       I    between atoms: C_2  and  N_3 
REMARK    1  A    between atoms: C_2  and  C_13 
REMARK    2  A    between atoms: N_3  and  N_4 
REMARK    3  A    between atoms: C_5  and  C_6 
REMARK    4  A    between atoms: C_11  and  O_12 
REMARK    5  A    between atoms: C_15  and  C_16 
REMARK    6  A    between atoms: C_19  and  O_20 
REMARK    7  A    between atoms: O_20  and  C_21 
REMARK    8  A    between atoms: C_21  and  C_22 
ROOT
ATOM      1  C   UNL d   1      23.156 -16.858  -1.333  0.00  0.00     0.121 A 
ATOM      2  C   UNL d   1      24.520 -17.075  -1.429  0.00  0.00     0.071 A 
ATOM      3  C   UNL d   1      25.105 -15.866  -1.877  0.00  0.00     0.089 A 
ATOM      4  N   UNL d   1      24.162 -14.921  -2.009  0.00  0.00    -0.174 NA
ATOM      5  N   UNL d   1      23.010 -15.537  -1.661  0.00  0.00    -0.272 N 
ATOM      6  H   UNL d   1      22.170 -14.969  -1.624  0.00  0.00     0.189 HD
ENDROOT
BRANCH   3   7
ATOM      7  C   UNL d   1      26.519 -15.645  -2.186  0.00  0.00    -0.005 A 
ATOM      8  C   UNL d   1      27.493 -16.463  -1.596  0.00  0.00     0.016 A 
ATOM      9  C   UNL d   1      28.855 -16.263  -1.851  0.00  0.00     0.037 A 
ATOM     10  C   UNL d   1      29.268 -15.232  -2.694  0.00  0.00     0.069 A 
ATOM     11  C   UNL d   1      28.304 -14.402  -3.273  0.00  0.00     0.037 A 
ATOM     12  C   UNL d   1      26.937 -14.608  -3.027  0.00  0.00     0.016 A 
BRANCH  10  13
ATOM     13  O   UNL d   1      30.564 -14.943  -3.018  0.00  0.00    -0.347 OA
BRANCH  13  14
ATOM     14  C   UNL d   1      31.491 -16.037  -3.011  0.00  0.00     0.216 C 
BRANCH  14  15
ATOM     15  C   UNL d   1      31.185 -16.919  -4.195  0.00  0.00    -0.012 A 
ATOM     16  C   UNL d   1      30.978 -16.313  -5.449  0.00  0.00     0.011 A 
ATOM     17  C   UNL d   1      30.574 -17.066  -6.552  0.00  0.00     0.001 A 
ATOM     18  C   UNL d   1      30.442 -18.446  -6.438  0.00  0.00     0.002 A 
ATOM     19  C   UNL d   1      30.693 -19.070  -5.217  0.00  0.00     0.024 A 
ATOM     20  C   UNL d   1      31.061 -18.314  -4.100  0.00  0.00     0.042 A 
ATOM     21 CL   UNL d   1      31.359 -19.175  -2.631  0.00  0.00    -0.084 Cl
ENDBRANCH  14  15
ENDBRANCH  13  14
ENDBRANCH  10  13
ENDBRANCH   3   7
BRANCH   1  22
ATOM     22  C   UNL d   1      22.159 -17.793  -0.849  0.00  0.00     0.289 C 
ATOM     23  O   UNL d   1      22.503 -18.731  -0.120  0.00  0.00    -0.264 OA
ATOM     24  N   UNL d   1      20.841 -17.630  -1.291  0.00  0.00    -0.242 N 
ATOM     25  H   UNL d   1      20.587 -16.931  -1.977  0.00  0.00     0.192 HD
BRANCH  24  26
ATOM     26  N   UNL d   1      19.905 -18.575  -0.913  0.00  0.00    -0.183 NA
ATOM     27  C   UNL d   1      20.156 -19.341   0.101  0.00  0.00     0.153 C 
BRANCH  27  28
ATOM     28  C   UNL d   1      19.207 -20.398   0.563  0.00  0.00     0.016 A 
ATOM     29  C   UNL d   1      18.143 -20.763  -0.276  0.00  0.00     0.016 A 
ATOM     30  C   UNL d   1      17.208 -21.724   0.138  0.00  0.00     0.001 A 
ATOM     31  C   UNL d   1      17.322 -22.313   1.397  0.00  0.00     0.003 A 
ATOM     32  C   UNL d   1      18.375 -21.953   2.241  0.00  0.00     0.037 A 
ATOM     33  C   UNL d   1      19.312 -21.000   1.824  0.00  0.00     0.077 A 
BRANCH  33  34
ATOM     34  O   UNL d   1      20.294 -20.608   2.687  0.00  0.00    -0.360 OA
ATOM     35  H   UNL d   1      21.124 -21.063   2.479  0.00  0.00     0.217 HD
ENDBRANCH  33  34
ENDBRANCH  27  28
ENDBRANCH  24  26
ENDBRANCH   1  22
TORSDOF 8
ENDMDL
MODEL 3
REMARK VINA RESULT:   -23.152      1.635      2.054
REMARK INTER + INTRA:         -26.105
REMARK INTER:                 -25.538
REMARK INTRA:                  -0.567
REMARK CONF_INDEPENDENT:        2.386
REMARK UNBOUND:                -0.567
REMARK  8 active torsions:
REMARK  status: ('A' for Active; 'I' for Inactive)
REMARK       I    between atoms: C_2  and  N_3 
REMARK    1  A    between atoms: C_2  and  C_13 
REMARK    2  A    between atoms: N_3  and  N_4 
REMARK    3  A    between atoms: C_5  and  C_6 
REMARK    4  A    between atoms: C_11  and  O_12 
REMARK    5  A    between atoms: C_15  and  C_16 
REMARK    6  A    between atoms: C_19  and  O_20 
REMARK    7  A    between atoms: O_20  and  C_21 
REMARK    8  A    between atoms: C_21  and  C_22 
ROOT
ATOM      1  C   UNL d   1      23.134 -16.861  -1.469  0.00  0.00     0.121 A 
ATOM      2  C   UNL d   1      24.460 -17.130  -1.763  0.00  0.00     0.071 A 
ATOM      3  C   UNL d   1      25.048 -15.915  -2.191  0.00  0.00     0.089 A 
ATOM      4  N   UNL d   1      24.150 -14.921  -2.123  0.00  0.00    -0.174 NA
ATOM      5  N   UNL d   1      23.020 -15.512  -1.672  0.00  0.00    -0.272 N 
ATOM      6  H   UNL d   1      22.225 -14.911  -1.481  0.00  0.00     0.189 HD
ENDROOT
BRANCH   3   7
ATOM      7  C   UNL d   1      26.421 -15.733  -2.667  0.00  0.00    -0.005 A 
ATOM      8  C   UNL d   1      27.491 -16.199  -1.891  0.00  0.00     0.016 A 
ATOM      9  C   UNL d   1      28.816 -16.019  -2.306  0.00  0.00     0.037 A 
ATOM     10  C   UNL d   1      29.094 -15.360  -3.502  0.00  0.00     0.069 A 
ATOM     11  C   UNL d   1      28.032 -14.878  -4.274  0.00  0.00     0.037 A 
ATOM     12  C   UNL d   1      26.703 -15.066  -3.865  0.00  0.00     0.016 A 
BRANCH  10  13
ATOM     13  O   UNL d   1      30.342 -15.129  -4.010  0.00  0.00    -0.347 OA
BRANCH  13  14
ATOM     14  C   UNL d   1      30.438 -14.177  -5.078  0.00  0.00     0.216 C 
BRANCH  14  15
ATOM     15  C   UNL d   1      31.069 -14.863  -6.264  0.00  0.00    -0.012 A 
ATOM     16  C   UNL d   1      30.906 -16.255  -6.399  0.00  0.00     0.011 A 
ATOM     17  C   UNL d   1      31.567 -16.960  -7.406  0.00  0.00     0.001 A 
ATOM     18  C   UNL d   1      32.339 -16.276  -8.338  0.00  0.00     0.002 A 
ATOM     19  C   UNL d   1      32.470 -14.891  -8.250  0.00  0.00     0.024 A 
ATOM     20  C   UNL d   1      31.842 -14.186  -7.220  0.00  0.00     0.042 A 
ATOM     21 CL   UNL d   1      32.054 -12.470  -7.196  0.00  0.00    -0.084 Cl
ENDBRANCH  14  15
ENDBRANCH  13  14
ENDBRANCH  10  13
ENDBRANCH   3   7
BRANCH   1  22
ATOM     22  C   UNL d   1      22.157 -17.786  -0.929  0.00  0.00     0.289 C 
ATOM     23  O   UNL d   1      22.530 -18.707  -0.193  0.00  0.00    -0.264 OA
ATOM     24  N   UNL d   1      20.824 -17.637  -1.328  0.00  0.00    -0.242 N 
ATOM     25  H   UNL d   1      20.544 -16.954  -2.020  0.00  0.00     0.192 HD
BRANCH  24  26
ATOM     26  N   UNL d   1      19.905 -18.575  -0.896  0.00  0.00    -0.183 NA
ATOM     27  C   UNL d   1      20.150 -19.248   0.185  0.00  0.00     0.153 C 
BRANCH  27  28
ATOM     28  C   UNL d   1      19.219 -20.291   0.709  0.00  0.00     0.016 A 
ATOM     29  C   UNL d   1      18.168 -20.731  -0.111  0.00  0.00     0.016 A 
ATOM     30  C   UNL d   1      17.250 -21.682   0.359  0.00  0.00     0.001 A 
ATOM     31  C   UNL d   1      17.366 -22.185   1.655  0.00  0.00     0.003 A 
ATOM     32  C   UNL d   1      18.405 -21.750   2.480  0.00  0.00     0.037 A 
ATOM     33  C   UNL d   1      19.326 -20.807   2.007  0.00  0.00     0.077 A 
BRANCH  33  34
ATOM     34  O   UNL d   1      20.294 -20.339   2.848  0.00  0.00    -0.360 OA
ATOM     35  H   UNL d   1      21.170 -20.611   2.535  0.00  0.00     0.217 HD
ENDBRANCH  33  34
ENDBRANCH  27  28
ENDBRANCH  24  26
ENDBRANCH   1  22
TORSDOF 8
ENDMDL
MODEL 4
REMARK VINA RESULT:   -21.487      4.073      5.657
REMARK INTER + INTRA:         -24.221
REMARK INTER:                 -23.873
REMARK INTRA:                  -0.348
REMARK CONF_INDEPENDENT:        2.386
REMARK UNBOUND:                -0.348
REMARK  8 active torsions:
REMARK  status: ('A' for Active; 'I' for Inactive)
REMARK       I    between atoms: C_2  and  N_3 
REMARK    1  A    between atoms: C_2  and  C_13 
REMARK    2  A    between atoms: N_3  and  N_4 
REMARK    3  A    between atoms: C_5  and  C_6 
REMARK    4  A    between atoms: C_11  and  O_12 
REMARK    5  A    between atoms: C_15  and  C_16 
REMARK    6  A    between atoms: C_19  and  O_20 
REMARK    7  A    between atoms: O_20  and  C_21 
REMARK    8  A    between atoms: C_21  and  C_22 
ROOT
ATOM      1  C   UNL d   1      23.316 -17.297  -1.519  0.00  0.00     0.121 A 
ATOM      2  C   UNL d   1      23.628 -15.968  -1.288  0.00  0.00     0.071 A 
ATOM      3  C   UNL d   1      24.711 -15.638  -2.140  0.00  0.00     0.089 A 
ATOM      4  N   UNL d   1      25.031 -16.693  -2.904  0.00  0.00    -0.174 NA
ATOM      5  N   UNL d   1      24.170 -17.664  -2.524  0.00  0.00    -0.272 N 
ATOM      6  H   UNL d   1      24.198 -18.539  -3.037  0.00  0.00     0.189 HD
ENDROOT
BRANCH   3   7
ATOM      7  C   UNL d   1      25.418 -14.357  -2.193  0.00  0.00    -0.005 A 
ATOM      8  C   UNL d   1      26.280 -13.999  -1.148  0.00  0.00     0.016 A 
ATOM      9  C   UNL d   1      26.953 -12.771  -1.156  0.00  0.00     0.037 A 
ATOM     10  C   UNL d   1      26.766 -11.875  -2.208  0.00  0.00     0.069 A 
ATOM     11  C   UNL d   1      25.895 -12.219  -3.246  0.00  0.00     0.037 A 
ATOM     12  C   UNL d   1      25.228 -13.454  -3.244  0.00  0.00     0.016 A 
BRANCH  10  13
ATOM     13  O   UNL d   1      27.368 -10.653  -2.327  0.00  0.00    -0.347 OA
BRANCH  13  14
ATOM     14  C   UNL d   1      27.735 -10.240  -3.650  0.00  0.00     0.216 C 
BRANCH  14  15
ATOM     15  C   UNL d   1      26.606  -9.413  -4.213  0.00  0.00    -0.012 A 
ATOM     16  C   UNL d   1      26.257  -8.217  -3.556  0.00  0.00     0.011 A 
ATOM     17  C   UNL d   1      25.146  -7.475  -3.960  0.00  0.00     0.001 A 
ATOM     18  C   UNL d   1      24.412  -7.875  -5.071  0.00  0.00     0.002 A 
ATOM     19  C   UNL d   1      24.774  -9.029  -5.765  0.00  0.00     0.024 A 
ATOM     20  C   UNL d   1      25.863  -9.796  -5.340  0.00  0.00     0.042 A 
ATOM     21 CL   UNL d   1      26.241 -11.206  -6.267  0.00  0.00    -0.084 Cl
ENDBRANCH  14  15
ENDBRANCH  13  14
ENDBRANCH  10  13
ENDBRANCH   3   7
BRANCH   1  22
ATOM     22  C   UNL d   1      22.231 -18.051  -0.924  0.00  0.00     0.289 C 
ATOM     23  O   UNL d   1      22.480 -18.924  -0.084  0.00  0.00    -0.264 OA
ATOM     24  N   UNL d   1      20.933 -17.803  -1.385  0.00  0.00    -0.242 N 
ATOM     25  H   UNL d   1      20.747 -17.171  -2.153  0.00  0.00     0.192 HD
BRANCH  24  26
ATOM     26  N   UNL d   1      19.905 -18.588  -0.895  0.00  0.00    -0.183 NA
ATOM     27  C   UNL d   1      20.125 -19.346   0.133  0.00  0.00     0.153 C 
BRANCH  27  28
ATOM     28  C   UNL d   1      19.076 -20.236   0.713  0.00  0.00     0.016 A 
ATOM     29  C   UNL d   1      18.966 -21.551   0.234  0.00  0.00     0.016 A 
ATOM     30  C   UNL d   1      17.969 -22.406   0.727  0.00  0.00     0.001 A 
ATOM     31  C   UNL d   1      17.067 -21.949   1.686  0.00  0.00     0.003 A 
ATOM     32  C   UNL d   1      17.164 -20.640   2.165  0.00  0.00     0.037 A 
ATOM     33  C   UNL d   1      18.165 -19.790   1.680  0.00  0.00     0.077 A 
BRANCH  33  34
ATOM     34  O   UNL d   1      18.205 -18.494   2.105  0.00  0.00    -0.360 OA
ATOM     35  H   UNL d   1      19.107 -18.146   2.039  0.00  0.00     0.217 HD
ENDBRANCH  33  34
ENDBRANCH  27  28
ENDBRANCH  24  26
ENDBRANCH   1  22
TORSDOF 8
ENDMDL
MODEL 5
REMARK VINA RESULT:   -21.104      4.539      6.340
REMARK INTER + INTRA:         -23.952
REMARK INTER:                 -23.490
REMARK INTRA:                  -0.462
REMARK CONF_INDEPENDENT:        2.386
REMARK UNBOUND:                -0.462
REMARK  8 active torsions:
REMARK  status: ('A' for Active; 'I' for Inactive)
REMARK       I    between atoms: C_2  and  N_3 
REMARK    1  A    between atoms: C_2  and  C_13 
REMARK    2  A    between atoms: N_3  and  N_4 
REMARK    3  A    between atoms: C_5  and  C_6 
REMARK    4  A    between atoms: C_11  and  O_12 
REMARK    5  A    between atoms: C_15  and  C_16 
REMARK    6  A    between atoms: C_19  and  O_20 
REMARK    7  A    between atoms: O_20  and  C_21 
REMARK    8  A    between atoms: C_21  and  C_22 
ROOT
ATOM      1  C   UNL d   1      23.360 -17.340  -1.566  0.00  0.00     0.121 A 
ATOM      2  C   UNL d   1      23.642 -16.008  -1.315  0.00  0.00     0.071 A 
ATOM      3  C   UNL d   1      24.777 -15.667  -2.090  0.00  0.00     0.089 A 
ATOM      4  N   UNL d   1      25.160 -16.718  -2.829  0.00  0.00    -0.174 NA
ATOM      5  N   UNL d   1      24.285 -17.699  -2.509  0.00  0.00    -0.272 N 
ATOM      6  H   UNL d   1      24.358 -18.573  -3.019  0.00  0.00     0.189 HD
ENDROOT
BRANCH   3   7
ATOM      7  C   UNL d   1      25.473 -14.379  -2.094  0.00  0.00    -0.005 A 
ATOM      8  C   UNL d   1      25.247 -13.474  -3.141  0.00  0.00     0.016 A 
ATOM      9  C   UNL d   1      25.914 -12.244  -3.188  0.00  0.00     0.037 A 
ATOM     10  C   UNL d   1      26.828 -11.902  -2.192  0.00  0.00     0.069 A 
ATOM     11  C   UNL d   1      27.070 -12.807  -1.154  0.00  0.00     0.037 A 
ATOM     12  C   UNL d   1      26.395 -14.036  -1.100  0.00  0.00     0.016 A 
BRANCH  10  13
ATOM     13  O   UNL d   1      27.535 -10.734  -2.130  0.00  0.00    -0.347 OA
BRANCH  13  14
ATOM     14  C   UNL d   1      28.098 -10.387  -0.857  0.00  0.00     0.216 C 
BRANCH  14  15
ATOM     15  C   UNL d   1      27.240  -9.308  -0.244  0.00  0.00    -0.012 A 
ATOM     16  C   UNL d   1      27.033  -8.120  -0.970  0.00  0.00     0.011 A 
ATOM     17  C   UNL d   1      26.351  -7.043  -0.403  0.00  0.00     0.001 A 
ATOM     18  C   UNL d   1      25.801  -7.162   0.868  0.00  0.00     0.002 A 
ATOM     19  C   UNL d   1      25.952  -8.350   1.582  0.00  0.00     0.024 A 
ATOM     20  C   UNL d   1      26.668  -9.418   1.033  0.00  0.00     0.042 A 
ATOM     21 CL   UNL d   1      26.796 -10.853   1.988  0.00  0.00    -0.084 Cl
ENDBRANCH  14  15
ENDBRANCH  13  14
ENDBRANCH  10  13
ENDBRANCH   3   7
BRANCH   1  22
ATOM     22  C   UNL d   1      22.244 -18.106  -1.047  0.00  0.00     0.289 C 
ATOM     23  O   UNL d   1      22.455 -19.048  -0.274  0.00  0.00    -0.264 OA
ATOM     24  N   UNL d   1      20.961 -17.785  -1.507  0.00  0.00    -0.242 N 
ATOM     25  H   UNL d   1      20.807 -17.090  -2.226  0.00  0.00     0.192 HD
BRANCH  24  26
ATOM     26  N   UNL d   1      19.904 -18.575  -1.094  0.00  0.00    -0.183 NA
ATOM     27  C   UNL d   1      20.095 -19.442  -0.150  0.00  0.00     0.153 C 
BRANCH  27  28
ATOM     28  C   UNL d   1      19.012 -20.345   0.342  0.00  0.00     0.016 A 
ATOM     29  C   UNL d   1      17.990 -20.719  -0.545  0.00  0.00     0.016 A 
ATOM     30  C   UNL d   1      16.935 -21.534  -0.111  0.00  0.00     0.001 A 
ATOM     31  C   UNL d   1      16.885 -21.968   1.214  0.00  0.00     0.003 A 
ATOM     32  C   UNL d   1      17.895 -21.598   2.105  0.00  0.00     0.037 A 
ATOM     33  C   UNL d   1      18.953 -20.791   1.669  0.00  0.00     0.077 A 
BRANCH  33  34
ATOM     34  O   UNL d   1      19.894 -20.380   2.568  0.00  0.00    -0.360 OA
ATOM     35  H   UNL d   1      20.777 -20.421   2.170  0.00  0.00     0.217 HD
ENDBRANCH  33  34
ENDBRANCH  27  28
ENDBRANCH  24  26
ENDBRANCH   1  22
TORSDOF 8
ENDMDL
MODEL 6
REMARK VINA RESULT:   -20.871      3.020      3.855
REMARK INTER + INTRA:         -23.990
REMARK INTER:                 -23.258
REMARK INTRA:                  -0.732
REMARK CONF_INDEPENDENT:        2.386
REMARK UNBOUND:                -0.732
REMARK  8 active torsions:
REMARK  status: ('A' for Active; 'I' for Inactive)
REMARK       I    between atoms: C_2  and  N_3 
REMARK    1  A    between atoms: C_2  and  C_13 
REMARK    2  A    between atoms: N_3  and  N_4 
REMARK    3  A    between atoms: C_5  and  C_6 
REMARK    4  A    between atoms: C_11  and  O_12 
REMARK    5  A    between atoms: C_15  and  C_16 
REMARK    6  A    between atoms: C_19  and  O_20 
REMARK    7  A    between atoms: O_20  and  C_21 
REMARK    8  A    between atoms: C_21  and  C_22 
ROOT
ATOM      1  C   UNL d   1      23.310 -17.295  -1.573  0.00  0.00     0.121 A 
ATOM      2  C   UNL d   1      23.516 -15.929  -1.479  0.00  0.00     0.071 A 
ATOM      3  C   UNL d   1      24.637 -15.619  -2.287  0.00  0.00     0.089 A 
ATOM      4  N   UNL d   1      25.083 -16.727  -2.898  0.00  0.00    -0.174 NA
ATOM      5  N   UNL d   1      24.260 -17.710  -2.466  0.00  0.00    -0.272 N 
ATOM      6  H   UNL d   1      24.384 -18.632  -2.871  0.00  0.00     0.189 HD
ENDROOT
BRANCH   3   7
ATOM      7  C   UNL d   1      25.261 -14.304  -2.442  0.00  0.00    -0.005 A 
ATOM      8  C   UNL d   1      24.928 -13.505  -3.544  0.00  0.00     0.016 A 
ATOM      9  C   UNL d   1      25.525 -12.253  -3.734  0.00  0.00     0.037 A 
ATOM     10  C   UNL d   1      26.475 -11.782  -2.828  0.00  0.00     0.069 A 
ATOM     11  C   UNL d   1      26.823 -12.581  -1.735  0.00  0.00     0.037 A 
ATOM     12  C   UNL d   1      26.219 -13.832  -1.537  0.00  0.00     0.016 A 
BRANCH  10  13
ATOM     13  O   UNL d   1      27.121 -10.580  -2.907  0.00  0.00    -0.347 OA
BRANCH  13  14
ATOM     14  C   UNL d   1      28.506 -10.614  -3.276  0.00  0.00     0.216 C 
BRANCH  14  15
ATOM     15  C   UNL d   1      28.714 -11.784  -4.206  0.00  0.00    -0.012 A 
ATOM     16  C   UNL d   1      27.982 -11.824  -5.408  0.00  0.00     0.011 A 
ATOM     17  C   UNL d   1      28.043 -12.938  -6.247  0.00  0.00     0.001 A 
ATOM     18  C   UNL d   1      28.892 -13.994  -5.937  0.00  0.00     0.002 A 
ATOM     19  C   UNL d   1      29.664 -13.948  -4.776  0.00  0.00     0.024 A 
ATOM     20  C   UNL d   1      29.576 -12.852  -3.913  0.00  0.00     0.042 A 
ATOM     21 CL   UNL d   1      30.575 -12.879  -2.502  0.00  0.00    -0.084 Cl
ENDBRANCH  14  15
ENDBRANCH  13  14
ENDBRANCH  10  13
ENDBRANCH   3   7
BRANCH   1  22
ATOM     22  C   UNL d   1      22.233 -18.056  -0.969  0.00  0.00     0.289 C 
ATOM     23  O   UNL d   1      22.496 -18.950  -0.156  0.00  0.00    -0.264 OA
ATOM     24  N   UNL d   1      20.926 -17.788  -1.393  0.00  0.00    -0.242 N 
ATOM     25  H   UNL d   1      20.727 -17.136  -2.141  0.00  0.00     0.192 HD
BRANCH  24  26
ATOM     26  N   UNL d   1      19.905 -18.576  -0.896  0.00  0.00    -0.183 NA
ATOM     27  C   UNL d   1      20.132 -19.327   0.136  0.00  0.00     0.153 C 
BRANCH  27  28
ATOM     28  C   UNL d   1      19.090 -20.221   0.723  0.00  0.00     0.016 A 
ATOM     29  C   UNL d   1      18.991 -21.540   0.255  0.00  0.00     0.016 A 
ATOM     30  C   UNL d   1      18.000 -22.399   0.755  0.00  0.00     0.001 A 
ATOM     31  C   UNL d   1      17.094 -21.941   1.710  0.00  0.00     0.003 A 
ATOM     32  C   UNL d   1      17.182 -20.628   2.179  0.00  0.00     0.037 A 
ATOM     33  C   UNL d   1      18.176 -19.774   1.687  0.00  0.00     0.077 A 
BRANCH  33  34
ATOM     34  O   UNL d   1      18.205 -18.474   2.102  0.00  0.00    -0.360 OA
ATOM     35  H   UNL d   1      18.673 -17.926   1.455  0.00  0.00     0.217 HD
ENDBRANCH  33  34
ENDBRANCH  27  28
ENDBRANCH  24  26
ENDBRANCH   1  22
TORSDOF 8
ENDMDL
