MODEL 1
REMARK VINA RESULT:    -9.486      0.000      0.000
REMARK INTER + INTRA:         -12.707
REMARK INTER:                 -11.872
REMARK INTRA:                  -0.835
REMARK CONF_INDEPENDENT:        2.386
REMARK UNBOUND:                -0.835
REMARK  8 active torsions:
REMARK  status: ('A' for Active; 'I' for Inactive)
REMARK    1  A    between atoms: C_2  and  N_3 
REMARK       I    between atoms: N_3  and  C_4 
REMARK    2  A    between atoms: C_4  and  C_6 
REMARK    3  A    between atoms: C_9  and  N_10 
REMARK       I    between atoms: N_10  and  C_11 
REMARK       I    between atoms: C_11  and  N_13 
REMARK    4  A    between atoms: N_13  and  C_14 
REMARK    5  A    between atoms: C_14  and  C_15 
REMARK    6  A    between atoms: C_15  and  N_16 
REMARK    7  A    between atoms: N_16  and  C_17 
REMARK    8  A    between atoms: C_20  and  N_21 
ROOT
ATOM      1  N   UNL d   1      25.411 -16.276  -0.680  0.00  0.00    -0.309 N 
ATOM      2  C   UNL d   1      26.624 -16.596  -0.083  0.00  0.00     0.320 C 
ATOM      3  O   UNL d   1      26.879 -17.643   0.508  0.00  0.00    -0.247 OA
ATOM      4  N   UNL d   1      27.614 -15.640  -0.167  0.00  0.00    -0.341 N 
ATOM      5  H   UNL d   1      25.307 -15.362  -1.101  0.00  0.00     0.170 HD
ATOM      6  H   UNL d   1      27.459 -14.753  -0.619  0.00  0.00     0.164 HD
ENDROOT
BRANCH   1   7
ATOM      7  C   UNL d   1      24.243 -17.116  -0.645  0.00  0.00     0.036 A 
ATOM      8  C   UNL d   1      24.342 -18.503  -0.443  0.00  0.00     0.030 A 
ATOM      9  C   UNL d   1      23.190 -19.331  -0.520  0.00  0.00     0.019 A 
ATOM     10  C   UNL d   1      21.918 -18.780  -0.741  0.00  0.00     0.032 A 
ATOM     11  C   UNL d   1      21.812 -17.406  -0.895  0.00  0.00     0.019 A 
ATOM     12  C   UNL d   1      22.955 -16.601  -0.837  0.00  0.00     0.030 A 
BRANCH  10  13
ATOM     13  C   UNL d   1      20.684 -19.614  -0.661  0.00  0.00     0.251 C 
ATOM     14  N   UNL d   1      20.434 -20.276   0.527  0.00  0.00    -0.357 N 
ATOM     15  H   UNL d   1      21.031 -20.113   1.330  0.00  0.00     0.162 HD
ATOM     16  O   UNL d   1      19.949 -19.699  -1.648  0.00  0.00    -0.268 OA
BRANCH  14  17
ATOM     17  C   UNL d   1      19.266 -21.128   0.683  0.00  0.00     0.118 C 
ATOM     18  C   UNL d   1      18.323 -20.640   1.769  0.00  0.00     0.026 C 
ENDBRANCH  14  17
ENDBRANCH  10  13
ENDBRANCH   1   7
BRANCH   4  19
ATOM     19  C   UNL d   1      28.927 -15.954   0.429  0.00  0.00     0.144 C 
BRANCH  19  20
ATOM     20  C   UNL d   1      29.581 -14.800   1.201  0.00  0.00     0.139 C 
BRANCH  20  21
ATOM     21  N   UNL d   1      28.849 -14.437   2.415  0.00  0.00    -0.388 N 
ATOM     22  H   UNL d   1      28.644 -15.158   3.102  0.00  0.00     0.159 HD
BRANCH  21  23
ATOM     23  C   UNL d   1      28.112 -13.266   2.519  0.00  0.00     0.028 A 
ATOM     24  C   UNL d   1      28.380 -12.381   3.575  0.00  0.00     0.031 A 
ATOM     25  C   UNL d   1      27.660 -11.188   3.736  0.00  0.00     0.038 A 
ATOM     26  C   UNL d   1      26.694 -10.837   2.789  0.00  0.00     0.103 A 
ATOM     27  C   UNL d   1      26.407 -11.701   1.730  0.00  0.00     0.038 A 
ATOM     28  C   UNL d   1      27.121 -12.900   1.600  0.00  0.00     0.031 A 
BRANCH  26  29
ATOM     29  N   UNL d   1      26.024  -9.532   2.870  0.00  0.00    -0.116 N 
ATOM     30  O   UNL d   1      26.655  -8.588   3.365  0.00  0.00    -0.532 OA
ATOM     31  O   UNL d   1      24.874  -9.446   2.414  0.00  0.00    -0.532 OA
ENDBRANCH  26  29
ENDBRANCH  21  23
ENDBRANCH  20  21
ENDBRANCH  19  20
ENDBRANCH   4  19
TORSDOF 8
ENDMDL
MODEL 2
REMARK VINA RESULT:    -9.060      1.325      1.997
REMARK INTER + INTRA:         -12.796
REMARK INTER:                 -11.446
REMARK INTRA:                  -1.350
REMARK CONF_INDEPENDENT:        2.386
REMARK UNBOUND:                -1.350
REMARK  8 active torsions:
REMARK  status: ('A' for Active; 'I' for Inactive)
REMARK    1  A    between atoms: C_2  and  N_3 
REMARK       I    between atoms: N_3  and  C_4 
REMARK    2  A    between atoms: C_4  and  C_6 
REMARK    3  A    between atoms: C_9  and  N_10 
REMARK       I    between atoms: N_10  and  C_11 
REMARK       I    between atoms: C_11  and  N_13 
REMARK    4  A    between atoms: N_13  and  C_14 
REMARK    5  A    between atoms: C_14  and  C_15 
REMARK    6  A    between atoms: C_15  and  N_16 
REMARK    7  A    between atoms: N_16  and  C_17 
REMARK    8  A    between atoms: C_20  and  N_21 
ROOT
ATOM      1  N   UNL d   1      27.043 -16.549  -0.441  0.00  0.00    -0.309 N 
ATOM      2  C   UNL d   1      27.459 -15.446   0.295  0.00  0.00     0.320 C 
ATOM      3  O   UNL d   1      26.743 -14.747   1.008  0.00  0.00    -0.247 OA
ATOM      4  N   UNL d   1      28.796 -15.121   0.200  0.00  0.00    -0.341 N 
ATOM      5  H   UNL d   1      27.719 -17.020  -1.026  0.00  0.00     0.170 HD
ATOM      6  H   UNL d   1      29.429 -15.644  -0.386  0.00  0.00     0.164 HD
ENDROOT
BRANCH   1   7
ATOM      7  C   UNL d   1      25.680 -17.004  -0.517  0.00  0.00     0.036 A 
ATOM      8  C   UNL d   1      24.689 -16.250  -1.168  0.00  0.00     0.030 A 
ATOM      9  C   UNL d   1      23.330 -16.663  -1.140  0.00  0.00     0.019 A 
ATOM     10  C   UNL d   1      22.950 -17.859  -0.512  0.00  0.00     0.032 A 
ATOM     11  C   UNL d   1      23.933 -18.628   0.093  0.00  0.00     0.019 A 
ATOM     12  C   UNL d   1      25.267 -18.204   0.076  0.00  0.00     0.030 A 
BRANCH  10  13
ATOM     13  C   UNL d   1      21.558 -18.385  -0.615  0.00  0.00     0.251 C 
ATOM     14  N   UNL d   1      21.280 -19.586   0.012  0.00  0.00    -0.357 N 
ATOM     15  H   UNL d   1      21.985 -20.028   0.590  0.00  0.00     0.162 HD
ATOM     16  O   UNL d   1      20.720 -17.751  -1.260  0.00  0.00    -0.268 OA
BRANCH  14  17
ATOM     17  C   UNL d   1      19.955 -20.182  -0.058  0.00  0.00     0.118 C 
ATOM     18  C   UNL d   1      19.100 -19.857   1.155  0.00  0.00     0.026 C 
ENDBRANCH  14  17
ENDBRANCH  10  13
ENDBRANCH   1   7
BRANCH   4  19
ATOM     19  C   UNL d   1      29.285 -13.974   0.989  0.00  0.00     0.144 C 
BRANCH  19  20
ATOM     20  C   UNL d   1      29.133 -14.123   2.510  0.00  0.00     0.139 C 
BRANCH  20  21
ATOM     21  N   UNL d   1      27.856 -13.614   3.009  0.00  0.00    -0.388 N 
ATOM     22  H   UNL d   1      27.087 -14.264   3.149  0.00  0.00     0.159 HD
BRANCH  21  23
ATOM     23  C   UNL d   1      27.519 -12.269   2.961  0.00  0.00     0.028 A 
ATOM     24  C   UNL d   1      26.981 -11.740   1.778  0.00  0.00     0.031 A 
ATOM     25  C   UNL d   1      26.631 -10.386   1.670  0.00  0.00     0.038 A 
ATOM     26  C   UNL d   1      26.762  -9.553   2.784  0.00  0.00     0.103 A 
ATOM     27  C   UNL d   1      27.298 -10.054   3.973  0.00  0.00     0.038 A 
ATOM     28  C   UNL d   1      27.663 -11.404   4.054  0.00  0.00     0.031 A 
BRANCH  26  29
ATOM     29  N   UNL d   1      26.280  -8.166   2.727  0.00  0.00    -0.116 N 
ATOM     30  O   UNL d   1      26.670  -7.382   3.604  0.00  0.00    -0.532 OA
ATOM     31  O   UNL d   1      25.530  -7.855   1.790  0.00  0.00    -0.532 OA
ENDBRANCH  26  29
ENDBRANCH  21  23
ENDBRANCH  20  21
ENDBRANCH  19  20
ENDBRANCH   4  19
TORSDOF 8
ENDMDL
MODEL 3
REMARK VINA RESULT:    -9.051      2.200      2.649
REMARK INTER + INTRA:         -12.255
REMARK INTER:                 -11.437
REMARK INTRA:                  -0.818
REMARK CONF_INDEPENDENT:        2.386
REMARK UNBOUND:                -0.818
REMARK  8 active torsions:
REMARK  status: ('A' for Active; 'I' for Inactive)
REMARK    1  A    between atoms: C_2  and  N_3 
REMARK       I    between atoms: N_3  and  C_4 
REMARK    2  A    between atoms: C_4  and  C_6 
REMARK    3  A    between atoms: C_9  and  N_10 
REMARK       I    between atoms: N_10  and  C_11 
REMARK       I    between atoms: C_11  and  N_13 
REMARK    4  A    between atoms: N_13  and  C_14 
REMARK    5  A    between atoms: C_14  and  C_15 
REMARK    6  A    between atoms: C_15  and  N_16 
REMARK    7  A    between atoms: N_16  and  C_17 
REMARK    8  A    between atoms: C_20  and  N_21 
ROOT
ATOM      1  N   UNL d   1      25.530 -16.389  -0.853  0.00  0.00    -0.309 N 
ATOM      2  C   UNL d   1      25.854 -15.583  -1.937  0.00  0.00     0.320 C 
ATOM      3  O   UNL d   1      25.149 -15.390  -2.924  0.00  0.00    -0.247 OA
ATOM      4  N   UNL d   1      27.081 -14.956  -1.883  0.00  0.00    -0.341 N 
ATOM      5  H   UNL d   1      26.213 -16.503  -0.116  0.00  0.00     0.170 HD
ATOM      6  H   UNL d   1      27.713 -15.091  -1.110  0.00  0.00     0.164 HD
ENDROOT
BRANCH   1   7
ATOM      7  C   UNL d   1      24.325 -17.170  -0.755  0.00  0.00     0.036 A 
ATOM      8  C   UNL d   1      24.365 -18.559  -0.543  0.00  0.00     0.030 A 
ATOM      9  C   UNL d   1      23.171 -19.328  -0.557  0.00  0.00     0.019 A 
ATOM     10  C   UNL d   1      21.919 -18.717  -0.726  0.00  0.00     0.032 A 
ATOM     11  C   UNL d   1      21.873 -17.340  -0.890  0.00  0.00     0.019 A 
ATOM     12  C   UNL d   1      23.057 -16.593  -0.893  0.00  0.00     0.030 A 
BRANCH  10  13
ATOM     13  C   UNL d   1      20.650 -19.488  -0.581  0.00  0.00     0.251 C 
ATOM     14  N   UNL d   1      20.560 -20.379   0.473  0.00  0.00    -0.357 N 
ATOM     15  H   UNL d   1      21.303 -20.423   1.161  0.00  0.00     0.162 HD
ATOM     16  O   UNL d   1      19.746 -19.321  -1.403  0.00  0.00    -0.268 OA
BRANCH  14  17
ATOM     17  C   UNL d   1      19.368 -21.188   0.674  0.00  0.00     0.118 C 
ATOM     18  C   UNL d   1      18.393 -20.561   1.656  0.00  0.00     0.026 C 
ENDBRANCH  14  17
ENDBRANCH  10  13
ENDBRANCH   1   7
BRANCH   4  19
ATOM     19  C   UNL d   1      27.450 -14.067  -3.001  0.00  0.00     0.144 C 
BRANCH  19  20
ATOM     20  C   UNL d   1      27.285 -12.567  -2.719  0.00  0.00     0.139 C 
BRANCH  20  21
ATOM     21  N   UNL d   1      28.056 -12.116  -1.561  0.00  0.00    -0.388 N 
ATOM     22  H   UNL d   1      28.818 -12.695  -1.219  0.00  0.00     0.159 HD
BRANCH  21  23
ATOM     23  C   UNL d   1      27.593 -11.139  -0.691  0.00  0.00     0.028 A 
ATOM     24  C   UNL d   1      27.286  -9.865  -1.193  0.00  0.00     0.031 A 
ATOM     25  C   UNL d   1      26.823  -8.837  -0.358  0.00  0.00     0.038 A 
ATOM     26  C   UNL d   1      26.602  -9.101   0.997  0.00  0.00     0.103 A 
ATOM     27  C   UNL d   1      26.901 -10.361   1.521  0.00  0.00     0.038 A 
ATOM     28  C   UNL d   1      27.385 -11.367   0.675  0.00  0.00     0.031 A 
BRANCH  26  29
ATOM     29  N   UNL d   1      25.996  -8.076   1.857  0.00  0.00    -0.116 N 
ATOM     30  O   UNL d   1      25.158  -7.317   1.349  0.00  0.00    -0.532 OA
ATOM     31  O   UNL d   1      26.339  -8.047   3.048  0.00  0.00    -0.532 OA
ENDBRANCH  26  29
ENDBRANCH  21  23
ENDBRANCH  20  21
ENDBRANCH  19  20
ENDBRANCH   4  19
TORSDOF 8
ENDMDL
MODEL 4
REMARK VINA RESULT:    -8.963      3.430      9.726
REMARK INTER + INTRA:         -12.000
REMARK INTER:                 -11.350
REMARK INTRA:                  -0.650
REMARK CONF_INDEPENDENT:        2.386
REMARK UNBOUND:                -0.650
REMARK  8 active torsions:
REMARK  status: ('A' for Active; 'I' for Inactive)
REMARK    1  A    between atoms: C_2  and  N_3 
REMARK       I    between atoms: N_3  and  C_4 
REMARK    2  A    between atoms: C_4  and  C_6 
REMARK    3  A    between atoms: C_9  and  N_10 
REMARK       I    between atoms: N_10  and  C_11 
REMARK       I    between atoms: C_11  and  N_13 
REMARK    4  A    between atoms: N_13  and  C_14 
REMARK    5  A    between atoms: C_14  and  C_15 
REMARK    6  A    between atoms: C_15  and  N_16 
REMARK    7  A    between atoms: N_16  and  C_17 
REMARK    8  A    between atoms: C_20  and  N_21 
ROOT
ATOM      1  N   UNL d   1      28.513 -14.826   2.756  0.00  0.00    -0.309 N 
ATOM      2  C   UNL d   1      27.627 -14.307   1.820  0.00  0.00     0.320 C 
ATOM      3  O   UNL d   1      26.787 -13.435   2.033  0.00  0.00    -0.247 OA
ATOM      4  N   UNL d   1      27.710 -14.832   0.547  0.00  0.00    -0.341 N 
ATOM      5  H   UNL d   1      29.131 -15.574   2.471  0.00  0.00     0.170 HD
ATOM      6  H   UNL d   1      28.363 -15.564   0.317  0.00  0.00     0.164 HD
ENDROOT
BRANCH   1   7
ATOM      7  C   UNL d   1      28.537 -14.450   4.145  0.00  0.00     0.036 A 
ATOM      8  C   UNL d   1      27.540 -13.630   4.701  0.00  0.00     0.030 A 
ATOM      9  C   UNL d   1      27.639 -13.181   6.045  0.00  0.00     0.019 A 
ATOM     10  C   UNL d   1      28.700 -13.589   6.868  0.00  0.00     0.032 A 
ATOM     11  C   UNL d   1      29.661 -14.435   6.334  0.00  0.00     0.019 A 
ATOM     12  C   UNL d   1      29.566 -14.857   5.003  0.00  0.00     0.030 A 
BRANCH  10  13
ATOM     13  C   UNL d   1      28.730 -13.259   8.323  0.00  0.00     0.251 C 
ATOM     14  N   UNL d   1      29.006 -14.287   9.206  0.00  0.00    -0.357 N 
ATOM     15  H   UNL d   1      29.267 -15.200   8.852  0.00  0.00     0.162 HD
ATOM     16  O   UNL d   1      28.492 -12.104   8.684  0.00  0.00    -0.268 OA
BRANCH  14  17
ATOM     17  C   UNL d   1      29.031 -14.057  10.642  0.00  0.00     0.118 C 
ATOM     18  C   UNL d   1      27.830 -13.267  11.131  0.00  0.00     0.026 C 
ENDBRANCH  14  17
ENDBRANCH  10  13
ENDBRANCH   1   7
BRANCH   4  19
ATOM     19  C   UNL d   1      26.806 -14.286  -0.483  0.00  0.00     0.144 C 
BRANCH  19  20
ATOM     20  C   UNL d   1      26.124 -15.337  -1.370  0.00  0.00     0.139 C 
BRANCH  20  21
ATOM     21  N   UNL d   1      25.789 -16.563  -0.648  0.00  0.00    -0.388 N 
ATOM     22  H   UNL d   1      26.540 -17.163  -0.318  0.00  0.00     0.159 HD
BRANCH  21  23
ATOM     23  C   UNL d   1      24.526 -17.136  -0.697  0.00  0.00     0.028 A 
ATOM     24  C   UNL d   1      23.403 -16.306  -0.849  0.00  0.00     0.031 A 
ATOM     25  C   UNL d   1      22.103 -16.830  -0.896  0.00  0.00     0.038 A 
ATOM     26  C   UNL d   1      21.919 -18.214  -0.853  0.00  0.00     0.103 A 
ATOM     27  C   UNL d   1      23.019 -19.062  -0.700  0.00  0.00     0.038 A 
ATOM     28  C   UNL d   1      24.309 -18.518  -0.631  0.00  0.00     0.031 A 
BRANCH  26  29
ATOM     29  N   UNL d   1      20.577 -18.785  -1.031  0.00  0.00    -0.116 N 
ATOM     30  O   UNL d   1      19.605 -18.028  -0.894  0.00  0.00    -0.532 OA
ATOM     31  O   UNL d   1      20.496 -19.984  -1.334  0.00  0.00    -0.532 OA
ENDBRANCH  26  29
ENDBRANCH  21  23
ENDBRANCH  20  21
ENDBRANCH  19  20
ENDBRANCH   4  19
TORSDOF 8
ENDMDL
MODEL 5
REMARK VINA RESULT:    -8.777      1.184      1.380
REMARK INTER + INTRA:         -12.607
REMARK INTER:                 -11.163
REMARK INTRA:                  -1.444
REMARK CONF_INDEPENDENT:        2.386
REMARK UNBOUND:                -1.444
REMARK  8 active torsions:
REMARK  status: ('A' for Active; 'I' for Inactive)
REMARK    1  A    between atoms: C_2  and  N_3 
REMARK       I    between atoms: N_3  and  C_4 
REMARK    2  A    between atoms: C_4  and  C_6 
REMARK    3  A    between atoms: C_9  and  N_10 
REMARK       I    between atoms: N_10  and  C_11 
REMARK       I    between atoms: C_11  and  N_13 
REMARK    4  A    between atoms: N_13  and  C_14 
REMARK    5  A    between atoms: C_14  and  C_15 
REMARK    6  A    between atoms: C_15  and  N_16 
REMARK    7  A    between atoms: N_16  and  C_17 
REMARK    8  A    between atoms: C_20  and  N_21 
ROOT
ATOM      1  N   UNL d   1      26.694 -17.026  -0.516  0.00  0.00    -0.309 N 
ATOM      2  C   UNL d   1      27.168 -15.800  -0.067  0.00  0.00     0.320 C 
ATOM      3  O   UNL d   1      26.491 -14.916   0.454  0.00  0.00    -0.247 OA
ATOM      4  N   UNL d   1      28.518 -15.573  -0.231  0.00  0.00    -0.341 N 
ATOM      5  H   UNL d   1      27.342 -17.657  -0.968  0.00  0.00     0.170 HD
ATOM      6  H   UNL d   1      29.121 -16.251  -0.671  0.00  0.00     0.164 HD
ENDROOT
BRANCH   1   7
ATOM      7  C   UNL d   1      25.310 -17.420  -0.486  0.00  0.00     0.036 A 
ATOM      8  C   UNL d   1      24.926 -18.728  -0.143  0.00  0.00     0.030 A 
ATOM      9  C   UNL d   1      23.565 -19.128  -0.224  0.00  0.00     0.019 A 
ATOM     10  C   UNL d   1      22.564 -18.216  -0.592  0.00  0.00     0.032 A 
ATOM     11  C   UNL d   1      22.935 -16.912  -0.887  0.00  0.00     0.019 A 
ATOM     12  C   UNL d   1      24.281 -16.533  -0.823  0.00  0.00     0.030 A 
BRANCH  10  13
ATOM     13  C   UNL d   1      21.118 -18.577  -0.524  0.00  0.00     0.251 C 
ATOM     14  N   UNL d   1      20.775 -19.713   0.186  0.00  0.00    -0.357 N 
ATOM     15  H   UNL d   1      21.484 -20.214   0.708  0.00  0.00     0.162 HD
ATOM     16  O   UNL d   1      20.292 -17.871  -1.109  0.00  0.00    -0.268 OA
BRANCH  14  17
ATOM     17  C   UNL d   1      19.391 -20.150   0.283  0.00  0.00     0.118 C 
ATOM     18  C   UNL d   1      18.776 -19.852   1.640  0.00  0.00     0.026 C 
ENDBRANCH  14  17
ENDBRANCH  10  13
ENDBRANCH   1   7
BRANCH   4  19
ATOM     19  C   UNL d   1      29.066 -14.295   0.261  0.00  0.00     0.144 C 
BRANCH  19  20
ATOM     20  C   UNL d   1      29.134 -14.163   1.789  0.00  0.00     0.139 C 
BRANCH  20  21
ATOM     21  N   UNL d   1      27.854 -13.784   2.386  0.00  0.00    -0.388 N 
ATOM     22  H   UNL d   1      27.125 -14.486   2.481  0.00  0.00     0.159 HD
BRANCH  21  23
ATOM     23  C   UNL d   1      27.447 -12.462   2.500  0.00  0.00     0.028 A 
ATOM     24  C   UNL d   1      28.024 -11.650   3.489  0.00  0.00     0.031 A 
ATOM     25  C   UNL d   1      27.644 -10.311   3.656  0.00  0.00     0.038 A 
ATOM     26  C   UNL d   1      26.714  -9.748   2.778  0.00  0.00     0.103 A 
ATOM     27  C   UNL d   1      26.123 -10.534   1.786  0.00  0.00     0.038 A 
ATOM     28  C   UNL d   1      26.499 -11.877   1.651  0.00  0.00     0.031 A 
BRANCH  26  29
ATOM     29  N   UNL d   1      26.403  -8.314   2.856  0.00  0.00    -0.116 N 
ATOM     30  O   UNL d   1      25.531  -7.870   2.096  0.00  0.00    -0.532 OA
ATOM     31  O   UNL d   1      27.013  -7.636   3.697  0.00  0.00    -0.532 OA
ENDBRANCH  26  29
ENDBRANCH  21  23
ENDBRANCH  20  21
ENDBRANCH  19  20
ENDBRANCH   4  19
TORSDOF 8
ENDMDL
MODEL 6
REMARK VINA RESULT:    -8.649      1.672      2.276
REMARK INTER + INTRA:         -12.514
REMARK INTER:                 -11.035
REMARK INTRA:                  -1.479
REMARK CONF_INDEPENDENT:        2.386
REMARK UNBOUND:                -1.479
REMARK  8 active torsions:
REMARK  status: ('A' for Active; 'I' for Inactive)
REMARK    1  A    between atoms: C_2  and  N_3 
REMARK       I    between atoms: N_3  and  C_4 
REMARK    2  A    between atoms: C_4  and  C_6 
REMARK    3  A    between atoms: C_9  and  N_10 
REMARK       I    between atoms: N_10  and  C_11 
REMARK       I    between atoms: C_11  and  N_13 
REMARK    4  A    between atoms: N_13  and  C_14 
REMARK    5  A    between atoms: C_14  and  C_15 
REMARK    6  A    between atoms: C_15  and  N_16 
REMARK    7  A    between atoms: N_16  and  C_17 
REMARK    8  A    between atoms: C_20  and  N_21 
ROOT
ATOM      1  N   UNL d   1      26.714 -16.886  -0.083  0.00  0.00    -0.309 N 
ATOM      2  C   UNL d   1      27.344 -15.947  -0.890  0.00  0.00     0.320 C 
ATOM      3  O   UNL d   1      26.816 -15.312  -1.800  0.00  0.00    -0.247 OA
ATOM      4  N   UNL d   1      28.682 -15.726  -0.635  0.00  0.00    -0.341 N 
ATOM      5  H   UNL d   1      27.266 -17.376   0.607  0.00  0.00     0.170 HD
ATOM      6  H   UNL d   1      29.176 -16.232   0.084  0.00  0.00     0.164 HD
ENDROOT
BRANCH   1   7
ATOM      7  C   UNL d   1      25.342 -17.295  -0.235  0.00  0.00     0.036 A 
ATOM      8  C   UNL d   1      24.333 -16.373  -0.561  0.00  0.00     0.030 A 
ATOM      9  C   UNL d   1      22.971 -16.775  -0.601  0.00  0.00     0.019 A 
ATOM     10  C   UNL d   1      22.603 -18.110  -0.372  0.00  0.00     0.032 A 
ATOM     11  C   UNL d   1      23.603 -19.031  -0.095  0.00  0.00     0.019 A 
ATOM     12  C   UNL d   1      24.941 -18.622  -0.040  0.00  0.00     0.030 A 
BRANCH  10  13
ATOM     13  C   UNL d   1      21.201 -18.577  -0.570  0.00  0.00     0.251 C 
ATOM     14  N   UNL d   1      20.835 -19.773   0.022  0.00  0.00    -0.357 N 
ATOM     15  H   UNL d   1      21.483 -20.249   0.638  0.00  0.00     0.162 HD
ATOM     16  O   UNL d   1      20.433 -17.902  -1.260  0.00  0.00    -0.268 OA
BRANCH  14  17
ATOM     17  C   UNL d   1      19.494 -20.313  -0.141  0.00  0.00     0.118 C 
ATOM     18  C   UNL d   1      18.718 -20.358   1.164  0.00  0.00     0.026 C 
ENDBRANCH  14  17
ENDBRANCH  10  13
ENDBRANCH   1   7
BRANCH   4  19
ATOM     19  C   UNL d   1      29.381 -14.715  -1.451  0.00  0.00     0.144 C 
BRANCH  19  20
ATOM     20  C   UNL d   1      29.139 -13.260  -1.027  0.00  0.00     0.139 C 
BRANCH  20  21
ATOM     21  N   UNL d   1      27.749 -12.998  -0.653  0.00  0.00    -0.388 N 
ATOM     22  H   UNL d   1      27.005 -13.473  -1.156  0.00  0.00     0.159 HD
BRANCH  21  23
ATOM     23  C   UNL d   1      27.374 -11.887   0.089  0.00  0.00     0.028 A 
ATOM     24  C   UNL d   1      27.611 -10.604  -0.430  0.00  0.00     0.031 A 
ATOM     25  C   UNL d   1      27.261  -9.447   0.280  0.00  0.00     0.038 A 
ATOM     26  C   UNL d   1      26.604  -9.568   1.507  0.00  0.00     0.103 A 
ATOM     27  C   UNL d   1      26.358 -10.832   2.047  0.00  0.00     0.038 A 
ATOM     28  C   UNL d   1      26.736 -11.977   1.333  0.00  0.00     0.031 A 
BRANCH  26  29
ATOM     29  N   UNL d   1      26.115  -8.368   2.201  0.00  0.00    -0.116 N 
ATOM     30  O   UNL d   1      25.161  -7.758   1.697  0.00  0.00    -0.532 OA
ATOM     31  O   UNL d   1      26.668  -8.052   3.265  0.00  0.00    -0.532 OA
ENDBRANCH  26  29
ENDBRANCH  21  23
ENDBRANCH  20  21
ENDBRANCH  19  20
ENDBRANCH   4  19
TORSDOF 8
ENDMDL
MODEL 7
REMARK VINA RESULT:    -8.462      3.078      4.870
REMARK INTER + INTRA:         -12.551
REMARK INTER:                 -10.848
REMARK INTRA:                  -1.703
REMARK CONF_INDEPENDENT:        2.386
REMARK UNBOUND:                -1.703
REMARK  8 active torsions:
REMARK  status: ('A' for Active; 'I' for Inactive)
REMARK    1  A    between atoms: C_2  and  N_3 
REMARK       I    between atoms: N_3  and  C_4 
REMARK    2  A    between atoms: C_4  and  C_6 
REMARK    3  A    between atoms: C_9  and  N_10 
REMARK       I    between atoms: N_10  and  C_11 
REMARK       I    between atoms: C_11  and  N_13 
REMARK    4  A    between atoms: N_13  and  C_14 
REMARK    5  A    between atoms: C_14  and  C_15 
REMARK    6  A    between atoms: C_15  and  N_16 
REMARK    7  A    between atoms: N_16  and  C_17 
REMARK    8  A    between atoms: C_20  and  N_21 
ROOT
ATOM      1  N   UNL d   1      26.948 -16.741  -0.186  0.00  0.00    -0.309 N 
ATOM      2  C   UNL d   1      27.349 -15.545   0.396  0.00  0.00     0.320 C 
ATOM      3  O   UNL d   1      26.612 -14.735   0.953  0.00  0.00    -0.247 OA
ATOM      4  N   UNL d   1      28.696 -15.257   0.328  0.00  0.00    -0.341 N 
ATOM      5  H   UNL d   1      27.643 -17.306  -0.654  0.00  0.00     0.170 HD
ATOM      6  H   UNL d   1      29.348 -15.872  -0.134  0.00  0.00     0.164 HD
ENDROOT
BRANCH   1   7
ATOM      7  C   UNL d   1      25.581 -17.183  -0.269  0.00  0.00     0.036 A 
ATOM      8  C   UNL d   1      25.215 -18.502   0.050  0.00  0.00     0.030 A 
ATOM      9  C   UNL d   1      23.881 -18.950  -0.141  0.00  0.00     0.019 A 
ATOM     10  C   UNL d   1      22.883 -18.075  -0.599  0.00  0.00     0.032 A 
ATOM     11  C   UNL d   1      23.232 -16.760  -0.871  0.00  0.00     0.019 A 
ATOM     12  C   UNL d   1      24.554 -16.333  -0.697  0.00  0.00     0.030 A 
BRANCH  10  13
ATOM     13  C   UNL d   1      21.449 -18.486  -0.649  0.00  0.00     0.251 C 
ATOM     14  N   UNL d   1      21.097 -19.657  -0.004  0.00  0.00    -0.357 N 
ATOM     15  H   UNL d   1      21.784 -20.153   0.552  0.00  0.00     0.162 HD
ATOM     16  O   UNL d   1      20.644 -17.788  -1.270  0.00  0.00    -0.268 OA
BRANCH  14  17
ATOM     17  C   UNL d   1      19.726 -20.143  -0.024  0.00  0.00     0.118 C 
ATOM     18  C   UNL d   1      19.098 -20.184   1.359  0.00  0.00     0.026 C 
ENDBRANCH  14  17
ENDBRANCH  10  13
ENDBRANCH   1   7
BRANCH   4  19
ATOM     19  C   UNL d   1      29.167 -14.011   0.961  0.00  0.00     0.144 C 
BRANCH  19  20
ATOM     20  C   UNL d   1      28.820 -12.725   0.198  0.00  0.00     0.139 C 
BRANCH  20  21
ATOM     21  N   UNL d   1      27.485 -12.758  -0.399  0.00  0.00    -0.388 N 
ATOM     22  H   UNL d   1      26.674 -12.605   0.195  0.00  0.00     0.159 HD
BRANCH  21  23
ATOM     23  C   UNL d   1      27.236 -13.336  -1.636  0.00  0.00     0.028 A 
ATOM     24  C   UNL d   1      28.299 -13.912  -2.349  0.00  0.00     0.031 A 
ATOM     25  C   UNL d   1      28.107 -14.500  -3.608  0.00  0.00     0.038 A 
ATOM     26  C   UNL d   1      26.818 -14.573  -4.141  0.00  0.00     0.103 A 
ATOM     27  C   UNL d   1      25.743 -14.005  -3.453  0.00  0.00     0.038 A 
ATOM     28  C   UNL d   1      25.959 -13.401  -2.207  0.00  0.00     0.031 A 
BRANCH  26  29
ATOM     29  N   UNL d   1      26.580 -15.300  -5.396  0.00  0.00    -0.116 N 
ATOM     30  O   UNL d   1      25.530 -15.950  -5.497  0.00  0.00    -0.532 OA
ATOM     31  O   UNL d   1      27.433 -15.200  -6.290  0.00  0.00    -0.532 OA
ENDBRANCH  26  29
ENDBRANCH  21  23
ENDBRANCH  20  21
ENDBRANCH  19  20
ENDBRANCH   4  19
TORSDOF 8
ENDMDL
MODEL 8
REMARK VINA RESULT:    -8.205      3.133      5.024
REMARK INTER + INTRA:         -12.322
REMARK INTER:                 -10.591
REMARK INTRA:                  -1.731
REMARK CONF_INDEPENDENT:        2.386
REMARK UNBOUND:                -1.731
REMARK  8 active torsions:
REMARK  status: ('A' for Active; 'I' for Inactive)
REMARK    1  A    between atoms: C_2  and  N_3 
REMARK       I    between atoms: N_3  and  C_4 
REMARK    2  A    between atoms: C_4  and  C_6 
REMARK    3  A    between atoms: C_9  and  N_10 
REMARK       I    between atoms: N_10  and  C_11 
REMARK       I    between atoms: C_11  and  N_13 
REMARK    4  A    between atoms: N_13  and  C_14 
REMARK    5  A    between atoms: C_14  and  C_15 
REMARK    6  A    between atoms: C_15  and  N_16 
REMARK    7  A    between atoms: N_16  and  C_17 
REMARK    8  A    between atoms: C_20  and  N_21 
ROOT
ATOM      1  N   UNL d   1      26.844 -16.524   0.075  0.00  0.00    -0.309 N 
ATOM      2  C   UNL d   1      27.160 -15.263   0.566  0.00  0.00     0.320 C 
ATOM      3  O   UNL d   1      26.354 -14.418   0.947  0.00  0.00    -0.247 OA
ATOM      4  N   UNL d   1      28.502 -14.950   0.618  0.00  0.00    -0.341 N 
ATOM      5  H   UNL d   1      27.596 -17.117  -0.249  0.00  0.00     0.170 HD
ATOM      6  H   UNL d   1      29.210 -15.593   0.299  0.00  0.00     0.164 HD
ENDROOT
BRANCH   1   7
ATOM      7  C   UNL d   1      25.502 -17.008  -0.111  0.00  0.00     0.036 A 
ATOM      8  C   UNL d   1      24.488 -16.182  -0.627  0.00  0.00     0.030 A 
ATOM      9  C   UNL d   1      23.147 -16.643  -0.702  0.00  0.00     0.019 A 
ATOM     10  C   UNL d   1      22.808 -17.950  -0.319  0.00  0.00     0.032 A 
ATOM     11  C   UNL d   1      23.815 -18.782   0.147  0.00  0.00     0.019 A 
ATOM     12  C   UNL d   1      25.131 -18.313   0.236  0.00  0.00     0.030 A 
BRANCH  10  13
ATOM     13  C   UNL d   1      21.440 -18.499  -0.545  0.00  0.00     0.251 C 
ATOM     14  N   UNL d   1      21.124 -19.700   0.063  0.00  0.00    -0.357 N 
ATOM     15  H   UNL d   1      21.779 -20.127   0.708  0.00  0.00     0.162 HD
ATOM     16  O   UNL d   1      20.656 -17.882  -1.271  0.00  0.00    -0.268 OA
BRANCH  14  17
ATOM     17  C   UNL d   1      19.820 -20.317  -0.124  0.00  0.00     0.118 C 
ATOM     18  C   UNL d   1      19.032 -20.427   1.170  0.00  0.00     0.026 C 
ENDBRANCH  14  17
ENDBRANCH  10  13
ENDBRANCH   1   7
BRANCH   4  19
ATOM     19  C   UNL d   1      28.882 -13.632   1.161  0.00  0.00     0.144 C 
BRANCH  19  20
ATOM     20  C   UNL d   1      28.599 -12.442   0.233  0.00  0.00     0.139 C 
BRANCH  20  21
ATOM     21  N   UNL d   1      27.345 -12.581  -0.507  0.00  0.00    -0.388 N 
ATOM     22  H   UNL d   1      26.466 -12.407  -0.027  0.00  0.00     0.159 HD
BRANCH  21  23
ATOM     23  C   UNL d   1      27.259 -13.276  -1.706  0.00  0.00     0.028 A 
ATOM     24  C   UNL d   1      26.000 -13.470  -2.295  0.00  0.00     0.031 A 
ATOM     25  C   UNL d   1      25.852 -14.173  -3.500  0.00  0.00     0.038 A 
ATOM     26  C   UNL d   1      26.989 -14.640  -4.165  0.00  0.00     0.103 A 
ATOM     27  C   UNL d   1      28.253 -14.462  -3.599  0.00  0.00     0.038 A 
ATOM     28  C   UNL d   1      28.378 -13.778  -2.382  0.00  0.00     0.031 A 
BRANCH  26  29
ATOM     29  N   UNL d   1      26.862 -15.263  -5.490  0.00  0.00    -0.116 N 
ATOM     30  O   UNL d   1      27.842 -15.214  -6.247  0.00  0.00    -0.532 OA
ATOM     31  O   UNL d   1      25.791 -15.823  -5.763  0.00  0.00    -0.532 OA
ENDBRANCH  26  29
ENDBRANCH  21  23
ENDBRANCH  20  21
ENDBRANCH  19  20
ENDBRANCH   4  19
TORSDOF 8
ENDMDL
MODEL 9
REMARK VINA RESULT:    -8.123      4.011      4.849
REMARK INTER + INTRA:         -12.008
REMARK INTER:                 -10.510
REMARK INTRA:                  -1.498
REMARK CONF_INDEPENDENT:        2.386
REMARK UNBOUND:                -1.498
REMARK  8 active torsions:
REMARK  status: ('A' for Active; 'I' for Inactive)
REMARK    1  A    between atoms: C_2  and  N_3 
REMARK       I    between atoms: N_3  and  C_4 
REMARK    2  A    between atoms: C_4  and  C_6 
REMARK    3  A    between atoms: C_9  and  N_10 
REMARK       I    between atoms: N_10  and  C_11 
REMARK       I    between atoms: C_11  and  N_13 
REMARK    4  A    between atoms: N_13  and  C_14 
REMARK    5  A    between atoms: C_14  and  C_15 
REMARK    6  A    between atoms: C_15  and  N_16 
REMARK    7  A    between atoms: N_16  and  C_17 
REMARK    8  A    between atoms: C_20  and  N_21 
ROOT
ATOM      1  N   UNL d   1      27.175 -16.861   0.398  0.00  0.00    -0.309 N 
ATOM      2  C   UNL d   1      28.157 -16.798  -0.582  0.00  0.00     0.320 C 
ATOM      3  O   UNL d   1      27.989 -17.003  -1.782  0.00  0.00    -0.247 OA
ATOM      4  N   UNL d   1      29.428 -16.480  -0.150  0.00  0.00    -0.341 N 
ATOM      5  H   UNL d   1      27.445 -16.713   1.361  0.00  0.00     0.170 HD
ATOM      6  H   UNL d   1      29.633 -16.321   0.824  0.00  0.00     0.164 HD
ENDROOT
BRANCH   1   7
ATOM      7  C   UNL d   1      25.807 -17.236   0.152  0.00  0.00     0.036 A 
ATOM      8  C   UNL d   1      25.389 -18.576   0.222  0.00  0.00     0.030 A 
ATOM      9  C   UNL d   1      24.061 -18.939  -0.130  0.00  0.00     0.019 A 
ATOM     10  C   UNL d   1      23.119 -17.967  -0.500  0.00  0.00     0.032 A 
ATOM     11  C   UNL d   1      23.517 -16.638  -0.526  0.00  0.00     0.019 A 
ATOM     12  C   UNL d   1      24.833 -16.292  -0.196  0.00  0.00     0.030 A 
BRANCH  10  13
ATOM     13  C   UNL d   1      21.684 -18.314  -0.713  0.00  0.00     0.251 C 
ATOM     14  N   UNL d   1      21.257 -19.559  -0.287  0.00  0.00    -0.357 N 
ATOM     15  H   UNL d   1      21.889 -20.159   0.230  0.00  0.00     0.162 HD
ATOM     16  O   UNL d   1      20.943 -17.500  -1.269  0.00  0.00    -0.268 OA
BRANCH  14  17
ATOM     17  C   UNL d   1      19.880 -19.987  -0.477  0.00  0.00     0.118 C 
ATOM     18  C   UNL d   1      19.104 -20.064   0.827  0.00  0.00     0.026 C 
ENDBRANCH  14  17
ENDBRANCH  10  13
ENDBRANCH   1   7
BRANCH   4  19
ATOM     19  C   UNL d   1      30.494 -16.373  -1.165  0.00  0.00     0.144 C 
BRANCH  19  20
ATOM     20  C   UNL d   1      31.255 -15.040  -1.167  0.00  0.00     0.139 C 
BRANCH  20  21
ATOM     21  N   UNL d   1      30.606 -14.013  -1.980  0.00  0.00    -0.388 N 
ATOM     22  H   UNL d   1      30.922 -13.049  -1.903  0.00  0.00     0.159 HD
BRANCH  21  23
ATOM     23  C   UNL d   1      29.365 -14.203  -2.572  0.00  0.00     0.028 A 
ATOM     24  C   UNL d   1      29.293 -14.853  -3.815  0.00  0.00     0.031 A 
ATOM     25  C   UNL d   1      28.068 -15.065  -4.464  0.00  0.00     0.038 A 
ATOM     26  C   UNL d   1      26.882 -14.676  -3.834  0.00  0.00     0.103 A 
ATOM     27  C   UNL d   1      26.927 -14.026  -2.598  0.00  0.00     0.038 A 
ATOM     28  C   UNL d   1      28.163 -13.803  -1.977  0.00  0.00     0.031 A 
BRANCH  26  29
ATOM     29  N   UNL d   1      25.585 -15.007  -4.439  0.00  0.00    -0.116 N 
ATOM     30  O   UNL d   1      25.571 -15.841  -5.355  0.00  0.00    -0.532 OA
ATOM     31  O   UNL d   1      24.576 -14.450  -3.980  0.00  0.00    -0.532 OA
ENDBRANCH  26  29
ENDBRANCH  21  23
ENDBRANCH  20  21
ENDBRANCH  19  20
ENDBRANCH   4  19
TORSDOF 8
ENDMDL
