MODEL 1
REMARK VINA RESULT:   -10.342      0.000      0.000
REMARK INTER + INTRA:         -14.406
REMARK INTER:                 -12.728
REMARK INTRA:                  -1.677
REMARK CONF_INDEPENDENT:        2.386
REMARK UNBOUND:                -1.677
REMARK  8 active torsions:
REMARK  status: ('A' for Active; 'I' for Inactive)
REMARK    1  A    between atoms: C_2  and  C_3 
REMARK    2  A    between atoms: C_6  and  N_7 
REMARK       I    between atoms: N_7  and  C_8 
REMARK    3  A    between atoms: C_8  and  C_10 
REMARK    4  A    between atoms: N_20  and  N_21 
REMARK    5  A    between atoms: N_21  and  S_22 
REMARK    6  A    between atoms: S_22  and  C_25 
REMARK    7  A    between atoms: C_27  and  O_28 
REMARK    8  A    between atoms: C_32  and  O_33 
ROOT
ATOM      1  C   UNL d   1      27.085 -13.207  -5.312  0.00  0.00     0.085 C 
ATOM      2  C   UNL d   1      27.190 -12.031  -5.967  0.00  0.00     0.035 C 
ATOM      3  C   UNL d   1      26.327 -10.905  -5.613  0.00  0.00    -0.001 C 
ATOM      4  C   UNL d   1      25.929  -9.919  -6.528  0.00  0.00     0.014 C 
ATOM      5  C   UNL d   1      25.163  -8.825  -6.104  0.00  0.00     0.001 C 
ATOM      6  C   UNL d   1      24.820  -8.701  -4.756  0.00  0.00     0.003 C 
ATOM      7  C   UNL d   1      25.193  -9.697  -3.838  0.00  0.00     0.038 C 
ATOM      8  C   UNL d   1      25.862 -10.840  -4.299  0.00  0.00     0.088 C 
ATOM      9  O   UNL d   1      25.857 -12.048  -3.515  0.00  0.00    -0.291 OA
ATOM     10  C   UNL d   1      26.167 -13.236  -4.185  0.00  0.00     0.179 C 
ATOM     11  N   UNL d   1      25.649 -14.340  -3.765  0.00  0.00    -0.269 N 
ATOM     12  H   UNL d   1      25.726 -15.136  -4.406  0.00  0.00     0.190 HD
ENDROOT
BRANCH   1  13
ATOM     13  C   UNL d   1      27.951 -14.371  -5.722  0.00  0.00     0.260 C 
ATOM     14  N   UNL d   1      29.315 -14.162  -6.029  0.00  0.00    -0.323 N 
ATOM     15  H   UNL d   1      29.827 -13.317  -6.175  0.00  0.00     0.169 HD
ATOM     16  O   UNL d   1      27.377 -15.454  -5.763  0.00  0.00    -0.267 OA
BRANCH  14  17
ATOM     17  C   UNL d   1      30.204 -15.161  -6.485  0.00  0.00     0.035 A 
ATOM     18  C   UNL d   1      31.256 -14.803  -7.361  0.00  0.00     0.030 A 
ATOM     19  C   UNL d   1      32.012 -15.801  -7.984  0.00  0.00     0.009 A 
ATOM     20  C   UNL d   1      31.771 -17.136  -7.657  0.00  0.00    -0.058 A 
ATOM     21  C   UNL d   1      30.784 -17.453  -6.723  0.00  0.00     0.009 A 
ATOM     22  C   UNL d   1      30.006 -16.481  -6.153  0.00  0.00     0.030 A 
BRANCH  20  23
ATOM     23  C   UNL d   1      32.526 -18.289  -8.247  0.00  0.00     0.034 C 
ATOM     24  C   UNL d   1      31.550 -19.354  -8.734  0.00  0.00     0.010 C 
ENDBRANCH  20  23
ENDBRANCH  14  17
ENDBRANCH   1  13
BRANCH  11  25
ATOM     25  N   UNL d   1      24.959 -14.562  -2.518  0.00  0.00    -0.221 N 
ATOM     26  H   UNL d   1      23.977 -14.292  -2.534  0.00  0.00     0.200 HD
BRANCH  25  27
ATOM     27  S   UNL d   1      25.646 -15.679  -1.350  0.00  0.00     0.279 S 
ATOM     28  O   UNL d   1      26.837 -16.217  -1.956  0.00  0.00    -0.199 OA
ATOM     29  O   UNL d   1      25.782 -14.846  -0.159  0.00  0.00    -0.199 OA
BRANCH  27  30
ATOM     30  C   UNL d   1      24.487 -17.077  -0.961  0.00  0.00     0.117 C 
ATOM     31  C   UNL d   1      23.103 -16.855  -1.208  0.00  0.00     0.065 C 
ATOM     32  C   UNL d   1      22.132 -17.838  -0.874  0.00  0.00     0.069 C 
ATOM     33  C   UNL d   1      22.541 -19.099  -0.461  0.00  0.00     0.039 C 
ATOM     34  C   UNL d   1      23.868 -19.323  -0.181  0.00  0.00     0.041 C 
ATOM     35  C   UNL d   1      24.820 -18.310  -0.327  0.00  0.00     0.091 C 
BRANCH  32  36
ATOM     36  O   UNL d   1      20.802 -17.494  -0.940  0.00  0.00    -0.356 OA
ATOM     37  C   UNL d   1      19.876 -18.598  -0.894  0.00  0.00     0.210 C 
ENDBRANCH  32  36
BRANCH  35  38
ATOM     38  O   UNL d   1      25.969 -18.777   0.275  0.00  0.00    -0.354 OA
ATOM     39  C   UNL d   1      26.792 -17.731   0.621  0.00  0.00     0.210 C 
ENDBRANCH  35  38
ENDBRANCH  27  30
ENDBRANCH  25  27
ENDBRANCH  11  25
TORSDOF 8
ENDMDL
MODEL 2
REMARK VINA RESULT:    -9.716      2.850      8.888
REMARK INTER + INTRA:         -14.531
REMARK INTER:                 -12.103
REMARK INTRA:                  -2.429
REMARK CONF_INDEPENDENT:        2.386
REMARK UNBOUND:                -2.429
REMARK  8 active torsions:
REMARK  status: ('A' for Active; 'I' for Inactive)
REMARK    1  A    between atoms: C_2  and  C_3 
REMARK    2  A    between atoms: C_6  and  N_7 
REMARK       I    between atoms: N_7  and  C_8 
REMARK    3  A    between atoms: C_8  and  C_10 
REMARK    4  A    between atoms: N_20  and  N_21 
REMARK    5  A    between atoms: N_21  and  S_22 
REMARK    6  A    between atoms: S_22  and  C_25 
REMARK    7  A    between atoms: C_27  and  O_28 
REMARK    8  A    between atoms: C_32  and  O_33 
ROOT
ATOM      1  C   UNL d   1      25.001 -16.677  -1.451  0.00  0.00     0.085 C 
ATOM      2  C   UNL d   1      24.463 -15.769  -2.293  0.00  0.00     0.035 C 
ATOM      3  C   UNL d   1      25.321 -14.837  -3.024  0.00  0.00    -0.001 C 
ATOM      4  C   UNL d   1      24.910 -13.555  -3.417  0.00  0.00     0.014 C 
ATOM      5  C   UNL d   1      25.756 -12.742  -4.182  0.00  0.00     0.001 C 
ATOM      6  C   UNL d   1      27.004 -13.224  -4.582  0.00  0.00     0.003 C 
ATOM      7  C   UNL d   1      27.434 -14.497  -4.171  0.00  0.00     0.038 C 
ATOM      8  C   UNL d   1      26.622 -15.252  -3.313  0.00  0.00     0.088 C 
ATOM      9  O   UNL d   1      27.190 -16.315  -2.525  0.00  0.00    -0.291 OA
ATOM     10  C   UNL d   1      26.453 -16.743  -1.417  0.00  0.00     0.179 C 
ATOM     11  N   UNL d   1      27.083 -17.216  -0.396  0.00  0.00    -0.269 N 
ATOM     12  H   UNL d   1      26.528 -17.310   0.461  0.00  0.00     0.190 HD
ENDROOT
BRANCH   1  13
ATOM     13  C   UNL d   1      24.098 -17.599  -0.670  0.00  0.00     0.260 C 
ATOM     14  N   UNL d   1      22.761 -17.794  -1.084  0.00  0.00    -0.323 N 
ATOM     15  H   UNL d   1      22.209 -17.302  -1.756  0.00  0.00     0.169 HD
ATOM     16  O   UNL d   1      24.618 -18.126   0.308  0.00  0.00    -0.267 OA
BRANCH  14  17
ATOM     17  C   UNL d   1      21.808 -18.579  -0.397  0.00  0.00     0.035 A 
ATOM     18  C   UNL d   1      20.848 -19.306  -1.139  0.00  0.00     0.030 A 
ATOM     19  C   UNL d   1      19.776 -19.917  -0.480  0.00  0.00     0.009 A 
ATOM     20  C   UNL d   1      19.725 -19.872   0.914  0.00  0.00    -0.058 A 
ATOM     21  C   UNL d   1      20.734 -19.220   1.623  0.00  0.00     0.009 A 
ATOM     22  C   UNL d   1      21.754 -18.575   0.978  0.00  0.00     0.030 A 
BRANCH  20  23
ATOM     23  C   UNL d   1      18.636 -20.501   1.730  0.00  0.00     0.034 C 
ATOM     24  C   UNL d   1      17.929 -21.575   0.912  0.00  0.00     0.010 C 
ENDBRANCH  20  23
ENDBRANCH  14  17
ENDBRANCH   1  13
BRANCH  11  25
ATOM     25  N   UNL d   1      28.473 -17.595  -0.326  0.00  0.00    -0.221 N 
ATOM     26  H   UNL d   1      28.623 -18.578  -0.104  0.00  0.00     0.200 HD
BRANCH  25  27
ATOM     27  S   UNL d   1      29.677 -16.571  -1.089  0.00  0.00     0.279 S 
ATOM     28  O   UNL d   1      29.071 -15.271  -1.232  0.00  0.00    -0.199 OA
ATOM     29  O   UNL d   1      30.824 -16.713  -0.197  0.00  0.00    -0.199 OA
BRANCH  27  30
ATOM     30  C   UNL d   1      30.158 -17.197  -2.769  0.00  0.00     0.117 C 
ATOM     31  C   UNL d   1      29.763 -16.412  -3.889  0.00  0.00     0.065 C 
ATOM     32  C   UNL d   1      30.022 -16.846  -5.217  0.00  0.00     0.069 C 
ATOM     33  C   UNL d   1      30.819 -17.961  -5.435  0.00  0.00     0.039 C 
ATOM     34  C   UNL d   1      31.181 -18.754  -4.372  0.00  0.00     0.041 C 
ATOM     35  C   UNL d   1      30.780 -18.445  -3.069  0.00  0.00     0.091 C 
BRANCH  32  36
ATOM     36  O   UNL d   1      29.440 -16.159  -6.256  0.00  0.00    -0.356 OA
ATOM     37  C   UNL d   1      29.793 -14.764  -6.350  0.00  0.00     0.210 C 
ENDBRANCH  32  36
BRANCH  35  38
ATOM     38  O   UNL d   1      31.077 -19.554  -2.306  0.00  0.00    -0.354 OA
ATOM     39  C   UNL d   1      32.347 -19.458  -1.788  0.00  0.00     0.210 C 
ENDBRANCH  35  38
ENDBRANCH  27  30
ENDBRANCH  25  27
ENDBRANCH  11  25
TORSDOF 8
ENDMDL
MODEL 3
REMARK VINA RESULT:    -9.604      4.312      7.892
REMARK INTER + INTRA:         -14.512
REMARK INTER:                 -11.991
REMARK INTRA:                  -2.521
REMARK CONF_INDEPENDENT:        2.386
REMARK UNBOUND:                -2.521
REMARK  8 active torsions:
REMARK  status: ('A' for Active; 'I' for Inactive)
REMARK    1  A    between atoms: C_2  and  C_3 
REMARK    2  A    between atoms: C_6  and  N_7 
REMARK       I    between atoms: N_7  and  C_8 
REMARK    3  A    between atoms: C_8  and  C_10 
REMARK    4  A    between atoms: N_20  and  N_21 
REMARK    5  A    between atoms: N_21  and  S_22 
REMARK    6  A    between atoms: S_22  and  C_25 
REMARK    7  A    between atoms: C_27  and  O_28 
REMARK    8  A    between atoms: C_32  and  O_33 
ROOT
ATOM      1  C   UNL d   1      25.559  -9.287  -3.374  0.00  0.00     0.085 C 
ATOM      2  C   UNL d   1      25.825  -8.437  -2.359  0.00  0.00     0.035 C 
ATOM      3  C   UNL d   1      26.515  -8.909  -1.158  0.00  0.00    -0.001 C 
ATOM      4  C   UNL d   1      26.324  -8.348   0.113  0.00  0.00     0.014 C 
ATOM      5  C   UNL d   1      27.075  -8.798   1.207  0.00  0.00     0.001 C 
ATOM      6  C   UNL d   1      28.040  -9.790   1.023  0.00  0.00     0.003 C 
ATOM      7  C   UNL d   1      28.219 -10.375  -0.242  0.00  0.00     0.038 C 
ATOM      8  C   UNL d   1      27.383  -9.992  -1.300  0.00  0.00     0.088 C 
ATOM      9  O   UNL d   1      27.222 -10.852  -2.444  0.00  0.00    -0.291 OA
ATOM     10  C   UNL d   1      26.098 -10.632  -3.246  0.00  0.00     0.179 C 
ATOM     11  N   UNL d   1      25.580 -11.629  -3.879  0.00  0.00    -0.269 N 
ATOM     12  H   UNL d   1      24.647 -11.467  -4.270  0.00  0.00     0.190 HD
ENDROOT
BRANCH   1  13
ATOM     13  C   UNL d   1      24.805  -8.794  -4.583  0.00  0.00     0.260 C 
ATOM     14  N   UNL d   1      24.195  -7.520  -4.563  0.00  0.00    -0.323 N 
ATOM     15  H   UNL d   1      24.030  -6.889  -3.807  0.00  0.00     0.169 HD
ATOM     16  O   UNL d   1      24.777  -9.576  -5.529  0.00  0.00    -0.267 OA
BRANCH  14  17
ATOM     17  C   UNL d   1      23.412  -6.981  -5.609  0.00  0.00     0.035 A 
ATOM     18  C   UNL d   1      22.097  -6.539  -5.331  0.00  0.00     0.030 A 
ATOM     19  C   UNL d   1      21.240  -6.200  -6.383  0.00  0.00     0.009 A 
ATOM     20  C   UNL d   1      21.732  -6.219  -7.688  0.00  0.00    -0.058 A 
ATOM     21  C   UNL d   1      23.060  -6.577  -7.924  0.00  0.00     0.009 A 
ATOM     22  C   UNL d   1      23.884  -6.961  -6.901  0.00  0.00     0.030 A 
BRANCH  20  23
ATOM     23  C   UNL d   1      20.914  -5.863  -8.893  0.00  0.00     0.034 C 
ATOM     24  C   UNL d   1      19.466  -6.294  -8.684  0.00  0.00     0.010 C 
ENDBRANCH  20  23
ENDBRANCH  14  17
ENDBRANCH   1  13
BRANCH  11  25
ATOM     25  N   UNL d   1      26.157 -12.937  -4.069  0.00  0.00    -0.221 N 
ATOM     26  H   UNL d   1      27.171 -12.961  -3.974  0.00  0.00     0.200 HD
BRANCH  25  27
ATOM     27  S   UNL d   1      25.129 -14.353  -3.921  0.00  0.00     0.279 S 
ATOM     28  O   UNL d   1      23.774 -13.865  -3.867  0.00  0.00    -0.199 OA
ATOM     29  O   UNL d   1      25.537 -15.161  -5.066  0.00  0.00    -0.199 OA
BRANCH  27  30
ATOM     30  C   UNL d   1      25.484 -15.310  -2.370  0.00  0.00     0.117 C 
ATOM     31  C   UNL d   1      24.780 -16.535  -2.191  0.00  0.00     0.065 C 
ATOM     32  C   UNL d   1      24.931 -17.301  -1.005  0.00  0.00     0.069 C 
ATOM     33  C   UNL d   1      25.901 -16.950  -0.076  0.00  0.00     0.039 C 
ATOM     34  C   UNL d   1      26.567 -15.755  -0.209  0.00  0.00     0.041 C 
ATOM     35  C   UNL d   1      26.300 -14.893  -1.278  0.00  0.00     0.091 C 
BRANCH  32  36
ATOM     36  O   UNL d   1      24.078 -18.359  -0.794  0.00  0.00    -0.356 OA
ATOM     37  C   UNL d   1      22.738 -18.003  -0.399  0.00  0.00     0.210 C 
ENDBRANCH  32  36
BRANCH  35  38
ATOM     38  O   UNL d   1      26.924 -13.703  -0.971  0.00  0.00    -0.354 OA
ATOM     39  C   UNL d   1      26.655 -13.337   0.327  0.00  0.00     0.210 C 
ENDBRANCH  35  38
ENDBRANCH  27  30
ENDBRANCH  25  27
ENDBRANCH  11  25
TORSDOF 8
ENDMDL
MODEL 4
REMARK VINA RESULT:    -9.493      4.426      8.539
REMARK INTER + INTRA:         -14.658
REMARK INTER:                 -11.879
REMARK INTRA:                  -2.779
REMARK CONF_INDEPENDENT:        2.386
REMARK UNBOUND:                -2.779
REMARK  8 active torsions:
REMARK  status: ('A' for Active; 'I' for Inactive)
REMARK    1  A    between atoms: C_2  and  C_3 
REMARK    2  A    between atoms: C_6  and  N_7 
REMARK       I    between atoms: N_7  and  C_8 
REMARK    3  A    between atoms: C_8  and  C_10 
REMARK    4  A    between atoms: N_20  and  N_21 
REMARK    5  A    between atoms: N_21  and  S_22 
REMARK    6  A    between atoms: S_22  and  C_25 
REMARK    7  A    between atoms: C_27  and  O_28 
REMARK    8  A    between atoms: C_32  and  O_33 
ROOT
ATOM      1  C   UNL d   1      28.868 -14.874   0.332  0.00  0.00     0.085 C 
ATOM      2  C   UNL d   1      29.965 -15.648   0.182  0.00  0.00     0.035 C 
ATOM      3  C   UNL d   1      30.175 -16.403  -1.053  0.00  0.00    -0.001 C 
ATOM      4  C   UNL d   1      30.878 -17.616  -1.106  0.00  0.00     0.014 C 
ATOM      5  C   UNL d   1      31.109 -18.248  -2.334  0.00  0.00     0.001 C 
ATOM      6  C   UNL d   1      30.664 -17.652  -3.515  0.00  0.00     0.003 C 
ATOM      7  C   UNL d   1      29.936 -16.450  -3.468  0.00  0.00     0.038 C 
ATOM      8  C   UNL d   1      29.618 -15.889  -2.224  0.00  0.00     0.088 C 
ATOM      9  O   UNL d   1      28.529 -14.952  -2.108  0.00  0.00    -0.291 OA
ATOM     10  C   UNL d   1      28.002 -14.752  -0.829  0.00  0.00     0.179 C 
ATOM     11  N   UNL d   1      26.758 -14.434  -0.712  0.00  0.00    -0.269 N 
ATOM     12  H   UNL d   1      26.369 -14.512   0.233  0.00  0.00     0.190 HD
ENDROOT
BRANCH   1  13
ATOM     13  C   UNL d   1      28.644 -14.139   1.630  0.00  0.00     0.260 C 
ATOM     14  N   UNL d   1      29.434 -14.448   2.761  0.00  0.00    -0.323 N 
ATOM     15  H   UNL d   1      30.062 -15.205   2.929  0.00  0.00     0.169 HD
ATOM     16  O   UNL d   1      27.752 -13.298   1.601  0.00  0.00    -0.267 OA
BRANCH  14  17
ATOM     17  C   UNL d   1      29.272 -13.873   4.042  0.00  0.00     0.035 A 
ATOM     18  C   UNL d   1      29.694 -14.597   5.182  0.00  0.00     0.030 A 
ATOM     19  C   UNL d   1      29.355 -14.140   6.460  0.00  0.00     0.009 A 
ATOM     20  C   UNL d   1      28.680 -12.926   6.587  0.00  0.00    -0.058 A 
ATOM     21  C   UNL d   1      28.352 -12.193   5.447  0.00  0.00     0.009 A 
ATOM     22  C   UNL d   1      28.635 -12.664   4.193  0.00  0.00     0.030 A 
BRANCH  20  23
ATOM     23  C   UNL d   1      28.277 -12.330   7.903  0.00  0.00     0.034 C 
ATOM     24  C   UNL d   1      28.524 -13.332   9.025  0.00  0.00     0.010 C 
ENDBRANCH  20  23
ENDBRANCH  14  17
ENDBRANCH   1  13
BRANCH  11  25
ATOM     25  N   UNL d   1      25.862 -14.012  -1.760  0.00  0.00    -0.221 N 
ATOM     26  H   UNL d   1      26.146 -13.153  -2.228  0.00  0.00     0.200 HD
BRANCH  25  27
ATOM     27  S   UNL d   1      24.752 -15.181  -2.457  0.00  0.00     0.279 S 
ATOM     28  O   UNL d   1      23.563 -14.449  -2.812  0.00  0.00    -0.199 OA
ATOM     29  O   UNL d   1      25.550 -15.778  -3.524  0.00  0.00    -0.199 OA
BRANCH  27  30
ATOM     30  C   UNL d   1      24.298 -16.514  -1.247  0.00  0.00     0.117 C 
ATOM     31  C   UNL d   1      22.952 -16.976  -1.270  0.00  0.00     0.065 C 
ATOM     32  C   UNL d   1      22.492 -17.942  -0.335  0.00  0.00     0.069 C 
ATOM     33  C   UNL d   1      23.398 -18.575   0.505  0.00  0.00     0.039 C 
ATOM     34  C   UNL d   1      24.694 -18.122   0.569  0.00  0.00     0.041 C 
ATOM     35  C   UNL d   1      25.124 -17.045  -0.213  0.00  0.00     0.091 C 
BRANCH  32  36
ATOM     36  O   UNL d   1      21.142 -18.197  -0.266  0.00  0.00    -0.356 OA
ATOM     37  C   UNL d   1      20.689 -19.334  -1.029  0.00  0.00     0.210 C 
ENDBRANCH  32  36
BRANCH  35  38
ATOM     38  O   UNL d   1      26.361 -16.688   0.279  0.00  0.00    -0.354 OA
ATOM     39  C   UNL d   1      27.097 -17.807   0.591  0.00  0.00     0.210 C 
ENDBRANCH  35  38
ENDBRANCH  27  30
ENDBRANCH  25  27
ENDBRANCH  11  25
TORSDOF 8
ENDMDL
MODEL 5
REMARK VINA RESULT:    -9.476      2.826      9.557
REMARK INTER + INTRA:         -14.468
REMARK INTER:                 -11.863
REMARK INTRA:                  -2.605
REMARK CONF_INDEPENDENT:        2.386
REMARK UNBOUND:                -2.605
REMARK  8 active torsions:
REMARK  status: ('A' for Active; 'I' for Inactive)
REMARK    1  A    between atoms: C_2  and  C_3 
REMARK    2  A    between atoms: C_6  and  N_7 
REMARK       I    between atoms: N_7  and  C_8 
REMARK    3  A    between atoms: C_8  and  C_10 
REMARK    4  A    between atoms: N_20  and  N_21 
REMARK    5  A    between atoms: N_21  and  S_22 
REMARK    6  A    between atoms: S_22  and  C_25 
REMARK    7  A    between atoms: C_27  and  O_28 
REMARK    8  A    between atoms: C_32  and  O_33 
ROOT
ATOM      1  C   UNL d   1      25.703 -16.577  -0.866  0.00  0.00     0.085 C 
ATOM      2  C   UNL d   1      26.593 -17.461  -0.366  0.00  0.00     0.035 C 
ATOM      3  C   UNL d   1      28.029 -17.191  -0.443  0.00  0.00    -0.001 C 
ATOM      4  C   UNL d   1      29.001 -18.199  -0.522  0.00  0.00     0.014 C 
ATOM      5  C   UNL d   1      30.363 -17.872  -0.516  0.00  0.00     0.001 C 
ATOM      6  C   UNL d   1      30.755 -16.537  -0.398  0.00  0.00     0.003 C 
ATOM      7  C   UNL d   1      29.787 -15.519  -0.344  0.00  0.00     0.038 C 
ATOM      8  C   UNL d   1      28.431 -15.855  -0.464  0.00  0.00     0.088 C 
ATOM      9  O   UNL d   1      27.471 -14.858  -0.863  0.00  0.00    -0.291 OA
ATOM     10  C   UNL d   1      26.248 -15.322  -1.359  0.00  0.00     0.179 C 
ATOM     11  N   UNL d   1      25.617 -14.607  -2.226  0.00  0.00    -0.269 N 
ATOM     12  H   UNL d   1      24.851 -15.080  -2.715  0.00  0.00     0.190 HD
ENDROOT
BRANCH   1  13
ATOM     13  C   UNL d   1      24.230 -16.894  -0.820  0.00  0.00     0.260 C 
ATOM     14  N   UNL d   1      23.790 -18.132  -0.300  0.00  0.00    -0.323 N 
ATOM     15  H   UNL d   1      24.300 -18.959  -0.068  0.00  0.00     0.169 HD
ATOM     16  O   UNL d   1      23.497 -16.014  -1.261  0.00  0.00    -0.267 OA
BRANCH  14  17
ATOM     17  C   UNL d   1      22.445 -18.564  -0.267  0.00  0.00     0.035 A 
ATOM     18  C   UNL d   1      21.787 -18.681   0.981  0.00  0.00     0.030 A 
ATOM     19  C   UNL d   1      20.535 -19.300   1.051  0.00  0.00     0.009 A 
ATOM     20  C   UNL d   1      19.917 -19.713  -0.129  0.00  0.00    -0.058 A 
ATOM     21  C   UNL d   1      20.554 -19.506  -1.354  0.00  0.00     0.009 A 
ATOM     22  C   UNL d   1      21.802 -18.950  -1.420  0.00  0.00     0.030 A 
BRANCH  20  23
ATOM     23  C   UNL d   1      18.573 -20.375  -0.180  0.00  0.00     0.034 C 
ATOM     24  C   UNL d   1      18.352 -21.201   1.082  0.00  0.00     0.010 C 
ENDBRANCH  20  23
ENDBRANCH  14  17
ENDBRANCH   1  13
BRANCH  11  25
ATOM     25  N   UNL d   1      25.888 -13.239  -2.593  0.00  0.00    -0.221 N 
ATOM     26  H   UNL d   1      26.552 -12.769  -1.980  0.00  0.00     0.200 HD
BRANCH  25  27
ATOM     27  S   UNL d   1      25.517 -12.704  -4.224  0.00  0.00     0.279 S 
ATOM     28  O   UNL d   1      24.363 -13.458  -4.645  0.00  0.00    -0.199 OA
ATOM     29  O   UNL d   1      25.386 -11.259  -4.060  0.00  0.00    -0.199 OA
BRANCH  27  30
ATOM     30  C   UNL d   1      26.914 -13.037  -5.400  0.00  0.00     0.117 C 
ATOM     31  C   UNL d   1      27.181 -12.043  -6.384  0.00  0.00     0.065 C 
ATOM     32  C   UNL d   1      28.183 -12.240  -7.372  0.00  0.00     0.069 C 
ATOM     33  C   UNL d   1      29.032 -13.335  -7.285  0.00  0.00     0.039 C 
ATOM     34  C   UNL d   1      28.771 -14.324  -6.367  0.00  0.00     0.041 C 
ATOM     35  C   UNL d   1      27.675 -14.238  -5.502  0.00  0.00     0.091 C 
BRANCH  32  36
ATOM     36  O   UNL d   1      28.258 -11.348  -8.416  0.00  0.00    -0.356 OA
ATOM     37  C   UNL d   1      28.239 -11.935  -9.733  0.00  0.00     0.210 C 
ENDBRANCH  32  36
BRANCH  35  38
ATOM     38  O   UNL d   1      27.554 -15.481  -4.918  0.00  0.00    -0.354 OA
ATOM     39  C   UNL d   1      28.783 -15.947  -4.515  0.00  0.00     0.210 C 
ENDBRANCH  35  38
ENDBRANCH  27  30
ENDBRANCH  25  27
ENDBRANCH  11  25
TORSDOF 8
ENDMDL
MODEL 6
REMARK VINA RESULT:    -9.099      3.869      8.765
REMARK INTER + INTRA:         -14.725
REMARK INTER:                 -11.485
REMARK INTRA:                  -3.239
REMARK CONF_INDEPENDENT:        2.386
REMARK UNBOUND:                -3.239
REMARK  8 active torsions:
REMARK  status: ('A' for Active; 'I' for Inactive)
REMARK    1  A    between atoms: C_2  and  C_3 
REMARK    2  A    between atoms: C_6  and  N_7 
REMARK       I    between atoms: N_7  and  C_8 
REMARK    3  A    between atoms: C_8  and  C_10 
REMARK    4  A    between atoms: N_20  and  N_21 
REMARK    5  A    between atoms: N_21  and  S_22 
REMARK    6  A    between atoms: S_22  and  C_25 
REMARK    7  A    between atoms: C_27  and  O_28 
REMARK    8  A    between atoms: C_32  and  O_33 
ROOT
ATOM      1  C   UNL d   1      25.009 -16.813  -1.372  0.00  0.00     0.085 C 
ATOM      2  C   UNL d   1      24.520 -15.868  -2.203  0.00  0.00     0.035 C 
ATOM      3  C   UNL d   1      25.422 -14.935  -2.878  0.00  0.00    -0.001 C 
ATOM      4  C   UNL d   1      25.052 -13.633  -3.245  0.00  0.00     0.014 C 
ATOM      5  C   UNL d   1      25.941 -12.818  -3.958  0.00  0.00     0.001 C 
ATOM      6  C   UNL d   1      27.190 -13.316  -4.331  0.00  0.00     0.003 C 
ATOM      7  C   UNL d   1      27.578 -14.611  -3.945  0.00  0.00     0.038 C 
ATOM      8  C   UNL d   1      26.722 -15.371  -3.137  0.00  0.00     0.088 C 
ATOM      9  O   UNL d   1      27.240 -16.470  -2.363  0.00  0.00    -0.291 OA
ATOM     10  C   UNL d   1      26.458 -16.914  -1.293  0.00  0.00     0.179 C 
ATOM     11  N   UNL d   1      27.043 -17.430  -0.266  0.00  0.00    -0.269 N 
ATOM     12  H   UNL d   1      26.458 -17.536   0.569  0.00  0.00     0.190 HD
ENDROOT
BRANCH   1  13
ATOM     13  C   UNL d   1      24.061 -17.736  -0.649  0.00  0.00     0.260 C 
ATOM     14  N   UNL d   1      22.704 -17.798  -1.037  0.00  0.00    -0.323 N 
ATOM     15  H   UNL d   1      22.173 -17.211  -1.645  0.00  0.00     0.169 HD
ATOM     16  O   UNL d   1      24.565 -18.386   0.262  0.00  0.00    -0.267 OA
BRANCH  14  17
ATOM     17  C   UNL d   1      21.713 -18.574  -0.394  0.00  0.00     0.035 A 
ATOM     18  C   UNL d   1      20.680 -19.155  -1.167  0.00  0.00     0.030 A 
ATOM     19  C   UNL d   1      19.584 -19.746  -0.530  0.00  0.00     0.009 A 
ATOM     20  C   UNL d   1      19.574 -19.830   0.862  0.00  0.00    -0.058 A 
ATOM     21  C   UNL d   1      20.650 -19.325   1.594  0.00  0.00     0.009 A 
ATOM     22  C   UNL d   1      21.697 -18.698   0.976  0.00  0.00     0.030 A 
BRANCH  20  23
ATOM     23  C   UNL d   1      18.463 -20.453   1.653  0.00  0.00     0.034 C 
ATOM     24  C   UNL d   1      18.006 -21.742   0.980  0.00  0.00     0.010 C 
ENDBRANCH  20  23
ENDBRANCH  14  17
ENDBRANCH   1  13
BRANCH  11  25
ATOM     25  N   UNL d   1      28.420 -17.844  -0.163  0.00  0.00    -0.221 N 
ATOM     26  H   UNL d   1      28.547 -18.852  -0.099  0.00  0.00     0.200 HD
BRANCH  25  27
ATOM     27  S   UNL d   1      29.685 -16.730  -0.656  0.00  0.00     0.279 S 
ATOM     28  O   UNL d   1      30.793 -16.954   0.237  0.00  0.00    -0.199 OA
ATOM     29  O   UNL d   1      29.852 -17.049  -2.071  0.00  0.00    -0.199 OA
BRANCH  27  30
ATOM     30  C   UNL d   1      29.146 -14.959  -0.513  0.00  0.00     0.117 C 
ATOM     31  C   UNL d   1      28.219 -14.648   0.522  0.00  0.00     0.065 C 
ATOM     32  C   UNL d   1      27.694 -13.335   0.665  0.00  0.00     0.069 C 
ATOM     33  C   UNL d   1      28.211 -12.298  -0.099  0.00  0.00     0.039 C 
ATOM     34  C   UNL d   1      29.079 -12.581  -1.127  0.00  0.00     0.041 C 
ATOM     35  C   UNL d   1      29.469 -13.894  -1.405  0.00  0.00     0.091 C 
BRANCH  32  36
ATOM     36  O   UNL d   1      26.653 -13.138   1.542  0.00  0.00    -0.356 OA
ATOM     37  C   UNL d   1      27.030 -12.675   2.855  0.00  0.00     0.210 C 
ENDBRANCH  32  36
BRANCH  35  38
ATOM     38  O   UNL d   1      30.108 -13.851  -2.625  0.00  0.00    -0.354 OA
ATOM     39  C   UNL d   1      31.042 -12.842  -2.645  0.00  0.00     0.210 C 
ENDBRANCH  35  38
ENDBRANCH  27  30
ENDBRANCH  25  27
ENDBRANCH  11  25
TORSDOF 8
ENDMDL
MODEL 7
REMARK VINA RESULT:    -9.048      3.840      8.880
REMARK INTER + INTRA:         -14.951
REMARK INTER:                 -11.434
REMARK INTRA:                  -3.517
REMARK CONF_INDEPENDENT:        2.386
REMARK UNBOUND:                -3.517
REMARK  8 active torsions:
REMARK  status: ('A' for Active; 'I' for Inactive)
REMARK    1  A    between atoms: C_2  and  C_3 
REMARK    2  A    between atoms: C_6  and  N_7 
REMARK       I    between atoms: N_7  and  C_8 
REMARK    3  A    between atoms: C_8  and  C_10 
REMARK    4  A    between atoms: N_20  and  N_21 
REMARK    5  A    between atoms: N_21  and  S_22 
REMARK    6  A    between atoms: S_22  and  C_25 
REMARK    7  A    between atoms: C_27  and  O_28 
REMARK    8  A    between atoms: C_32  and  O_33 
ROOT
ATOM      1  C   UNL d   1      24.951 -16.765  -1.421  0.00  0.00     0.085 C 
ATOM      2  C   UNL d   1      24.442 -15.909  -2.333  0.00  0.00     0.035 C 
ATOM      3  C   UNL d   1      25.311 -14.953  -3.018  0.00  0.00    -0.001 C 
ATOM      4  C   UNL d   1      24.870 -13.705  -3.483  0.00  0.00     0.014 C 
ATOM      5  C   UNL d   1      25.737 -12.869  -4.199  0.00  0.00     0.001 C 
ATOM      6  C   UNL d   1      27.037 -13.294  -4.477  0.00  0.00     0.003 C 
ATOM      7  C   UNL d   1      27.494 -14.532  -3.993  0.00  0.00     0.038 C 
ATOM      8  C   UNL d   1      26.651 -15.305  -3.183  0.00  0.00     0.088 C 
ATOM      9  O   UNL d   1      27.203 -16.316  -2.318  0.00  0.00    -0.291 OA
ATOM     10  C   UNL d   1      26.396 -16.753  -1.263  0.00  0.00     0.179 C 
ATOM     11  N   UNL d   1      26.960 -17.164  -0.179  0.00  0.00    -0.269 N 
ATOM     12  H   UNL d   1      26.339 -17.265   0.631  0.00  0.00     0.190 HD
ENDROOT
BRANCH   1  13
ATOM     13  C   UNL d   1      24.032 -17.713  -0.691  0.00  0.00     0.260 C 
ATOM     14  N   UNL d   1      22.667 -17.785  -1.046  0.00  0.00    -0.323 N 
ATOM     15  H   UNL d   1      22.114 -17.194  -1.631  0.00  0.00     0.169 HD
ATOM     16  O   UNL d   1      24.567 -18.371   0.195  0.00  0.00    -0.267 OA
BRANCH  14  17
ATOM     17  C   UNL d   1      21.702 -18.585  -0.392  0.00  0.00     0.035 A 
ATOM     18  C   UNL d   1      20.702 -19.228  -1.160  0.00  0.00     0.030 A 
ATOM     19  C   UNL d   1      19.625 -19.847  -0.519  0.00  0.00     0.009 A 
ATOM     20  C   UNL d   1      19.604 -19.895   0.876  0.00  0.00    -0.058 A 
ATOM     21  C   UNL d   1      20.649 -19.326   1.604  0.00  0.00     0.009 A 
ATOM     22  C   UNL d   1      21.676 -18.672   0.980  0.00  0.00     0.030 A 
BRANCH  20  23
ATOM     23  C   UNL d   1      18.511 -20.543   1.672  0.00  0.00     0.034 C 
ATOM     24  C   UNL d   1      17.781 -21.569   0.813  0.00  0.00     0.010 C 
ENDBRANCH  20  23
ENDBRANCH  14  17
ENDBRANCH   1  13
BRANCH  11  25
ATOM     25  N   UNL d   1      28.355 -17.468   0.020  0.00  0.00    -0.221 N 
ATOM     26  H   UNL d   1      28.542 -18.448   0.225  0.00  0.00     0.200 HD
BRANCH  25  27
ATOM     27  S   UNL d   1      29.566 -16.350  -0.587  0.00  0.00     0.279 S 
ATOM     28  O   UNL d   1      30.651 -16.375   0.361  0.00  0.00    -0.199 OA
ATOM     29  O   UNL d   1      29.807 -16.848  -1.938  0.00  0.00    -0.199 OA
BRANCH  27  30
ATOM     30  C   UNL d   1      28.913 -14.616  -0.707  0.00  0.00     0.117 C 
ATOM     31  C   UNL d   1      29.630 -13.713  -1.542  0.00  0.00     0.065 C 
ATOM     32  C   UNL d   1      29.249 -12.347  -1.642  0.00  0.00     0.069 C 
ATOM     33  C   UNL d   1      28.066 -11.916  -1.057  0.00  0.00     0.039 C 
ATOM     34  C   UNL d   1      27.378 -12.761  -0.218  0.00  0.00     0.041 C 
ATOM     35  C   UNL d   1      27.836 -14.056   0.041  0.00  0.00     0.091 C 
BRANCH  32  36
ATOM     36  O   UNL d   1      30.092 -11.478  -2.293  0.00  0.00    -0.356 OA
ATOM     37  C   UNL d   1      31.071 -12.094  -3.154  0.00  0.00     0.210 C 
ENDBRANCH  32  36
BRANCH  35  38
ATOM     38  O   UNL d   1      27.084 -14.521   1.099  0.00  0.00    -0.354 OA
ATOM     39  C   UNL d   1      27.779 -14.390   2.278  0.00  0.00     0.210 C 
ENDBRANCH  35  38
ENDBRANCH  27  30
ENDBRANCH  25  27
ENDBRANCH  11  25
TORSDOF 8
ENDMDL
MODEL 8
REMARK VINA RESULT:    -8.807      3.862      7.667
REMARK INTER + INTRA:         -14.489
REMARK INTER:                 -11.194
REMARK INTRA:                  -3.296
REMARK CONF_INDEPENDENT:        2.386
REMARK UNBOUND:                -3.296
REMARK  8 active torsions:
REMARK  status: ('A' for Active; 'I' for Inactive)
REMARK    1  A    between atoms: C_2  and  C_3 
REMARK    2  A    between atoms: C_6  and  N_7 
REMARK       I    between atoms: N_7  and  C_8 
REMARK    3  A    between atoms: C_8  and  C_10 
REMARK    4  A    between atoms: N_20  and  N_21 
REMARK    5  A    between atoms: N_21  and  S_22 
REMARK    6  A    between atoms: S_22  and  C_25 
REMARK    7  A    between atoms: C_27  and  O_28 
REMARK    8  A    between atoms: C_32  and  O_33 
ROOT
ATOM      1  C   UNL d   1      30.270 -17.007  -2.057  0.00  0.00     0.085 C 
ATOM      2  C   UNL d   1      31.142 -17.945  -2.487  0.00  0.00     0.035 C 
ATOM      3  C   UNL d   1      30.994 -18.542  -3.814  0.00  0.00    -0.001 C 
ATOM      4  C   UNL d   1      31.409 -19.845  -4.125  0.00  0.00     0.014 C 
ATOM      5  C   UNL d   1      31.308 -20.328  -5.436  0.00  0.00     0.001 C 
ATOM      6  C   UNL d   1      30.820 -19.495  -6.445  0.00  0.00     0.003 C 
ATOM      7  C   UNL d   1      30.379 -18.197  -6.137  0.00  0.00     0.038 C 
ATOM      8  C   UNL d   1      30.383 -17.769  -4.802  0.00  0.00     0.088 C 
ATOM      9  O   UNL d   1      29.547 -16.670  -4.390  0.00  0.00    -0.291 OA
ATOM     10  C   UNL d   1      29.279 -16.559  -3.023  0.00  0.00     0.179 C 
ATOM     11  N   UNL d   1      28.164 -16.031  -2.649  0.00  0.00    -0.269 N 
ATOM     12  H   UNL d   1      27.919 -16.168  -1.663  0.00  0.00     0.190 HD
ENDROOT
BRANCH   1  13
ATOM     13  C   UNL d   1      30.411 -16.436  -0.669  0.00  0.00     0.260 C 
ATOM     14  N   UNL d   1      29.364 -15.667  -0.113  0.00  0.00    -0.323 N 
ATOM     15  H   UNL d   1      28.546 -15.279  -0.535  0.00  0.00     0.169 HD
ATOM     16  O   UNL d   1      31.472 -16.693  -0.109  0.00  0.00    -0.267 OA
BRANCH  14  17
ATOM     17  C   UNL d   1      29.409 -15.030   1.148  0.00  0.00     0.035 A 
ATOM     18  C   UNL d   1      30.664 -14.719   1.721  0.00  0.00     0.030 A 
ATOM     19  C   UNL d   1      30.734 -14.283   3.048  0.00  0.00     0.009 A 
ATOM     20  C   UNL d   1      29.549 -14.077   3.756  0.00  0.00    -0.058 A 
ATOM     21  C   UNL d   1      28.322 -14.311   3.135  0.00  0.00     0.009 A 
ATOM     22  C   UNL d   1      28.253 -14.789   1.854  0.00  0.00     0.030 A 
BRANCH  20  23
ATOM     23  C   UNL d   1      29.498 -13.599   5.175  0.00  0.00     0.034 C 
ATOM     24  C   UNL d   1      28.058 -13.614   5.677  0.00  0.00     0.010 C 
ENDBRANCH  20  23
ENDBRANCH  14  17
ENDBRANCH   1  13
BRANCH  11  25
ATOM     25  N   UNL d   1      27.225 -15.302  -3.465  0.00  0.00    -0.221 N 
ATOM     26  H   UNL d   1      27.425 -15.343  -4.463  0.00  0.00     0.200 HD
BRANCH  25  27
ATOM     27  S   UNL d   1      25.652 -14.893  -2.800  0.00  0.00     0.279 S 
ATOM     28  O   UNL d   1      25.840 -13.695  -2.023  0.00  0.00    -0.199 OA
ATOM     29  O   UNL d   1      24.812 -14.830  -3.992  0.00  0.00    -0.199 OA
BRANCH  27  30
ATOM     30  C   UNL d   1      24.998 -16.231  -1.691  0.00  0.00     0.117 C 
ATOM     31  C   UNL d   1      23.585 -16.398  -1.645  0.00  0.00     0.065 C 
ATOM     32  C   UNL d   1      22.987 -17.347  -0.772  0.00  0.00     0.069 C 
ATOM     33  C   UNL d   1      23.786 -18.244  -0.077  0.00  0.00     0.039 C 
ATOM     34  C   UNL d   1      25.150 -18.079  -0.079  0.00  0.00     0.041 C 
ATOM     35  C   UNL d   1      25.753 -17.035  -0.787  0.00  0.00     0.091 C 
BRANCH  32  36
ATOM     36  O   UNL d   1      21.621 -17.322  -0.615  0.00  0.00    -0.356 OA
ATOM     37  C   UNL d   1      20.949 -18.574  -0.858  0.00  0.00     0.210 C 
ENDBRANCH  32  36
BRANCH  35  38
ATOM     38  O   UNL d   1      27.066 -17.000  -0.369  0.00  0.00    -0.354 OA
ATOM     39  C   UNL d   1      27.292 -17.958   0.592  0.00  0.00     0.210 C 
ENDBRANCH  35  38
ENDBRANCH  27  30
ENDBRANCH  25  27
ENDBRANCH  11  25
TORSDOF 8
ENDMDL
MODEL 9
REMARK VINA RESULT:    -8.670      3.788      6.654
REMARK INTER + INTRA:         -14.391
REMARK INTER:                 -11.056
REMARK INTRA:                  -3.334
REMARK CONF_INDEPENDENT:        2.386
REMARK UNBOUND:                -3.334
REMARK  8 active torsions:
REMARK  status: ('A' for Active; 'I' for Inactive)
REMARK    1  A    between atoms: C_2  and  C_3 
REMARK    2  A    between atoms: C_6  and  N_7 
REMARK       I    between atoms: N_7  and  C_8 
REMARK    3  A    between atoms: C_8  and  C_10 
REMARK    4  A    between atoms: N_20  and  N_21 
REMARK    5  A    between atoms: N_21  and  S_22 
REMARK    6  A    between atoms: S_22  and  C_25 
REMARK    7  A    between atoms: C_27  and  O_28 
REMARK    8  A    between atoms: C_32  and  O_33 
ROOT
ATOM      1  C   UNL d   1      27.134 -11.313  -1.738  0.00  0.00     0.085 C 
ATOM      2  C   UNL d   1      26.895  -9.994  -1.577  0.00  0.00     0.035 C 
ATOM      3  C   UNL d   1      26.419  -9.184  -2.698  0.00  0.00    -0.001 C 
ATOM      4  C   UNL d   1      26.696  -7.816  -2.835  0.00  0.00     0.014 C 
ATOM      5  C   UNL d   1      26.145  -7.084  -3.895  0.00  0.00     0.001 C 
ATOM      6  C   UNL d   1      25.290  -7.713  -4.801  0.00  0.00     0.003 C 
ATOM      7  C   UNL d   1      25.028  -9.090  -4.686  0.00  0.00     0.038 C 
ATOM      8  C   UNL d   1      25.676  -9.830  -3.687  0.00  0.00     0.088 C 
ATOM      9  O   UNL d   1      25.797 -11.260  -3.809  0.00  0.00    -0.291 OA
ATOM     10  C   UNL d   1      26.779 -11.879  -3.029  0.00  0.00     0.179 C 
ATOM     11  N   UNL d   1      27.330 -12.960  -3.467  0.00  0.00    -0.269 N 
ATOM     12  H   UNL d   1      28.182 -13.250  -2.977  0.00  0.00     0.190 HD
ENDROOT
BRANCH   1  13
ATOM     13  C   UNL d   1      27.668 -12.122  -0.583  0.00  0.00     0.260 C 
ATOM     14  N   UNL d   1      27.023 -12.071   0.673  0.00  0.00    -0.323 N 
ATOM     15  H   UNL d   1      26.314 -11.456   1.017  0.00  0.00     0.169 HD
ATOM     16  O   UNL d   1      28.668 -12.786  -0.835  0.00  0.00    -0.267 OA
BRANCH  14  17
ATOM     17  C   UNL d   1      27.468 -12.732   1.840  0.00  0.00     0.035 A 
ATOM     18  C   UNL d   1      27.845 -14.093   1.762  0.00  0.00     0.030 A 
ATOM     19  C   UNL d   1      28.087 -14.816   2.935  0.00  0.00     0.009 A 
ATOM     20  C   UNL d   1      28.039 -14.151   4.161  0.00  0.00    -0.058 A 
ATOM     21  C   UNL d   1      27.749 -12.787   4.199  0.00  0.00     0.009 A 
ATOM     22  C   UNL d   1      27.459 -12.090   3.057  0.00  0.00     0.030 A 
BRANCH  20  23
ATOM     23  C   UNL d   1      28.294 -14.816   5.480  0.00  0.00     0.034 C 
ATOM     24  C   UNL d   1      29.681 -14.443   5.990  0.00  0.00     0.010 C 
ENDBRANCH  20  23
ENDBRANCH  14  17
ENDBRANCH   1  13
BRANCH  11  25
ATOM     25  N   UNL d   1      26.896 -13.776  -4.573  0.00  0.00    -0.221 N 
ATOM     26  H   UNL d   1      27.544 -13.789  -5.358  0.00  0.00     0.200 HD
BRANCH  25  27
ATOM     27  S   UNL d   1      25.669 -15.002  -4.298  0.00  0.00     0.279 S 
ATOM     28  O   UNL d   1      24.405 -14.311  -4.266  0.00  0.00    -0.199 OA
ATOM     29  O   UNL d   1      25.922 -15.949  -5.380  0.00  0.00    -0.199 OA
BRANCH  27  30
ATOM     30  C   UNL d   1      25.915 -15.880  -2.680  0.00  0.00     0.117 C 
ATOM     31  C   UNL d   1      24.778 -16.527  -2.117  0.00  0.00     0.065 C 
ATOM     32  C   UNL d   1      24.849 -17.163  -0.849  0.00  0.00     0.069 C 
ATOM     33  C   UNL d   1      26.078 -17.310  -0.219  0.00  0.00     0.039 C 
ATOM     34  C   UNL d   1      27.180 -16.664  -0.725  0.00  0.00     0.041 C 
ATOM     35  C   UNL d   1      27.093 -15.877  -1.878  0.00  0.00     0.091 C 
BRANCH  32  36
ATOM     36  O   UNL d   1      23.681 -17.587  -0.262  0.00  0.00    -0.356 OA
ATOM     37  C   UNL d   1      23.237 -18.904  -0.648  0.00  0.00     0.210 C 
ENDBRANCH  32  36
BRANCH  35  38
ATOM     38  O   UNL d   1      28.280 -15.180  -1.953  0.00  0.00    -0.354 OA
ATOM     39  C   UNL d   1      29.226 -15.748  -1.132  0.00  0.00     0.210 C 
ENDBRANCH  35  38
ENDBRANCH  27  30
ENDBRANCH  25  27
ENDBRANCH  11  25
TORSDOF 8
ENDMDL
