MODEL 1
REMARK VINA RESULT:    -8.241      0.000      0.000
REMARK INTER + INTRA:         -12.107
REMARK INTER:                 -10.031
REMARK INTRA:                  -2.077
REMARK CONF_INDEPENDENT:        1.790
REMARK UNBOUND:                -2.077
REMARK  6 active torsions:
REMARK  status: ('A' for Active; 'I' for Inactive)
REMARK    1  A    between atoms: C_2  and  C_11 
REMARK    2  A    between atoms: C_2  and  O_3 
REMARK    3  A    between atoms: O_3  and  C_4 
REMARK       I    between atoms: C_11  and  N_13 
REMARK    4  A    between atoms: N_13  and  N_14 
REMARK       I    between atoms: N_14  and  C_15 
REMARK    5  A    between atoms: C_15  and  C_17 
REMARK    6  A    between atoms: C_21  and  C_22 
ROOT
ATOM      1  N   UNL d   1      28.253 -14.826   2.816  0.00  0.00    -0.263 N 
ATOM      2  C   UNL d   1      27.744 -14.592   1.548  0.00  0.00     0.273 C 
ATOM      3  O   UNL d   1      27.044 -13.601   1.368  0.00  0.00    -0.266 OA
ATOM      4  H   UNL d   1      28.896 -15.574   3.051  0.00  0.00     0.190 HD
ENDROOT
BRANCH   1   5
ATOM      5  N   UNL d   1      27.913 -13.893   3.840  0.00  0.00    -0.265 N 
ATOM      6  C   UNL d   1      28.402 -14.074   5.128  0.00  0.00     0.265 C 
ATOM      7  O   UNL d   1      29.086 -15.062   5.400  0.00  0.00    -0.269 OA
ATOM      8  H   UNL d   1      27.352 -13.096   3.534  0.00  0.00     0.190 HD
BRANCH   6   9
ATOM      9  C   UNL d   1      28.045 -12.942   6.158  0.00  0.00     0.218 C 
ATOM     10  C   UNL d   1      27.783 -11.679   5.317  0.00  0.00     0.050 C 
BRANCH   9  11
ATOM     11  O   UNL d   1      29.110 -12.815   7.127  0.00  0.00    -0.334 OA
BRANCH  11  12
ATOM     12  C   UNL d   1      28.933 -13.178   8.438  0.00  0.00     0.108 C 
ATOM     13  C   UNL d   1      29.180 -14.450   8.948  0.00  0.00     0.040 C 
ATOM     14  C   UNL d   1      28.704 -14.842  10.200  0.00  0.00     0.003 C 
ATOM     15  C   UNL d   1      28.156 -13.901  11.057  0.00  0.00     0.003 C 
ATOM     16  C   UNL d   1      28.066 -12.575  10.639  0.00  0.00     0.045 C 
ATOM     17  C   UNL d   1      28.426 -12.225   9.331  0.00  0.00     0.149 C 
ATOM     18  F   UNL d   1      28.294 -10.942   8.961  0.00  0.00    -0.203 F 
ENDBRANCH  11  12
ENDBRANCH   9  11
ENDBRANCH   6   9
ENDBRANCH   1   5
BRANCH   2  19
ATOM     19  C   UNL d   1      28.068 -15.567   0.499  0.00  0.00     0.077 A 
ATOM     20  C   UNL d   1      29.312 -15.805  -0.055  0.00  0.00     0.128 A 
ATOM     21  N   UNL d   1      29.179 -16.868  -0.902  0.00  0.00    -0.288 N 
ATOM     22  N   UNL d   1      27.920 -17.312  -1.004  0.00  0.00    -0.178 NA
ATOM     23  H   UNL d   1      29.899 -17.346  -1.436  0.00  0.00     0.188 HD
ATOM     24  C   UNL d   1      27.230 -16.544  -0.147  0.00  0.00     0.076 A 
BRANCH  24  25
ATOM     25  C   UNL d   1      25.741 -16.758  -0.017  0.00  0.00     0.040 C 
ATOM     26  C   UNL d   1      24.987 -16.134  -1.198  0.00  0.00     0.011 C 
ATOM     27  C   UNL d   1      23.518 -16.514  -1.269  0.00  0.00     0.001 C 
ATOM     28  C   UNL d   1      23.321 -18.023  -1.163  0.00  0.00     0.000 C 
ATOM     29  C   UNL d   1      23.949 -18.565   0.114  0.00  0.00     0.001 C 
ATOM     30  C   UNL d   1      25.439 -18.255   0.164  0.00  0.00     0.011 C 
ENDBRANCH  24  25
ENDBRANCH   2  19
TORSDOF 6
ENDMDL
MODEL 2
REMARK VINA RESULT:    -8.010      2.085      2.895
REMARK INTER + INTRA:         -11.806
REMARK INTER:                  -9.800
REMARK INTRA:                  -2.006
REMARK CONF_INDEPENDENT:        1.790
REMARK UNBOUND:                -2.006
REMARK  6 active torsions:
REMARK  status: ('A' for Active; 'I' for Inactive)
REMARK    1  A    between atoms: C_2  and  C_11 
REMARK    2  A    between atoms: C_2  and  O_3 
REMARK    3  A    between atoms: O_3  and  C_4 
REMARK       I    between atoms: C_11  and  N_13 
REMARK    4  A    between atoms: N_13  and  N_14 
REMARK       I    between atoms: N_14  and  C_15 
REMARK    5  A    between atoms: C_15  and  C_17 
REMARK    6  A    between atoms: C_21  and  C_22 
ROOT
ATOM      1  N   UNL d   1      26.978 -14.264   0.798  0.00  0.00    -0.263 N 
ATOM      2  C   UNL d   1      27.238 -14.850  -0.432  0.00  0.00     0.273 C 
ATOM      3  O   UNL d   1      28.185 -15.624  -0.526  0.00  0.00    -0.266 OA
ATOM      4  H   UNL d   1      26.181 -13.668   0.996  0.00  0.00     0.190 HD
ENDROOT
BRANCH   1   5
ATOM      5  N   UNL d   1      27.846 -14.597   1.878  0.00  0.00    -0.265 N 
ATOM      6  C   UNL d   1      27.728 -13.925   3.090  0.00  0.00     0.265 C 
ATOM      7  O   UNL d   1      26.912 -13.012   3.217  0.00  0.00    -0.269 OA
ATOM      8  H   UNL d   1      28.490 -15.369   1.698  0.00  0.00     0.190 HD
BRANCH   6   9
ATOM      9  C   UNL d   1      28.670 -14.429   4.243  0.00  0.00     0.218 C 
ATOM     10  C   UNL d   1      27.789 -15.313   5.146  0.00  0.00     0.050 C 
BRANCH   9  11
ATOM     11  O   UNL d   1      29.274 -13.296   4.906  0.00  0.00    -0.334 OA
BRANCH  11  12
ATOM     12  C   UNL d   1      29.225 -13.154   6.269  0.00  0.00     0.108 C 
ATOM     13  C   UNL d   1      29.883 -13.980   7.177  0.00  0.00     0.040 C 
ATOM     14  C   UNL d   1      29.562 -13.979   8.534  0.00  0.00     0.003 C 
ATOM     15  C   UNL d   1      28.727 -12.998   9.046  0.00  0.00     0.003 C 
ATOM     16  C   UNL d   1      28.198 -12.040   8.184  0.00  0.00     0.045 C 
ATOM     17  C   UNL d   1      28.424 -12.137   6.805  0.00  0.00     0.149 C 
ATOM     18  F   UNL d   1      27.870 -11.210   6.008  0.00  0.00    -0.203 F 
ENDBRANCH  11  12
ENDBRANCH   9  11
ENDBRANCH   6   9
ENDBRANCH   1   5
BRANCH   2  19
ATOM     19  C   UNL d   1      26.362 -14.487  -1.553  0.00  0.00     0.077 A 
ATOM     20  C   UNL d   1      26.430 -13.338  -2.318  0.00  0.00     0.128 A 
ATOM     21  N   UNL d   1      25.508 -13.466  -3.318  0.00  0.00    -0.288 N 
ATOM     22  N   UNL d   1      24.786 -14.589  -3.235  0.00  0.00    -0.178 NA
ATOM     23  H   UNL d   1      25.323 -12.835  -4.092  0.00  0.00     0.188 HD
ATOM     24  C   UNL d   1      25.300 -15.233  -2.176  0.00  0.00     0.076 A 
BRANCH  24  25
ATOM     25  C   UNL d   1      24.698 -16.557  -1.768  0.00  0.00     0.040 C 
ATOM     26  C   UNL d   1      25.625 -17.314  -0.809  0.00  0.00     0.011 C 
ATOM     27  C   UNL d   1      24.990 -18.534  -0.164  0.00  0.00     0.001 C 
ATOM     28  C   UNL d   1      23.633 -18.203   0.451  0.00  0.00     0.000 C 
ATOM     29  C   UNL d   1      22.696 -17.604  -0.589  0.00  0.00     0.001 C 
ATOM     30  C   UNL d   1      23.289 -16.337  -1.192  0.00  0.00     0.011 C 
ENDBRANCH  24  25
ENDBRANCH   2  19
TORSDOF 6
ENDMDL
MODEL 3
REMARK VINA RESULT:    -7.616      7.720     11.164
REMARK INTER + INTRA:         -12.231
REMARK INTER:                  -9.406
REMARK INTRA:                  -2.825
REMARK CONF_INDEPENDENT:        1.790
REMARK UNBOUND:                -2.825
REMARK  6 active torsions:
REMARK  status: ('A' for Active; 'I' for Inactive)
REMARK    1  A    between atoms: C_2  and  C_11 
REMARK    2  A    between atoms: C_2  and  O_3 
REMARK    3  A    between atoms: O_3  and  C_4 
REMARK       I    between atoms: C_11  and  N_13 
REMARK    4  A    between atoms: N_13  and  N_14 
REMARK       I    between atoms: N_14  and  C_15 
REMARK    5  A    between atoms: C_15  and  C_17 
REMARK    6  A    between atoms: C_21  and  C_22 
ROOT
ATOM      1  N   UNL d   1      28.522 -15.870  -3.635  0.00  0.00    -0.263 N 
ATOM      2  C   UNL d   1      27.620 -15.400  -4.579  0.00  0.00     0.273 C 
ATOM      3  O   UNL d   1      27.889 -15.537  -5.768  0.00  0.00    -0.266 OA
ATOM      4  H   UNL d   1      28.362 -15.869  -2.634  0.00  0.00     0.190 HD
ENDROOT
BRANCH   1   5
ATOM      5  N   UNL d   1      29.718 -16.476  -4.118  0.00  0.00    -0.265 N 
ATOM      6  C   UNL d   1      30.462 -17.298  -3.279  0.00  0.00     0.265 C 
ATOM      7  O   UNL d   1      30.119 -17.463  -2.108  0.00  0.00    -0.269 OA
ATOM      8  H   UNL d   1      29.931 -16.299  -5.102  0.00  0.00     0.190 HD
BRANCH   6   9
ATOM      9  C   UNL d   1      31.712 -17.989  -3.936  0.00  0.00     0.218 C 
ATOM     10  C   UNL d   1      32.904 -17.656  -3.019  0.00  0.00     0.050 C 
BRANCH   9  11
ATOM     11  O   UNL d   1      31.853 -17.538  -5.302  0.00  0.00    -0.334 OA
BRANCH  11  12
ATOM     12  C   UNL d   1      31.469 -18.322  -6.359  0.00  0.00     0.108 C 
ATOM     13  C   UNL d   1      30.872 -19.575  -6.241  0.00  0.00     0.040 C 
ATOM     14  C   UNL d   1      30.780 -20.447  -7.326  0.00  0.00     0.003 C 
ATOM     15  C   UNL d   1      31.088 -19.999  -8.601  0.00  0.00     0.003 C 
ATOM     16  C   UNL d   1      31.514 -18.684  -8.773  0.00  0.00     0.045 C 
ATOM     17  C   UNL d   1      31.728 -17.864  -7.657  0.00  0.00     0.149 C 
ATOM     18  F   UNL d   1      32.168 -16.614  -7.868  0.00  0.00    -0.203 F 
ENDBRANCH  11  12
ENDBRANCH   9  11
ENDBRANCH   6   9
ENDBRANCH   1   5
BRANCH   2  19
ATOM     19  C   UNL d   1      26.400 -14.750  -4.084  0.00  0.00     0.077 A 
ATOM     20  C   UNL d   1      25.916 -13.508  -4.452  0.00  0.00     0.128 A 
ATOM     21  N   UNL d   1      24.704 -13.352  -3.841  0.00  0.00    -0.288 N 
ATOM     22  N   UNL d   1      24.378 -14.372  -3.040  0.00  0.00    -0.178 NA
ATOM     23  H   UNL d   1      24.046 -12.584  -3.930  0.00  0.00     0.188 HD
ATOM     24  C   UNL d   1      25.389 -15.242  -3.184  0.00  0.00     0.076 A 
BRANCH  24  25
ATOM     25  C   UNL d   1      25.362 -16.527  -2.392  0.00  0.00     0.040 C 
ATOM     26  C   UNL d   1      26.578 -16.629  -1.462  0.00  0.00     0.011 C 
ATOM     27  C   UNL d   1      26.500 -17.767  -0.459  0.00  0.00     0.001 C 
ATOM     28  C   UNL d   1      25.171 -17.767   0.291  0.00  0.00     0.000 C 
ATOM     29  C   UNL d   1      23.999 -17.832  -0.680  0.00  0.00     0.001 C 
ATOM     30  C   UNL d   1      24.024 -16.655  -1.645  0.00  0.00     0.011 C 
ENDBRANCH  24  25
ENDBRANCH   2  19
TORSDOF 6
ENDMDL
MODEL 4
REMARK VINA RESULT:    -7.506      8.230     11.496
REMARK INTER + INTRA:         -12.183
REMARK INTER:                  -9.296
REMARK INTRA:                  -2.887
REMARK CONF_INDEPENDENT:        1.790
REMARK UNBOUND:                -2.887
REMARK  6 active torsions:
REMARK  status: ('A' for Active; 'I' for Inactive)
REMARK    1  A    between atoms: C_2  and  C_11 
REMARK    2  A    between atoms: C_2  and  O_3 
REMARK    3  A    between atoms: O_3  and  C_4 
REMARK       I    between atoms: C_11  and  N_13 
REMARK    4  A    between atoms: N_13  and  N_14 
REMARK       I    between atoms: N_14  and  C_15 
REMARK    5  A    between atoms: C_15  and  C_17 
REMARK    6  A    between atoms: C_21  and  C_22 
ROOT
ATOM      1  N   UNL d   1      28.660 -14.302  -5.296  0.00  0.00    -0.263 N 
ATOM      2  C   UNL d   1      27.329 -14.686  -5.361  0.00  0.00     0.273 C 
ATOM      3  O   UNL d   1      27.011 -15.575  -6.145  0.00  0.00    -0.266 OA
ATOM      4  H   UNL d   1      29.035 -13.630  -4.635  0.00  0.00     0.190 HD
ENDROOT
BRANCH   1   5
ATOM      5  N   UNL d   1      29.576 -14.967  -6.163  0.00  0.00    -0.265 N 
ATOM      6  C   UNL d   1      30.937 -14.698  -6.065  0.00  0.00     0.265 C 
ATOM      7  O   UNL d   1      31.347 -13.853  -5.268  0.00  0.00    -0.269 OA
ATOM      8  H   UNL d   1      29.160 -15.658  -6.789  0.00  0.00     0.190 HD
BRANCH   6   9
ATOM      9  C   UNL d   1      31.868 -15.549  -7.001  0.00  0.00     0.218 C 
ATOM     10  C   UNL d   1      32.534 -14.541  -7.957  0.00  0.00     0.050 C 
BRANCH   9  11
ATOM     11  O   UNL d   1      31.090 -16.579  -7.652  0.00  0.00    -0.334 OA
BRANCH  11  12
ATOM     12  C   UNL d   1      30.792 -17.758  -7.020  0.00  0.00     0.108 C 
ATOM     13  C   UNL d   1      30.405 -17.868  -5.687  0.00  0.00     0.040 C 
ATOM     14  C   UNL d   1      30.407 -19.095  -5.022  0.00  0.00     0.003 C 
ATOM     15  C   UNL d   1      30.590 -20.268  -5.737  0.00  0.00     0.003 C 
ATOM     16  C   UNL d   1      30.796 -20.199  -7.113  0.00  0.00     0.045 C 
ATOM     17  C   UNL d   1      30.923 -18.953  -7.741  0.00  0.00     0.149 C 
ATOM     18  F   UNL d   1      31.151 -18.933  -9.063  0.00  0.00    -0.203 F 
ENDBRANCH  11  12
ENDBRANCH   9  11
ENDBRANCH   6   9
ENDBRANCH   1   5
BRANCH   2  19
ATOM     19  C   UNL d   1      26.378 -13.983  -4.490  0.00  0.00     0.077 A 
ATOM     20  C   UNL d   1      25.939 -12.680  -4.625  0.00  0.00     0.128 A 
ATOM     21  N   UNL d   1      24.978 -12.479  -3.675  0.00  0.00    -0.288 N 
ATOM     22  N   UNL d   1      24.794 -13.534  -2.874  0.00  0.00    -0.178 NA
ATOM     23  H   UNL d   1      24.405 -11.655  -3.520  0.00  0.00     0.188 HD
ATOM     24  C   UNL d   1      25.625 -14.468  -3.362  0.00  0.00     0.076 A 
BRANCH  24  25
ATOM     25  C   UNL d   1      25.697 -15.810  -2.673  0.00  0.00     0.040 C 
ATOM     26  C   UNL d   1      26.962 -15.924  -1.814  0.00  0.00     0.011 C 
ATOM     27  C   UNL d   1      26.986 -17.138  -0.902  0.00  0.00     0.001 C 
ATOM     28  C   UNL d   1      25.700 -17.260  -0.091  0.00  0.00     0.000 C 
ATOM     29  C   UNL d   1      24.484 -17.307  -1.007  0.00  0.00     0.001 C 
ATOM     30  C   UNL d   1      24.405 -16.060  -1.876  0.00  0.00     0.011 C 
ENDBRANCH  24  25
ENDBRANCH   2  19
TORSDOF 6
ENDMDL
MODEL 5
REMARK VINA RESULT:    -7.248      6.592      9.324
REMARK INTER + INTRA:         -11.822
REMARK INTER:                  -9.038
REMARK INTRA:                  -2.785
REMARK CONF_INDEPENDENT:        1.790
REMARK UNBOUND:                -2.785
REMARK  6 active torsions:
REMARK  status: ('A' for Active; 'I' for Inactive)
REMARK    1  A    between atoms: C_2  and  C_11 
REMARK    2  A    between atoms: C_2  and  O_3 
REMARK    3  A    between atoms: O_3  and  C_4 
REMARK       I    between atoms: C_11  and  N_13 
REMARK    4  A    between atoms: N_13  and  N_14 
REMARK       I    between atoms: N_14  and  C_15 
REMARK    5  A    between atoms: C_15  and  C_17 
REMARK    6  A    between atoms: C_21  and  C_22 
ROOT
ATOM      1  N   UNL d   1      28.106 -14.848  -3.979  0.00  0.00    -0.263 N 
ATOM      2  C   UNL d   1      27.505 -14.857  -5.229  0.00  0.00     0.273 C 
ATOM      3  O   UNL d   1      26.512 -15.556  -5.399  0.00  0.00    -0.266 OA
ATOM      4  H   UNL d   1      28.885 -14.253  -3.717  0.00  0.00     0.190 HD
ENDROOT
BRANCH   1   5
ATOM      5  N   UNL d   1      27.526 -15.670  -2.969  0.00  0.00    -0.265 N 
ATOM      6  C   UNL d   1      27.890 -15.488  -1.639  0.00  0.00     0.265 C 
ATOM      7  O   UNL d   1      28.745 -14.655  -1.337  0.00  0.00    -0.269 OA
ATOM      8  H   UNL d   1      26.819 -16.330  -3.296  0.00  0.00     0.190 HD
BRANCH   6   9
ATOM      9  C   UNL d   1      27.127 -16.382  -0.596  0.00  0.00     0.218 C 
ATOM     10  C   UNL d   1      28.219 -17.089   0.228  0.00  0.00     0.050 C 
BRANCH   9  11
ATOM     11  O   UNL d   1      26.220 -17.269  -1.289  0.00  0.00    -0.334 OA
BRANCH  11  12
ATOM     12  C   UNL d   1      24.924 -17.437  -0.874  0.00  0.00     0.108 C 
ATOM     13  C   UNL d   1      24.437 -18.575  -0.235  0.00  0.00     0.040 C 
ATOM     14  C   UNL d   1      23.069 -18.815  -0.108  0.00  0.00     0.003 C 
ATOM     15  C   UNL d   1      22.160 -17.818  -0.427  0.00  0.00     0.003 C 
ATOM     16  C   UNL d   1      22.632 -16.595  -0.897  0.00  0.00     0.045 C 
ATOM     17  C   UNL d   1      24.001 -16.419  -1.143  0.00  0.00     0.149 C 
ATOM     18  F   UNL d   1      24.408 -15.235  -1.625  0.00  0.00    -0.203 F 
ENDBRANCH  11  12
ENDBRANCH   9  11
ENDBRANCH   6   9
ENDBRANCH   1   5
BRANCH   2  19
ATOM     19  C   UNL d   1      28.117 -14.034  -6.279  0.00  0.00     0.077 A 
ATOM     20  C   UNL d   1      29.160 -14.394  -7.113  0.00  0.00     0.128 A 
ATOM     21  N   UNL d   1      29.327 -13.377  -8.010  0.00  0.00    -0.288 N 
ATOM     22  N   UNL d   1      28.515 -12.337  -7.792  0.00  0.00    -0.178 NA
ATOM     23  H   UNL d   1      29.967 -13.328  -8.797  0.00  0.00     0.188 HD
ATOM     24  C   UNL d   1      27.758 -12.721  -6.752  0.00  0.00     0.076 A 
BRANCH  24  25
ATOM     25  C   UNL d   1      26.724 -11.763  -6.212  0.00  0.00     0.040 C 
ATOM     26  C   UNL d   1      26.956 -11.480  -4.723  0.00  0.00     0.011 C 
ATOM     27  C   UNL d   1      26.113 -10.345  -4.167  0.00  0.00     0.001 C 
ATOM     28  C   UNL d   1      26.209  -9.095  -5.035  0.00  0.00     0.000 C 
ATOM     29  C   UNL d   1      25.808  -9.400  -6.473  0.00  0.00     0.001 C 
ATOM     30  C   UNL d   1      26.694 -10.486  -7.068  0.00  0.00     0.011 C 
ENDBRANCH  24  25
ENDBRANCH   2  19
TORSDOF 6
ENDMDL
MODEL 6
REMARK VINA RESULT:    -7.118      2.911      4.066
REMARK INTER + INTRA:         -11.785
REMARK INTER:                  -8.908
REMARK INTRA:                  -2.877
REMARK CONF_INDEPENDENT:        1.790
REMARK UNBOUND:                -2.877
REMARK  6 active torsions:
REMARK  status: ('A' for Active; 'I' for Inactive)
REMARK    1  A    between atoms: C_2  and  C_11 
REMARK    2  A    between atoms: C_2  and  O_3 
REMARK    3  A    between atoms: O_3  and  C_4 
REMARK       I    between atoms: C_11  and  N_13 
REMARK    4  A    between atoms: N_13  and  N_14 
REMARK       I    between atoms: N_14  and  C_15 
REMARK    5  A    between atoms: C_15  and  C_17 
REMARK    6  A    between atoms: C_21  and  C_22 
ROOT
ATOM      1  N   UNL d   1      26.906 -12.564  -0.468  0.00  0.00    -0.263 N 
ATOM      2  C   UNL d   1      26.280 -13.780  -0.699  0.00  0.00     0.273 C 
ATOM      3  O   UNL d   1      26.041 -14.510   0.257  0.00  0.00    -0.266 OA
ATOM      4  H   UNL d   1      27.083 -11.861  -1.178  0.00  0.00     0.190 HD
ENDROOT
BRANCH   1   5
ATOM      5  N   UNL d   1      27.244 -12.248   0.881  0.00  0.00    -0.265 N 
ATOM      6  C   UNL d   1      27.819 -11.018   1.178  0.00  0.00     0.265 C 
ATOM      7  O   UNL d   1      28.082 -10.221   0.276  0.00  0.00    -0.269 OA
ATOM      8  H   UNL d   1      26.987 -12.955   1.572  0.00  0.00     0.190 HD
BRANCH   6   9
ATOM      9  C   UNL d   1      28.067 -10.732   2.703  0.00  0.00     0.218 C 
ATOM     10  C   UNL d   1      29.584 -10.899   2.918  0.00  0.00     0.050 C 
BRANCH   9  11
ATOM     11  O   UNL d   1      27.242 -11.610   3.501  0.00  0.00    -0.334 OA
BRANCH  11  12
ATOM     12  C   UNL d   1      27.780 -12.663   4.197  0.00  0.00     0.108 C 
ATOM     13  C   UNL d   1      27.930 -13.952   3.693  0.00  0.00     0.040 C 
ATOM     14  C   UNL d   1      28.196 -15.039   4.527  0.00  0.00     0.003 C 
ATOM     15  C   UNL d   1      28.531 -14.825   5.855  0.00  0.00     0.003 C 
ATOM     16  C   UNL d   1      28.570 -13.521   6.342  0.00  0.00     0.045 C 
ATOM     17  C   UNL d   1      28.170 -12.454   5.526  0.00  0.00     0.149 C 
ATOM     18  F   UNL d   1      28.194 -11.218   6.047  0.00  0.00    -0.203 F 
ENDBRANCH  11  12
ENDBRANCH   9  11
ENDBRANCH   6   9
ENDBRANCH   1   5
BRANCH   2  19
ATOM     19  C   UNL d   1      25.957 -14.120  -2.090  0.00  0.00     0.077 A 
ATOM     20  C   UNL d   1      25.991 -13.271  -3.180  0.00  0.00     0.128 A 
ATOM     21  N   UNL d   1      25.735 -14.027  -4.288  0.00  0.00    -0.288 N 
ATOM     22  N   UNL d   1      25.467 -15.308  -4.007  0.00  0.00    -0.178 NA
ATOM     23  H   UNL d   1      25.733 -13.742  -5.263  0.00  0.00     0.188 HD
ATOM     24  C   UNL d   1      25.612 -15.390  -2.676  0.00  0.00     0.076 A 
BRANCH  24  25
ATOM     25  C   UNL d   1      25.360 -16.715  -1.997  0.00  0.00     0.040 C 
ATOM     26  C   UNL d   1      26.504 -17.075  -1.042  0.00  0.00     0.011 C 
ATOM     27  C   UNL d   1      26.214 -18.265  -0.144  0.00  0.00     0.001 C 
ATOM     28  C   UNL d   1      24.869 -18.123   0.562  0.00  0.00     0.000 C 
ATOM     29  C   UNL d   1      23.744 -17.932  -0.447  0.00  0.00     0.001 C 
ATOM     30  C   UNL d   1      23.986 -16.698  -1.307  0.00  0.00     0.011 C 
ENDBRANCH  24  25
ENDBRANCH   2  19
TORSDOF 6
ENDMDL
MODEL 7
REMARK VINA RESULT:    -7.031      3.270      4.673
REMARK INTER + INTRA:         -11.955
REMARK INTER:                  -8.821
REMARK INTRA:                  -3.134
REMARK CONF_INDEPENDENT:        1.790
REMARK UNBOUND:                -3.134
REMARK  6 active torsions:
REMARK  status: ('A' for Active; 'I' for Inactive)
REMARK    1  A    between atoms: C_2  and  C_11 
REMARK    2  A    between atoms: C_2  and  O_3 
REMARK    3  A    between atoms: O_3  and  C_4 
REMARK       I    between atoms: C_11  and  N_13 
REMARK    4  A    between atoms: N_13  and  N_14 
REMARK       I    between atoms: N_14  and  C_15 
REMARK    5  A    between atoms: C_15  and  C_17 
REMARK    6  A    between atoms: C_21  and  C_22 
ROOT
ATOM      1  N   UNL d   1      28.033 -13.925  -1.124  0.00  0.00    -0.263 N 
ATOM      2  C   UNL d   1      26.719 -13.481  -1.139  0.00  0.00     0.273 C 
ATOM      3  O   UNL d   1      26.280 -12.909  -0.146  0.00  0.00    -0.266 OA
ATOM      4  H   UNL d   1      28.509 -14.344  -1.915  0.00  0.00     0.190 HD
ENDROOT
BRANCH   1   5
ATOM      5  N   UNL d   1      28.788 -13.693   0.063  0.00  0.00    -0.265 N 
ATOM      6  C   UNL d   1      30.075 -14.208   0.173  0.00  0.00     0.265 C 
ATOM      7  O   UNL d   1      30.544 -14.904  -0.728  0.00  0.00    -0.269 OA
ATOM      8  H   UNL d   1      28.334 -13.100   0.760  0.00  0.00     0.190 HD
BRANCH   6   9
ATOM      9  C   UNL d   1      30.855 -13.819   1.481  0.00  0.00     0.218 C 
ATOM     10  C   UNL d   1      31.303 -15.150   2.112  0.00  0.00     0.050 C 
BRANCH   9  11
ATOM     11  O   UNL d   1      30.011 -13.002   2.323  0.00  0.00    -0.334 OA
BRANCH  11  12
ATOM     12  C   UNL d   1      29.509 -13.475   3.508  0.00  0.00     0.108 C 
ATOM     13  C   UNL d   1      30.161 -13.391   4.736  0.00  0.00     0.040 C 
ATOM     14  C   UNL d   1      29.751 -14.143   5.836  0.00  0.00     0.003 C 
ATOM     15  C   UNL d   1      28.549 -14.833   5.793  0.00  0.00     0.003 C 
ATOM     16  C   UNL d   1      27.780 -14.783   4.632  0.00  0.00     0.045 C 
ATOM     17  C   UNL d   1      28.272 -14.132   3.493  0.00  0.00     0.149 C 
ATOM     18  F   UNL d   1      27.511 -14.135   2.387  0.00  0.00    -0.203 F 
ENDBRANCH  11  12
ENDBRANCH   9  11
ENDBRANCH   6   9
ENDBRANCH   1   5
BRANCH   2  19
ATOM     19  C   UNL d   1      25.930 -13.744  -2.349  0.00  0.00     0.077 A 
ATOM     20  C   UNL d   1      25.609 -12.838  -3.341  0.00  0.00     0.128 A 
ATOM     21  N   UNL d   1      24.969 -13.532  -4.329  0.00  0.00    -0.288 N 
ATOM     22  N   UNL d   1      24.782 -14.824  -4.034  0.00  0.00    -0.178 NA
ATOM     23  H   UNL d   1      24.640 -13.195  -5.228  0.00  0.00     0.188 HD
ATOM     24  C   UNL d   1      25.373 -14.979  -2.840  0.00  0.00     0.076 A 
BRANCH  24  25
ATOM     25  C   UNL d   1      25.335 -16.337  -2.180  0.00  0.00     0.040 C 
ATOM     26  C   UNL d   1      26.612 -16.594  -1.370  0.00  0.00     0.011 C 
ATOM     27  C   UNL d   1      26.548 -17.826  -0.483  0.00  0.00     0.001 C 
ATOM     28  C   UNL d   1      25.284 -17.839   0.371  0.00  0.00     0.000 C 
ATOM     29  C   UNL d   1      24.039 -17.746  -0.500  0.00  0.00     0.001 C 
ATOM     30  C   UNL d   1      24.054 -16.477  -1.341  0.00  0.00     0.011 C 
ENDBRANCH  24  25
ENDBRANCH   2  19
TORSDOF 6
ENDMDL
MODEL 8
REMARK VINA RESULT:    -6.948      7.889     11.563
REMARK INTER + INTRA:         -11.725
REMARK INTER:                  -8.737
REMARK INTRA:                  -2.987
REMARK CONF_INDEPENDENT:        1.790
REMARK UNBOUND:                -2.987
REMARK  6 active torsions:
REMARK  status: ('A' for Active; 'I' for Inactive)
REMARK    1  A    between atoms: C_2  and  C_11 
REMARK    2  A    between atoms: C_2  and  O_3 
REMARK    3  A    between atoms: O_3  and  C_4 
REMARK       I    between atoms: C_11  and  N_13 
REMARK    4  A    between atoms: N_13  and  N_14 
REMARK       I    between atoms: N_14  and  C_15 
REMARK    5  A    between atoms: C_15  and  C_17 
REMARK    6  A    between atoms: C_21  and  C_22 
ROOT
ATOM      1  N   UNL d   1      28.271 -15.923  -4.372  0.00  0.00    -0.263 N 
ATOM      2  C   UNL d   1      27.329 -15.209  -5.098  0.00  0.00     0.273 C 
ATOM      3  O   UNL d   1      27.413 -15.200  -6.322  0.00  0.00    -0.266 OA
ATOM      4  H   UNL d   1      28.249 -16.051  -3.366  0.00  0.00     0.190 HD
ENDROOT
BRANCH   1   5
ATOM      5  N   UNL d   1      29.292 -16.594  -5.107  0.00  0.00    -0.265 N 
ATOM      6  C   UNL d   1      30.149 -17.471  -4.452  0.00  0.00     0.265 C 
ATOM      7  O   UNL d   1      30.062 -17.632  -3.235  0.00  0.00    -0.269 OA
ATOM      8  H   UNL d   1      29.294 -16.416  -6.113  0.00  0.00     0.190 HD
BRANCH   6   9
ATOM      9  C   UNL d   1      31.178 -18.228  -5.368  0.00  0.00     0.218 C 
ATOM     10  C   UNL d   1      32.569 -17.902  -4.792  0.00  0.00     0.050 C 
BRANCH   9  11
ATOM     11  O   UNL d   1      30.984 -17.833  -6.745  0.00  0.00    -0.334 OA
BRANCH  11  12
ATOM     12  C   UNL d   1      31.655 -16.767  -7.286  0.00  0.00     0.108 C 
ATOM     13  C   UNL d   1      31.370 -15.431  -7.018  0.00  0.00     0.040 C 
ATOM     14  C   UNL d   1      31.873 -14.400  -7.812  0.00  0.00     0.003 C 
ATOM     15  C   UNL d   1      32.846 -14.672  -8.762  0.00  0.00     0.003 C 
ATOM     16  C   UNL d   1      33.287 -15.983  -8.925  0.00  0.00     0.045 C 
ATOM     17  C   UNL d   1      32.676 -17.023  -8.211  0.00  0.00     0.149 C 
ATOM     18  F   UNL d   1      33.112 -18.274  -8.422  0.00  0.00    -0.203 F 
ENDBRANCH  11  12
ENDBRANCH   9  11
ENDBRANCH   6   9
ENDBRANCH   1   5
BRANCH   2  19
ATOM     19  C   UNL d   1      26.293 -14.493  -4.342  0.00  0.00     0.077 A 
ATOM     20  C   UNL d   1      25.812 -13.222  -4.596  0.00  0.00     0.128 A 
ATOM     21  N   UNL d   1      24.782 -13.001  -3.728  0.00  0.00    -0.288 N 
ATOM     22  N   UNL d   1      24.586 -14.008  -2.868  0.00  0.00    -0.178 NA
ATOM     23  H   UNL d   1      24.167 -12.195  -3.668  0.00  0.00     0.188 HD
ATOM     24  C   UNL d   1      25.486 -14.934  -3.234  0.00  0.00     0.076 A 
BRANCH  24  25
ATOM     25  C   UNL d   1      25.563 -16.222  -2.450  0.00  0.00     0.040 C 
ATOM     26  C   UNL d   1      26.821 -16.261  -1.574  0.00  0.00     0.011 C 
ATOM     27  C   UNL d   1      26.849 -17.406  -0.577  0.00  0.00     0.001 C 
ATOM     28  C   UNL d   1      25.556 -17.483   0.229  0.00  0.00     0.000 C 
ATOM     29  C   UNL d   1      24.349 -17.609  -0.691  0.00  0.00     0.001 C 
ATOM     30  C   UNL d   1      24.267 -16.428  -1.648  0.00  0.00     0.011 C 
ENDBRANCH  24  25
ENDBRANCH   2  19
TORSDOF 6
ENDMDL
MODEL 9
REMARK VINA RESULT:    -6.854      7.305     11.355
REMARK INTER + INTRA:         -11.633
REMARK INTER:                  -8.644
REMARK INTRA:                  -2.989
REMARK CONF_INDEPENDENT:        1.790
REMARK UNBOUND:                -2.989
REMARK  6 active torsions:
REMARK  status: ('A' for Active; 'I' for Inactive)
REMARK    1  A    between atoms: C_2  and  C_11 
REMARK    2  A    between atoms: C_2  and  O_3 
REMARK    3  A    between atoms: O_3  and  C_4 
REMARK       I    between atoms: C_11  and  N_13 
REMARK    4  A    between atoms: N_13  and  N_14 
REMARK       I    between atoms: N_14  and  C_15 
REMARK    5  A    between atoms: C_15  and  C_17 
REMARK    6  A    between atoms: C_21  and  C_22 
ROOT
ATOM      1  N   UNL d   1      28.415 -15.508  -3.827  0.00  0.00    -0.263 N 
ATOM      2  C   UNL d   1      27.484 -15.032  -4.738  0.00  0.00     0.273 C 
ATOM      3  O   UNL d   1      27.403 -15.575  -5.835  0.00  0.00    -0.266 OA
ATOM      4  H   UNL d   1      28.512 -15.175  -2.874  0.00  0.00     0.190 HD
ENDROOT
BRANCH   1   5
ATOM      5  N   UNL d   1      29.232 -16.602  -4.238  0.00  0.00    -0.265 N 
ATOM      6  C   UNL d   1      30.107 -17.187  -3.330  0.00  0.00     0.265 C 
ATOM      7  O   UNL d   1      30.216 -16.733  -2.191  0.00  0.00    -0.269 OA
ATOM      8  H   UNL d   1      29.078 -16.926  -5.194  0.00  0.00     0.190 HD
BRANCH   6   9
ATOM      9  C   UNL d   1      30.894 -18.443  -3.856  0.00  0.00     0.218 C 
ATOM     10  C   UNL d   1      32.281 -17.921  -4.277  0.00  0.00     0.050 C 
BRANCH   9  11
ATOM     11  O   UNL d   1      30.140 -19.080  -4.911  0.00  0.00    -0.334 OA
BRANCH  11  12
ATOM     12  C   UNL d   1      30.712 -19.379  -6.120  0.00  0.00     0.108 C 
ATOM     13  C   UNL d   1      30.848 -18.483  -7.177  0.00  0.00     0.040 C 
ATOM     14  C   UNL d   1      31.155 -18.913  -8.468  0.00  0.00     0.003 C 
ATOM     15  C   UNL d   1      31.545 -20.226  -8.685  0.00  0.00     0.003 C 
ATOM     16  C   UNL d   1      31.598 -21.104  -7.605  0.00  0.00     0.045 C 
ATOM     17  C   UNL d   1      31.158 -20.689  -6.341  0.00  0.00     0.149 C 
ATOM     18  F   UNL d   1      31.197 -21.578  -5.336  0.00  0.00    -0.203 F 
ENDBRANCH  11  12
ENDBRANCH   9  11
ENDBRANCH   6   9
ENDBRANCH   1   5
BRANCH   2  19
ATOM     19  C   UNL d   1      26.662 -13.886  -4.329  0.00  0.00     0.077 A 
ATOM     20  C   UNL d   1      26.466 -12.713  -5.033  0.00  0.00     0.128 A 
ATOM     21  N   UNL d   1      25.542 -11.980  -4.344  0.00  0.00    -0.288 N 
ATOM     22  N   UNL d   1      25.158 -12.551  -3.197  0.00  0.00    -0.178 NA
ATOM     23  H   UNL d   1      25.124 -11.089  -4.598  0.00  0.00     0.188 HD
ATOM     24  C   UNL d   1      25.816 -13.720  -3.175  0.00  0.00     0.076 A 
BRANCH  24  25
ATOM     25  C   UNL d   1      25.633 -14.635  -1.987  0.00  0.00     0.040 C 
ATOM     26  C   UNL d   1      25.175 -16.030  -2.429  0.00  0.00     0.011 C 
ATOM     27  C   UNL d   1      25.204 -17.073  -1.324  0.00  0.00     0.001 C 
ATOM     28  C   UNL d   1      26.545 -17.086  -0.598  0.00  0.00     0.000 C 
ATOM     29  C   UNL d   1      26.873 -15.708  -0.038  0.00  0.00     0.001 C 
ATOM     30  C   UNL d   1      26.920 -14.665  -1.145  0.00  0.00     0.011 C 
ENDBRANCH  24  25
ENDBRANCH   2  19
TORSDOF 6
ENDMDL
