MODEL 1
REMARK VINA RESULT:    -8.055      0.000      0.000
REMARK INTER + INTRA:         -11.294
REMARK INTER:                  -9.546
REMARK INTRA:                  -1.748
REMARK CONF_INDEPENDENT:        1.492
REMARK UNBOUND:                -1.748
REMARK  5 active torsions:
REMARK  status: ('A' for Active; 'I' for Inactive)
REMARK    1  A    between atoms: C_2  and  C_4 
REMARK    2  A    between atoms: C_2  and  N_6 
REMARK    3  A    between atoms: C_4  and  O_5 
REMARK       I    between atoms: N_6  and  C_7 
REMARK    4  A    between atoms: C_7  and  C_9 
REMARK    5  A    between atoms: C_11  and  C_12 
ROOT
ATOM      1  C   UNL d   1      23.281 -18.066  -0.375  0.00  0.00     0.264 A 
ATOM      2  N   UNL d   1      24.012 -17.348  -1.205  0.00  0.00    -0.195 NA
ATOM      3  C   UNL d   1      25.266 -17.443  -0.633  0.00  0.00     0.190 A 
ATOM      4  N   UNL d   1      25.321 -18.233   0.452  0.00  0.00    -0.105 NA
ATOM      5  O   UNL d   1      23.999 -18.625   0.640  0.00  0.00    -0.185 OA
ENDROOT
BRANCH   1   6
ATOM      6  C   UNL d   1      21.847 -18.245  -0.384  0.00  0.00     0.297 C 
ATOM      7  N   UNL d   1      21.359 -19.403   0.217  0.00  0.00    -0.343 N 
ATOM      8  H   UNL d   1      22.032 -20.025   0.653  0.00  0.00     0.163 HD
ATOM      9  O   UNL d   1      21.087 -17.416  -0.895  0.00  0.00    -0.264 OA
BRANCH   7  10
ATOM     10  C   UNL d   1      19.924 -19.767   0.215  0.00  0.00     0.047 C 
ATOM     11  C   UNL d   1      19.161 -18.951   1.283  0.00  0.00     0.040 C 
ATOM     12  C   UNL d   1      19.773 -21.256   0.584  0.00  0.00     0.040 C 
BRANCH  10  13
ATOM     13  C   UNL d   1      19.268 -19.476  -1.166  0.00  0.00     0.194 C 
BRANCH  13  14
ATOM     14  O   UNL d   1      20.163 -19.700  -2.253  0.00  0.00    -0.398 OA
ATOM     15  H   UNL d   1      20.765 -18.936  -2.293  0.00  0.00     0.209 HD
ENDBRANCH  13  14
ENDBRANCH  10  13
ENDBRANCH   7  10
ENDBRANCH   1   6
BRANCH   3  16
ATOM     16  C   UNL d   1      26.415 -16.731  -1.151  0.00  0.00     0.026 A 
ATOM     17  C   UNL d   1      27.706 -16.951  -0.649  0.00  0.00     0.016 A 
ATOM     18  C   UNL d   1      28.803 -16.283  -1.197  0.00  0.00     0.003 A 
ATOM     19  C   UNL d   1      28.642 -15.365  -2.241  0.00  0.00     0.030 A 
ATOM     20  C   UNL d   1      27.346 -15.154  -2.730  0.00  0.00     0.043 A 
ATOM     21  N   UNL d   1      26.896 -14.341  -3.748  0.00  0.00    -0.365 N 
ATOM     22  C   UNL d   1      26.230 -15.819  -2.214  0.00  0.00     0.006 A 
ATOM     23  C   UNL d   1      25.545 -14.489  -3.912  0.00  0.00     0.089 A 
ATOM     24  H   UNL d   1      27.486 -13.744  -4.310  0.00  0.00     0.165 HD
ATOM     25  C   UNL d   1      25.101 -15.372  -2.959  0.00  0.00     0.031 A 
ENDBRANCH   3  16
TORSDOF 5
ENDMDL
MODEL 2
REMARK VINA RESULT:    -7.565      3.952      7.763
REMARK INTER + INTRA:         -11.031
REMARK INTER:                  -9.056
REMARK INTRA:                  -1.975
REMARK CONF_INDEPENDENT:        1.492
REMARK UNBOUND:                -1.975
REMARK  5 active torsions:
REMARK  status: ('A' for Active; 'I' for Inactive)
REMARK    1  A    between atoms: C_2  and  C_4 
REMARK    2  A    between atoms: C_2  and  N_6 
REMARK    3  A    between atoms: C_4  and  O_5 
REMARK       I    between atoms: N_6  and  C_7 
REMARK    4  A    between atoms: C_7  and  C_9 
REMARK    5  A    between atoms: C_11  and  C_12 
ROOT
ATOM      1  C   UNL d   1      25.840 -13.366  -2.952  0.00  0.00     0.264 A 
ATOM      2  N   UNL d   1      26.324 -14.102  -1.970  0.00  0.00    -0.195 NA
ATOM      3  C   UNL d   1      25.642 -15.290  -2.143  0.00  0.00     0.190 A 
ATOM      4  N   UNL d   1      24.832 -15.314  -3.215  0.00  0.00    -0.105 NA
ATOM      5  O   UNL d   1      24.941 -14.028  -3.736  0.00  0.00    -0.185 OA
ENDROOT
BRANCH   1   6
ATOM      6  C   UNL d   1      26.091 -11.969  -3.220  0.00  0.00     0.297 C 
ATOM      7  N   UNL d   1      25.538 -11.449  -4.388  0.00  0.00    -0.343 N 
ATOM      8  H   UNL d   1      24.968 -12.070  -4.955  0.00  0.00     0.163 HD
ATOM      9  O   UNL d   1      26.757 -11.265  -2.455  0.00  0.00    -0.264 OA
BRANCH   7  10
ATOM     10  C   UNL d   1      25.775 -10.059  -4.842  0.00  0.00     0.047 C 
ATOM     11  C   UNL d   1      27.291  -9.765  -4.897  0.00  0.00     0.040 C 
ATOM     12  C   UNL d   1      25.155  -9.077  -3.828  0.00  0.00     0.040 C 
BRANCH  10  13
ATOM     13  C   UNL d   1      25.191  -9.821  -6.264  0.00  0.00     0.194 C 
BRANCH  13  14
ATOM     14  O   UNL d   1      24.780 -11.031  -6.895  0.00  0.00    -0.398 OA
ATOM     15  H   UNL d   1      23.910 -11.267  -6.528  0.00  0.00     0.209 HD
ENDBRANCH  13  14
ENDBRANCH  10  13
ENDBRANCH   7  10
ENDBRANCH   1   6
BRANCH   3  16
ATOM     16  C   UNL d   1      25.776 -16.406  -1.230  0.00  0.00     0.026 A 
ATOM     17  C   UNL d   1      27.014 -16.753  -0.667  0.00  0.00     0.016 A 
ATOM     18  C   UNL d   1      27.107 -17.806   0.245  0.00  0.00     0.003 A 
ATOM     19  C   UNL d   1      25.980 -18.554   0.603  0.00  0.00     0.030 A 
ATOM     20  C   UNL d   1      24.752 -18.197   0.030  0.00  0.00     0.043 A 
ATOM     21  N   UNL d   1      23.494 -18.730   0.210  0.00  0.00    -0.365 N 
ATOM     22  C   UNL d   1      24.623 -17.138  -0.873  0.00  0.00     0.006 A 
ATOM     23  C   UNL d   1      22.572 -18.030  -0.522  0.00  0.00     0.089 A 
ATOM     24  H   UNL d   1      23.280 -19.507   0.819  0.00  0.00     0.165 HD
ATOM     25  C   UNL d   1      23.244 -17.060  -1.225  0.00  0.00     0.031 A 
ENDBRANCH   3  16
TORSDOF 5
ENDMDL
MODEL 3
REMARK VINA RESULT:    -7.490      3.924      7.943
REMARK INTER + INTRA:         -10.649
REMARK INTER:                  -8.981
REMARK INTRA:                  -1.668
REMARK CONF_INDEPENDENT:        1.492
REMARK UNBOUND:                -1.668
REMARK  5 active torsions:
REMARK  status: ('A' for Active; 'I' for Inactive)
REMARK    1  A    between atoms: C_2  and  C_4 
REMARK    2  A    between atoms: C_2  and  N_6 
REMARK    3  A    between atoms: C_4  and  O_5 
REMARK       I    between atoms: N_6  and  C_7 
REMARK    4  A    between atoms: C_7  and  C_9 
REMARK    5  A    between atoms: C_11  and  C_12 
ROOT
ATOM      1  C   UNL d   1      25.767 -13.802  -3.862  0.00  0.00     0.264 A 
ATOM      2  N   UNL d   1      26.392 -14.748  -3.188  0.00  0.00    -0.195 NA
ATOM      3  C   UNL d   1      25.351 -15.334  -2.494  0.00  0.00     0.190 A 
ATOM      4  N   UNL d   1      24.140 -14.825  -2.775  0.00  0.00    -0.105 NA
ATOM      5  O   UNL d   1      24.418 -13.790  -3.662  0.00  0.00    -0.185 OA
ENDROOT
BRANCH   1   6
ATOM      6  C   UNL d   1      26.349 -12.770  -4.690  0.00  0.00     0.297 C 
ATOM      7  N   UNL d   1      25.735 -11.520  -4.654  0.00  0.00    -0.343 N 
ATOM      8  H   UNL d   1      24.945 -11.403  -4.026  0.00  0.00     0.163 HD
ATOM      9  O   UNL d   1      27.343 -12.979  -5.392  0.00  0.00    -0.264 OA
BRANCH   7  10
ATOM     10  C   UNL d   1      26.164 -10.388  -5.507  0.00  0.00     0.047 C 
ATOM     11  C   UNL d   1      25.904 -10.710  -6.996  0.00  0.00     0.040 C 
ATOM     12  C   UNL d   1      27.681 -10.170  -5.344  0.00  0.00     0.040 C 
BRANCH  10  13
ATOM     13  C   UNL d   1      25.382  -9.089  -5.157  0.00  0.00     0.194 C 
BRANCH  13  14
ATOM     14  O   UNL d   1      24.723  -9.172  -3.895  0.00  0.00    -0.398 OA
ATOM     15  H   UNL d   1      24.030  -8.488  -3.887  0.00  0.00     0.209 HD
ENDBRANCH  13  14
ENDBRANCH  10  13
ENDBRANCH   7  10
ENDBRANCH   1   6
BRANCH   3  16
ATOM     16  C   UNL d   1      25.558 -16.394  -1.529  0.00  0.00     0.026 A 
ATOM     17  C   UNL d   1      26.838 -16.717  -1.052  0.00  0.00     0.016 A 
ATOM     18  C   UNL d   1      27.004 -17.714  -0.089  0.00  0.00     0.003 A 
ATOM     19  C   UNL d   1      25.908 -18.428   0.409  0.00  0.00     0.030 A 
ATOM     20  C   UNL d   1      24.637 -18.095  -0.079  0.00  0.00     0.043 A 
ATOM     21  N   UNL d   1      23.397 -18.604   0.239  0.00  0.00    -0.365 N 
ATOM     22  C   UNL d   1      24.436 -17.092  -1.031  0.00  0.00     0.006 A 
ATOM     23  C   UNL d   1      22.419 -17.942  -0.453  0.00  0.00     0.089 A 
ATOM     24  H   UNL d   1      23.233 -19.342   0.911  0.00  0.00     0.165 HD
ATOM     25  C   UNL d   1      23.033 -17.023  -1.269  0.00  0.00     0.031 A 
ENDBRANCH   3  16
TORSDOF 5
ENDMDL
MODEL 4
REMARK VINA RESULT:    -7.434      1.491      2.672
REMARK INTER + INTRA:         -10.820
REMARK INTER:                  -8.925
REMARK INTRA:                  -1.895
REMARK CONF_INDEPENDENT:        1.492
REMARK UNBOUND:                -1.895
REMARK  5 active torsions:
REMARK  status: ('A' for Active; 'I' for Inactive)
REMARK    1  A    between atoms: C_2  and  C_4 
REMARK    2  A    between atoms: C_2  and  N_6 
REMARK    3  A    between atoms: C_4  and  O_5 
REMARK       I    between atoms: N_6  and  C_7 
REMARK    4  A    between atoms: C_7  and  C_9 
REMARK    5  A    between atoms: C_11  and  C_12 
ROOT
ATOM      1  C   UNL d   1      23.025 -18.538  -0.674  0.00  0.00     0.264 A 
ATOM      2  N   UNL d   1      23.648 -17.914  -1.654  0.00  0.00    -0.195 NA
ATOM      3  C   UNL d   1      24.801 -17.483  -1.027  0.00  0.00     0.190 A 
ATOM      4  N   UNL d   1      24.918 -17.877   0.251  0.00  0.00    -0.105 NA
ATOM      5  O   UNL d   1      23.727 -18.555   0.496  0.00  0.00    -0.185 OA
ENDROOT
BRANCH   1   6
ATOM      6  C   UNL d   1      21.697 -19.110  -0.688  0.00  0.00     0.297 C 
ATOM      7  N   UNL d   1      21.132 -19.405   0.550  0.00  0.00    -0.343 N 
ATOM      8  H   UNL d   1      21.668 -19.169   1.380  0.00  0.00     0.163 HD
ATOM      9  O   UNL d   1      21.090 -19.325  -1.741  0.00  0.00    -0.264 OA
BRANCH   7  10
ATOM     10  C   UNL d   1      19.817 -20.069   0.697  0.00  0.00     0.047 C 
ATOM     11  C   UNL d   1      19.904 -21.540   0.231  0.00  0.00     0.040 C 
ATOM     12  C   UNL d   1      18.784 -19.364  -0.206  0.00  0.00     0.040 C 
BRANCH  10  13
ATOM     13  C   UNL d   1      19.342 -20.065   2.179  0.00  0.00     0.194 C 
BRANCH  13  14
ATOM     14  O   UNL d   1      20.382 -19.697   3.083  0.00  0.00    -0.398 OA
ATOM     15  H   UNL d   1      21.029 -20.425   3.089  0.00  0.00     0.209 HD
ENDBRANCH  13  14
ENDBRANCH  10  13
ENDBRANCH   7  10
ENDBRANCH   1   6
BRANCH   3  16
ATOM     16  C   UNL d   1      25.786 -16.656  -1.692  0.00  0.00     0.026 A 
ATOM     17  C   UNL d   1      25.444 -15.821  -2.766  0.00  0.00     0.016 A 
ATOM     18  C   UNL d   1      26.405 -15.001  -3.361  0.00  0.00     0.003 A 
ATOM     19  C   UNL d   1      27.733 -15.005  -2.918  0.00  0.00     0.030 A 
ATOM     20  C   UNL d   1      28.059 -15.846  -1.845  0.00  0.00     0.043 A 
ATOM     21  N   UNL d   1      29.259 -16.039  -1.194  0.00  0.00    -0.365 N 
ATOM     22  C   UNL d   1      27.117 -16.667  -1.219  0.00  0.00     0.006 A 
ATOM     23  C   UNL d   1      29.103 -16.928  -0.164  0.00  0.00     0.089 A 
ATOM     24  H   UNL d   1      30.122 -15.569  -1.428  0.00  0.00     0.165 HD
ATOM     25  C   UNL d   1      27.798 -17.356  -0.174  0.00  0.00     0.031 A 
ENDBRANCH   3  16
TORSDOF 5
ENDMDL
MODEL 5
REMARK VINA RESULT:    -6.978      4.065      7.967
REMARK INTER + INTRA:         -10.444
REMARK INTER:                  -8.469
REMARK INTRA:                  -1.975
REMARK CONF_INDEPENDENT:        1.492
REMARK UNBOUND:                -1.975
REMARK  5 active torsions:
REMARK  status: ('A' for Active; 'I' for Inactive)
REMARK    1  A    between atoms: C_2  and  C_4 
REMARK    2  A    between atoms: C_2  and  N_6 
REMARK    3  A    between atoms: C_4  and  O_5 
REMARK       I    between atoms: N_6  and  C_7 
REMARK    4  A    between atoms: C_7  and  C_9 
REMARK    5  A    between atoms: C_11  and  C_12 
ROOT
ATOM      1  C   UNL d   1      25.645 -13.250  -3.027  0.00  0.00     0.264 A 
ATOM      2  N   UNL d   1      25.712 -13.989  -1.937  0.00  0.00    -0.195 NA
ATOM      3  C   UNL d   1      25.142 -15.173  -2.362  0.00  0.00     0.190 A 
ATOM      4  N   UNL d   1      24.803 -15.191  -3.661  0.00  0.00    -0.105 NA
ATOM      5  O   UNL d   1      25.111 -13.906  -4.098  0.00  0.00    -0.185 OA
ENDROOT
BRANCH   1   6
ATOM      6  C   UNL d   1      25.987 -11.854  -3.175  0.00  0.00     0.297 C 
ATOM      7  N   UNL d   1      25.563 -11.228  -4.345  0.00  0.00    -0.343 N 
ATOM      8  H   UNL d   1      25.014 -11.777  -4.999  0.00  0.00     0.163 HD
ATOM      9  O   UNL d   1      26.620 -11.240  -2.310  0.00  0.00    -0.264 OA
BRANCH   7  10
ATOM     10  C   UNL d   1      25.908  -9.827  -4.678  0.00  0.00     0.047 C 
ATOM     11  C   UNL d   1      27.425  -9.592  -4.504  0.00  0.00     0.040 C 
ATOM     12  C   UNL d   1      25.182  -8.876  -3.705  0.00  0.00     0.040 C 
BRANCH  10  13
ATOM     13  C   UNL d   1      25.539  -9.489  -6.152  0.00  0.00     0.194 C 
BRANCH  13  14
ATOM     14  O   UNL d   1      25.154 -10.643  -6.896  0.00  0.00    -0.398 OA
ATOM     15  H   UNL d   1      24.392 -11.039  -6.438  0.00  0.00     0.209 HD
ENDBRANCH  13  14
ENDBRANCH  10  13
ENDBRANCH   7  10
ENDBRANCH   1   6
BRANCH   3  16
ATOM     16  C   UNL d   1      24.910 -16.290  -1.470  0.00  0.00     0.026 A 
ATOM     17  C   UNL d   1      23.618 -16.775  -1.217  0.00  0.00     0.016 A 
ATOM     18  C   UNL d   1      23.427 -17.882  -0.387  0.00  0.00     0.003 A 
ATOM     19  C   UNL d   1      24.510 -18.520   0.228  0.00  0.00     0.030 A 
ATOM     20  C   UNL d   1      25.794 -18.023  -0.034  0.00  0.00     0.043 A 
ATOM     21  N   UNL d   1      27.026 -18.454   0.407  0.00  0.00    -0.365 N 
ATOM     22  C   UNL d   1      26.019 -16.927  -0.871  0.00  0.00     0.006 A 
ATOM     23  C   UNL d   1      28.021 -17.692  -0.144  0.00  0.00     0.089 A 
ATOM     24  H   UNL d   1      27.173 -19.241   1.024  0.00  0.00     0.165 HD
ATOM     25  C   UNL d   1      27.429 -16.721  -0.914  0.00  0.00     0.031 A 
ENDBRANCH   3  16
TORSDOF 5
ENDMDL
MODEL 6
REMARK VINA RESULT:    -6.898      3.976      8.218
REMARK INTER + INTRA:          -9.827
REMARK INTER:                  -8.390
REMARK INTRA:                  -1.437
REMARK CONF_INDEPENDENT:        1.492
REMARK UNBOUND:                -1.437
REMARK  5 active torsions:
REMARK  status: ('A' for Active; 'I' for Inactive)
REMARK    1  A    between atoms: C_2  and  C_4 
REMARK    2  A    between atoms: C_2  and  N_6 
REMARK    3  A    between atoms: C_4  and  O_5 
REMARK       I    between atoms: N_6  and  C_7 
REMARK    4  A    between atoms: C_7  and  C_9 
REMARK    5  A    between atoms: C_11  and  C_12 
ROOT
ATOM      1  C   UNL d   1      26.212 -14.760  -4.288  0.00  0.00     0.264 A 
ATOM      2  N   UNL d   1      26.294 -15.768  -3.441  0.00  0.00    -0.195 NA
ATOM      3  C   UNL d   1      25.118 -15.634  -2.728  0.00  0.00     0.190 A 
ATOM      4  N   UNL d   1      24.320 -14.643  -3.156  0.00  0.00    -0.105 NA
ATOM      5  O   UNL d   1      25.057 -14.044  -4.173  0.00  0.00    -0.185 OA
ENDROOT
BRANCH   1   6
ATOM      6  C   UNL d   1      27.213 -14.308  -5.228  0.00  0.00     0.297 C 
ATOM      7  N   UNL d   1      27.520 -12.950  -5.206  0.00  0.00    -0.343 N 
ATOM      8  H   UNL d   1      27.053 -12.373  -4.513  0.00  0.00     0.163 HD
ATOM      9  O   UNL d   1      27.772 -15.082  -6.010  0.00  0.00    -0.264 OA
BRANCH   7  10
ATOM     10  C   UNL d   1      28.461 -12.322  -6.162  0.00  0.00     0.047 C 
ATOM     11  C   UNL d   1      29.918 -12.518  -5.687  0.00  0.00     0.040 C 
ATOM     12  C   UNL d   1      28.198 -10.804  -6.218  0.00  0.00     0.040 C 
BRANCH  10  13
ATOM     13  C   UNL d   1      28.333 -12.953  -7.579  0.00  0.00     0.194 C 
BRANCH  13  14
ATOM     14  O   UNL d   1      29.213 -14.059  -7.765  0.00  0.00    -0.398 OA
ATOM     15  H   UNL d   1      28.664 -14.828  -8.003  0.00  0.00     0.209 HD
ENDBRANCH  13  14
ENDBRANCH  10  13
ENDBRANCH   7  10
ENDBRANCH   1   6
BRANCH   3  16
ATOM     16  C   UNL d   1      24.790 -16.482  -1.602  0.00  0.00     0.026 A 
ATOM     17  C   UNL d   1      23.461 -16.787  -1.271  0.00  0.00     0.016 A 
ATOM     18  C   UNL d   1      23.174 -17.643  -0.206  0.00  0.00     0.003 A 
ATOM     19  C   UNL d   1      24.197 -18.199   0.570  0.00  0.00     0.030 A 
ATOM     20  C   UNL d   1      25.520 -17.884   0.229  0.00  0.00     0.043 A 
ATOM     21  N   UNL d   1      26.710 -18.294   0.790  0.00  0.00    -0.365 N 
ATOM     22  C   UNL d   1      25.840 -17.043  -0.841  0.00  0.00     0.006 A 
ATOM     23  C   UNL d   1      27.767 -17.769   0.097  0.00  0.00     0.089 A 
ATOM     24  H   UNL d   1      26.788 -18.918   1.581  0.00  0.00     0.165 HD
ATOM     25  C   UNL d   1      27.262 -16.967  -0.897  0.00  0.00     0.031 A 
ENDBRANCH   3  16
TORSDOF 5
ENDMDL
MODEL 7
REMARK VINA RESULT:    -6.480      4.020      8.027
REMARK INTER + INTRA:          -9.585
REMARK INTER:                  -7.972
REMARK INTRA:                  -1.613
REMARK CONF_INDEPENDENT:        1.492
REMARK UNBOUND:                -1.613
REMARK  5 active torsions:
REMARK  status: ('A' for Active; 'I' for Inactive)
REMARK    1  A    between atoms: C_2  and  C_4 
REMARK    2  A    between atoms: C_2  and  N_6 
REMARK    3  A    between atoms: C_4  and  O_5 
REMARK       I    between atoms: N_6  and  C_7 
REMARK    4  A    between atoms: C_7  and  C_9 
REMARK    5  A    between atoms: C_11  and  C_12 
ROOT
ATOM      1  C   UNL d   1      26.297 -14.113  -3.936  0.00  0.00     0.264 A 
ATOM      2  N   UNL d   1      26.741 -14.574  -2.783  0.00  0.00    -0.195 NA
ATOM      3  C   UNL d   1      26.042 -15.759  -2.664  0.00  0.00     0.190 A 
ATOM      4  N   UNL d   1      25.260 -16.050  -3.717  0.00  0.00    -0.105 NA
ATOM      5  O   UNL d   1      25.407 -14.945  -4.550  0.00  0.00    -0.185 OA
ENDROOT
BRANCH   1   6
ATOM      6  C   UNL d   1      26.581 -12.835  -4.549  0.00  0.00     0.297 C 
ATOM      7  N   UNL d   1      27.046 -12.863  -5.862  0.00  0.00    -0.343 N 
ATOM      8  H   UNL d   1      27.121 -13.768  -6.315  0.00  0.00     0.163 HD
ATOM      9  O   UNL d   1      26.418 -11.770  -3.946  0.00  0.00    -0.264 OA
BRANCH   7  10
ATOM     10  C   UNL d   1      27.458 -11.644  -6.595  0.00  0.00     0.047 C 
ATOM     11  C   UNL d   1      28.409 -10.791  -5.725  0.00  0.00     0.040 C 
ATOM     12  C   UNL d   1      26.216 -10.782  -6.895  0.00  0.00     0.040 C 
BRANCH  10  13
ATOM     13  C   UNL d   1      28.207 -12.002  -7.911  0.00  0.00     0.194 C 
BRANCH  13  14
ATOM     14  O   UNL d   1      28.452 -13.401  -8.036  0.00  0.00    -0.398 OA
ATOM     15  H   UNL d   1      29.163 -13.511  -8.693  0.00  0.00     0.209 HD
ENDBRANCH  13  14
ENDBRANCH  10  13
ENDBRANCH   7  10
ENDBRANCH   1   6
BRANCH   3  16
ATOM     16  C   UNL d   1      26.131 -16.602  -1.490  0.00  0.00     0.026 A 
ATOM     17  C   UNL d   1      27.359 -16.870  -0.867  0.00  0.00     0.016 A 
ATOM     18  C   UNL d   1      27.411 -17.651   0.290  0.00  0.00     0.003 A 
ATOM     19  C   UNL d   1      26.249 -18.200   0.844  0.00  0.00     0.030 A 
ATOM     20  C   UNL d   1      25.031 -17.924   0.210  0.00  0.00     0.043 A 
ATOM     21  N   UNL d   1      23.747 -18.305   0.536  0.00  0.00    -0.365 N 
ATOM     22  C   UNL d   1      24.944 -17.134  -0.940  0.00  0.00     0.006 A 
ATOM     23  C   UNL d   1      22.852 -17.762  -0.346  0.00  0.00     0.089 A 
ATOM     24  H   UNL d   1      23.502 -18.879   1.331  0.00  0.00     0.165 HD
ATOM     25  C   UNL d   1      23.563 -17.059  -1.287  0.00  0.00     0.031 A 
ENDBRANCH   3  16
TORSDOF 5
ENDMDL
MODEL 8
REMARK VINA RESULT:    -6.207      3.737      8.007
REMARK INTER + INTRA:          -9.357
REMARK INTER:                  -7.698
REMARK INTRA:                  -1.659
REMARK CONF_INDEPENDENT:        1.492
REMARK UNBOUND:                -1.659
REMARK  5 active torsions:
REMARK  status: ('A' for Active; 'I' for Inactive)
REMARK    1  A    between atoms: C_2  and  C_4 
REMARK    2  A    between atoms: C_2  and  N_6 
REMARK    3  A    between atoms: C_4  and  O_5 
REMARK       I    between atoms: N_6  and  C_7 
REMARK    4  A    between atoms: C_7  and  C_9 
REMARK    5  A    between atoms: C_11  and  C_12 
ROOT
ATOM      1  C   UNL d   1      25.933 -14.380  -4.241  0.00  0.00     0.264 A 
ATOM      2  N   UNL d   1      26.117 -15.404  -3.430  0.00  0.00    -0.195 NA
ATOM      3  C   UNL d   1      24.928 -15.424  -2.726  0.00  0.00     0.190 A 
ATOM      4  N   UNL d   1      24.032 -14.507  -3.125  0.00  0.00    -0.105 NA
ATOM      5  O   UNL d   1      24.707 -13.795  -4.112  0.00  0.00    -0.185 OA
ENDROOT
BRANCH   1   6
ATOM      6  C   UNL d   1      26.886 -13.788  -5.152  0.00  0.00     0.297 C 
ATOM      7  N   UNL d   1      28.027 -14.536  -5.434  0.00  0.00    -0.343 N 
ATOM      8  H   UNL d   1      28.100 -15.457  -5.014  0.00  0.00     0.163 HD
ATOM      9  O   UNL d   1      26.702 -12.678  -5.660  0.00  0.00    -0.264 OA
BRANCH   7  10
ATOM     10  C   UNL d   1      29.131 -14.030  -6.282  0.00  0.00     0.047 C 
ATOM     11  C   UNL d   1      29.749 -12.759  -5.655  0.00  0.00     0.040 C 
ATOM     12  C   UNL d   1      28.575 -13.635  -7.664  0.00  0.00     0.040 C 
BRANCH  10  13
ATOM     13  C   UNL d   1      30.262 -15.088  -6.428  0.00  0.00     0.194 C 
BRANCH  13  14
ATOM     14  O   UNL d   1      29.881 -16.367  -5.925  0.00  0.00    -0.398 OA
ATOM     15  H   UNL d   1      28.908 -16.384  -5.891  0.00  0.00     0.209 HD
ENDBRANCH  13  14
ENDBRANCH  10  13
ENDBRANCH   7  10
ENDBRANCH   1   6
BRANCH   3  16
ATOM     16  C   UNL d   1      24.685 -16.344  -1.635  0.00  0.00     0.026 A 
ATOM     17  C   UNL d   1      23.385 -16.716  -1.261  0.00  0.00     0.016 A 
ATOM     18  C   UNL d   1      23.180 -17.640  -0.233  0.00  0.00     0.003 A 
ATOM     19  C   UNL d   1      24.258 -18.200   0.461  0.00  0.00     0.030 A 
ATOM     20  C   UNL d   1      25.551 -17.817   0.076  0.00  0.00     0.043 A 
ATOM     21  N   UNL d   1      26.780 -18.213   0.557  0.00  0.00    -0.365 N 
ATOM     22  C   UNL d   1      25.789 -16.907  -0.958  0.00  0.00     0.006 A 
ATOM     23  C   UNL d   1      27.784 -17.612  -0.154  0.00  0.00     0.089 A 
ATOM     24  H   UNL d   1      26.918 -18.876   1.306  0.00  0.00     0.165 HD
ATOM     25  C   UNL d   1      27.203 -16.775  -1.075  0.00  0.00     0.031 A 
ENDBRANCH   3  16
TORSDOF 5
ENDMDL
MODEL 9
REMARK VINA RESULT:    -6.044      4.566      7.085
REMARK INTER + INTRA:          -9.333
REMARK INTER:                  -7.536
REMARK INTRA:                  -1.798
REMARK CONF_INDEPENDENT:        1.492
REMARK UNBOUND:                -1.798
REMARK  5 active torsions:
REMARK  status: ('A' for Active; 'I' for Inactive)
REMARK    1  A    between atoms: C_2  and  C_4 
REMARK    2  A    between atoms: C_2  and  N_6 
REMARK    3  A    between atoms: C_4  and  O_5 
REMARK       I    between atoms: N_6  and  C_7 
REMARK    4  A    between atoms: C_7  and  C_9 
REMARK    5  A    between atoms: C_11  and  C_12 
ROOT
ATOM      1  C   UNL d   1      27.348 -15.484  -4.373  0.00  0.00     0.264 A 
ATOM      2  N   UNL d   1      28.650 -15.675  -4.455  0.00  0.00    -0.195 NA
ATOM      3  C   UNL d   1      28.872 -15.531  -5.811  0.00  0.00     0.190 A 
ATOM      4  N   UNL d   1      27.780 -15.200  -6.520  0.00  0.00    -0.105 NA
ATOM      5  O   UNL d   1      26.763 -15.195  -5.571  0.00  0.00    -0.185 OA
ENDROOT
BRANCH   1   6
ATOM      6  C   UNL d   1      26.503 -15.623  -3.209  0.00  0.00     0.297 C 
ATOM      7  N   UNL d   1      27.063 -16.260  -2.104  0.00  0.00    -0.343 N 
ATOM      8  H   UNL d   1      28.033 -16.551  -2.171  0.00  0.00     0.163 HD
ATOM      9  O   UNL d   1      25.343 -15.199  -3.189  0.00  0.00    -0.264 OA
BRANCH   7  10
ATOM     10  C   UNL d   1      26.298 -16.551  -0.870  0.00  0.00     0.047 C 
ATOM     11  C   UNL d   1      24.988 -17.295  -1.214  0.00  0.00     0.040 C 
ATOM     12  C   UNL d   1      25.905 -15.226  -0.186  0.00  0.00     0.040 C 
BRANCH  10  13
ATOM     13  C   UNL d   1      27.115 -17.449   0.104  0.00  0.00     0.194 C 
BRANCH  13  14
ATOM     14  O   UNL d   1      28.405 -17.775  -0.408  0.00  0.00    -0.398 OA
ATOM     15  H   UNL d   1      28.948 -18.068   0.345  0.00  0.00     0.209 HD
ENDBRANCH  13  14
ENDBRANCH  10  13
ENDBRANCH   7  10
ENDBRANCH   1   6
BRANCH   3  16
ATOM     16  C   UNL d   1      30.171 -15.742  -6.414  0.00  0.00     0.026 A 
ATOM     17  C   UNL d   1      30.850 -14.712  -7.083  0.00  0.00     0.016 A 
ATOM     18  C   UNL d   1      32.121 -14.931  -7.618  0.00  0.00     0.003 A 
ATOM     19  C   UNL d   1      32.740 -16.183  -7.521  0.00  0.00     0.030 A 
ATOM     20  C   UNL d   1      32.049 -17.202  -6.852  0.00  0.00     0.043 A 
ATOM     21  N   UNL d   1      32.413 -18.504  -6.588  0.00  0.00    -0.365 N 
ATOM     22  C   UNL d   1      30.782 -17.010  -6.292  0.00  0.00     0.006 A 
ATOM     23  C   UNL d   1      31.439 -19.132  -5.859  0.00  0.00     0.089 A 
ATOM     24  H   UNL d   1      33.288 -18.925  -6.868  0.00  0.00     0.165 HD
ATOM     25  C   UNL d   1      30.405 -18.244  -5.687  0.00  0.00     0.031 A 
ENDBRANCH   3  16
TORSDOF 5
ENDMDL
