MODEL 1
REMARK VINA RESULT:    -8.265      0.000      0.000
REMARK INTER + INTRA:         -10.921
REMARK INTER:                  -9.756
REMARK INTRA:                  -1.165
REMARK CONF_INDEPENDENT:        1.492
REMARK UNBOUND:                -1.165
REMARK  5 active torsions:
REMARK  status: ('A' for Active; 'I' for Inactive)
REMARK    1  A    between atoms: S_2  and  C_3 
REMARK    2  A    between atoms: C_3  and  C_4 
REMARK    3  A    between atoms: C_7  and  C_8 
REMARK       I    between atoms: C_8  and  N_10 
REMARK    4  A    between atoms: N_10  and  C_11 
REMARK    5  A    between atoms: C_17  and  O_18 
ROOT
ATOM      1  C   UNL d   1      23.152 -18.550  -0.499  0.00  0.00     0.256 C 
ATOM      2  O   UNL d   1      23.133 -19.511  -1.280  0.00  0.00    -0.267 OA
ATOM      3  N   UNL d   1      22.108 -18.215   0.347  0.00  0.00    -0.321 N 
ATOM      4  H   UNL d   1      22.062 -17.299   0.762  0.00  0.00     0.169 HD
ENDROOT
BRANCH   1   5
ATOM      5  C   UNL d   1      24.356 -17.664  -0.523  0.00  0.00     0.032 A 
ATOM      6  C   UNL d   1      25.494 -18.129   0.146  0.00  0.00     0.017 A 
ATOM      7  C   UNL d   1      26.635 -17.337   0.259  0.00  0.00     0.009 A 
ATOM      8  C   UNL d   1      26.702 -16.069  -0.335  0.00  0.00    -0.049 A 
ATOM      9  C   UNL d   1      25.579 -15.622  -1.050  0.00  0.00     0.009 A 
ATOM     10  C   UNL d   1      24.412 -16.405  -1.136  0.00  0.00     0.017 A 
BRANCH   8  11
ATOM     11  C   UNL d   1      27.981 -15.244  -0.295  0.00  0.00     0.112 C 
BRANCH  11  12
ATOM     12  S   UNL d   1      27.766 -13.684   0.651  0.00  0.00    -0.169 SA
ATOM     13  C   UNL d   1      27.879 -14.258   2.354  0.00  0.00     0.090 C 
ENDBRANCH  11  12
ENDBRANCH   8  11
ENDBRANCH   1   5
BRANCH   3  14
ATOM     14  C   UNL d   1      20.997 -19.060   0.572  0.00  0.00     0.068 A 
ATOM     15  C   UNL d   1      20.655 -19.391   1.887  0.00  0.00     0.033 A 
ATOM     16  C   UNL d   1      19.579 -20.252   2.139  0.00  0.00     0.009 A 
ATOM     17  C   UNL d   1      18.804 -20.752   1.086  0.00  0.00    -0.059 A 
ATOM     18  C   UNL d   1      17.577 -21.574   1.353  0.00  0.00     0.048 C 
ATOM     19  C   UNL d   1      19.169 -20.450  -0.231  0.00  0.00     0.045 A 
ATOM     20  C   UNL d   1      20.270 -19.630  -0.482  0.00  0.00     0.092 A 
BRANCH  20  21
ATOM     21  O   UNL d   1      20.712 -19.492  -1.769  0.00  0.00    -0.358 OA
ATOM     22  H   UNL d   1      21.217 -18.667  -1.838  0.00  0.00     0.217 HD
ENDBRANCH  20  21
ENDBRANCH   3  14
TORSDOF 5
ENDMDL
MODEL 2
REMARK VINA RESULT:    -8.041      1.201      1.983
REMARK INTER + INTRA:         -10.763
REMARK INTER:                  -9.532
REMARK INTRA:                  -1.231
REMARK CONF_INDEPENDENT:        1.492
REMARK UNBOUND:                -1.231
REMARK  5 active torsions:
REMARK  status: ('A' for Active; 'I' for Inactive)
REMARK    1  A    between atoms: S_2  and  C_3 
REMARK    2  A    between atoms: C_3  and  C_4 
REMARK    3  A    between atoms: C_7  and  C_8 
REMARK       I    between atoms: C_8  and  N_10 
REMARK    4  A    between atoms: N_10  and  C_11 
REMARK    5  A    between atoms: C_17  and  O_18 
ROOT
ATOM      1  C   UNL d   1      23.123 -18.549  -0.575  0.00  0.00     0.256 C 
ATOM      2  O   UNL d   1      23.129 -19.545  -1.309  0.00  0.00    -0.267 OA
ATOM      3  N   UNL d   1      22.062 -18.190   0.241  0.00  0.00    -0.321 N 
ATOM      4  H   UNL d   1      21.996 -17.256   0.611  0.00  0.00     0.169 HD
ENDROOT
BRANCH   1   5
ATOM      5  C   UNL d   1      24.313 -17.645  -0.627  0.00  0.00     0.032 A 
ATOM      6  C   UNL d   1      24.210 -16.516  -1.449  0.00  0.00     0.017 A 
ATOM      7  C   UNL d   1      25.295 -15.663  -1.636  0.00  0.00     0.009 A 
ATOM      8  C   UNL d   1      26.512 -15.876  -0.971  0.00  0.00    -0.049 A 
ATOM      9  C   UNL d   1      26.600 -16.980  -0.107  0.00  0.00     0.009 A 
ATOM     10  C   UNL d   1      25.515 -17.863   0.057  0.00  0.00     0.017 A 
BRANCH   8  11
ATOM     11  C   UNL d   1      27.666 -14.891  -1.099  0.00  0.00     0.112 C 
BRANCH  11  12
ATOM     12  S   UNL d   1      28.798 -15.333  -2.478  0.00  0.00    -0.169 SA
ATOM     13  C   UNL d   1      27.717 -15.198  -3.911  0.00  0.00     0.090 C 
ENDBRANCH  11  12
ENDBRANCH   8  11
ENDBRANCH   1   5
BRANCH   3  14
ATOM     14  C   UNL d   1      20.962 -19.042   0.492  0.00  0.00     0.068 A 
ATOM     15  C   UNL d   1      20.655 -19.377   1.815  0.00  0.00     0.033 A 
ATOM     16  C   UNL d   1      19.591 -20.245   2.093  0.00  0.00     0.009 A 
ATOM     17  C   UNL d   1      18.792 -20.747   1.058  0.00  0.00    -0.059 A 
ATOM     18  C   UNL d   1      17.576 -21.575   1.355  0.00  0.00     0.048 C 
ATOM     19  C   UNL d   1      19.122 -20.440  -0.267  0.00  0.00     0.045 A 
ATOM     20  C   UNL d   1      20.211 -19.613  -0.544  0.00  0.00     0.092 A 
BRANCH  20  21
ATOM     21  O   UNL d   1      20.620 -19.470  -1.841  0.00  0.00    -0.358 OA
ATOM     22  H   UNL d   1      21.258 -18.743  -1.888  0.00  0.00     0.217 HD
ENDBRANCH  20  21
ENDBRANCH   3  14
TORSDOF 5
ENDMDL
MODEL 3
REMARK VINA RESULT:    -7.253      4.596      8.737
REMARK INTER + INTRA:          -9.494
REMARK INTER:                  -8.744
REMARK INTRA:                  -0.749
REMARK CONF_INDEPENDENT:        1.492
REMARK UNBOUND:                -0.749
REMARK  5 active torsions:
REMARK  status: ('A' for Active; 'I' for Inactive)
REMARK    1  A    between atoms: S_2  and  C_3 
REMARK    2  A    between atoms: C_3  and  C_4 
REMARK    3  A    between atoms: C_7  and  C_8 
REMARK       I    between atoms: C_8  and  N_10 
REMARK    4  A    between atoms: N_10  and  C_11 
REMARK    5  A    between atoms: C_17  and  O_18 
ROOT
ATOM      1  C   UNL d   1      25.526 -15.794  -2.301  0.00  0.00     0.256 C 
ATOM      2  O   UNL d   1      26.687 -15.890  -1.882  0.00  0.00    -0.267 OA
ATOM      3  N   UNL d   1      25.151 -15.010  -3.381  0.00  0.00    -0.321 N 
ATOM      4  H   UNL d   1      24.186 -14.761  -3.519  0.00  0.00     0.169 HD
ENDROOT
BRANCH   1   5
ATOM      5  C   UNL d   1      24.457 -16.520  -1.549  0.00  0.00     0.032 A 
ATOM      6  C   UNL d   1      24.740 -17.837  -1.169  0.00  0.00     0.017 A 
ATOM      7  C   UNL d   1      23.776 -18.628  -0.547  0.00  0.00     0.009 A 
ATOM      8  C   UNL d   1      22.507 -18.118  -0.235  0.00  0.00    -0.049 A 
ATOM      9  C   UNL d   1      22.240 -16.781  -0.571  0.00  0.00     0.009 A 
ATOM     10  C   UNL d   1      23.200 -15.991  -1.231  0.00  0.00     0.017 A 
BRANCH   8  11
ATOM     11  C   UNL d   1      21.488 -18.949   0.532  0.00  0.00     0.112 C 
BRANCH  11  12
ATOM     12  S   UNL d   1      20.042 -19.398  -0.509  0.00  0.00    -0.169 SA
ATOM     13  C   UNL d   1      19.194 -20.605   0.524  0.00  0.00     0.090 C 
ENDBRANCH  11  12
ENDBRANCH   8  11
ENDBRANCH   1   5
BRANCH   3  14
ATOM     14  C   UNL d   1      26.084 -14.411  -4.258  0.00  0.00     0.068 A 
ATOM     15  C   UNL d   1      27.103 -15.199  -4.803  0.00  0.00     0.033 A 
ATOM     16  C   UNL d   1      28.060 -14.627  -5.649  0.00  0.00     0.009 A 
ATOM     17  C   UNL d   1      27.984 -13.273  -5.999  0.00  0.00    -0.059 A 
ATOM     18  C   UNL d   1      28.930 -12.681  -7.002  0.00  0.00     0.048 C 
ATOM     19  C   UNL d   1      26.986 -12.477  -5.425  0.00  0.00     0.045 A 
ATOM     20  C   UNL d   1      26.061 -13.040  -4.545  0.00  0.00     0.092 A 
BRANCH  20  21
ATOM     21  O   UNL d   1      25.210 -12.214  -3.863  0.00  0.00    -0.358 OA
ATOM     22  H   UNL d   1      24.576 -11.834  -4.490  0.00  0.00     0.217 HD
ENDBRANCH  20  21
ENDBRANCH   3  14
TORSDOF 5
ENDMDL
MODEL 4
REMARK VINA RESULT:    -7.228      1.422      1.917
REMARK INTER + INTRA:          -9.443
REMARK INTER:                  -8.720
REMARK INTRA:                  -0.723
REMARK CONF_INDEPENDENT:        1.492
REMARK UNBOUND:                -0.723
REMARK  5 active torsions:
REMARK  status: ('A' for Active; 'I' for Inactive)
REMARK    1  A    between atoms: S_2  and  C_3 
REMARK    2  A    between atoms: C_3  and  C_4 
REMARK    3  A    between atoms: C_7  and  C_8 
REMARK       I    between atoms: C_8  and  N_10 
REMARK    4  A    between atoms: N_10  and  C_11 
REMARK    5  A    between atoms: C_17  and  O_18 
ROOT
ATOM      1  C   UNL d   1      22.565 -18.385  -0.932  0.00  0.00     0.256 C 
ATOM      2  O   UNL d   1      22.228 -19.004  -1.950  0.00  0.00    -0.267 OA
ATOM      3  N   UNL d   1      21.812 -18.329   0.229  0.00  0.00    -0.321 N 
ATOM      4  H   UNL d   1      21.991 -17.619   0.920  0.00  0.00     0.169 HD
ENDROOT
BRANCH   1   5
ATOM      5  C   UNL d   1      23.835 -17.597  -0.992  0.00  0.00     0.032 A 
ATOM      6  C   UNL d   1      24.937 -18.129  -0.313  0.00  0.00     0.017 A 
ATOM      7  C   UNL d   1      26.137 -17.427  -0.232  0.00  0.00     0.009 A 
ATOM      8  C   UNL d   1      26.300 -16.187  -0.867  0.00  0.00    -0.049 A 
ATOM      9  C   UNL d   1      25.209 -15.676  -1.590  0.00  0.00     0.009 A 
ATOM     10  C   UNL d   1      23.984 -16.367  -1.645  0.00  0.00     0.017 A 
BRANCH   8  11
ATOM     11  C   UNL d   1      27.640 -15.465  -0.860  0.00  0.00     0.112 C 
BRANCH  11  12
ATOM     12  S   UNL d   1      28.656 -15.912   0.604  0.00  0.00    -0.169 SA
ATOM     13  C   UNL d   1      30.241 -16.317  -0.147  0.00  0.00     0.090 C 
ENDBRANCH  11  12
ENDBRANCH   8  11
ENDBRANCH   1   5
BRANCH   3  14
ATOM     14  C   UNL d   1      20.686 -19.153   0.457  0.00  0.00     0.068 A 
ATOM     15  C   UNL d   1      19.984 -19.659  -0.641  0.00  0.00     0.033 A 
ATOM     16  C   UNL d   1      18.846 -20.451  -0.447  0.00  0.00     0.009 A 
ATOM     17  C   UNL d   1      18.424 -20.787   0.846  0.00  0.00    -0.059 A 
ATOM     18  C   UNL d   1      17.281 -21.735   1.062  0.00  0.00     0.048 C 
ATOM     19  C   UNL d   1      19.104 -20.250   1.945  0.00  0.00     0.045 A 
ATOM     20  C   UNL d   1      20.211 -19.423   1.748  0.00  0.00     0.092 A 
BRANCH  20  21
ATOM     21  O   UNL d   1      20.749 -18.772   2.823  0.00  0.00    -0.358 OA
ATOM     22  H   UNL d   1      20.618 -17.818   2.707  0.00  0.00     0.217 HD
ENDBRANCH  20  21
ENDBRANCH   3  14
TORSDOF 5
ENDMDL
MODEL 5
REMARK VINA RESULT:    -6.934      4.502      8.757
REMARK INTER + INTRA:          -9.716
REMARK INTER:                  -8.425
REMARK INTRA:                  -1.290
REMARK CONF_INDEPENDENT:        1.492
REMARK UNBOUND:                -1.290
REMARK  5 active torsions:
REMARK  status: ('A' for Active; 'I' for Inactive)
REMARK    1  A    between atoms: S_2  and  C_3 
REMARK    2  A    between atoms: C_3  and  C_4 
REMARK    3  A    between atoms: C_7  and  C_8 
REMARK       I    between atoms: C_8  and  N_10 
REMARK    4  A    between atoms: N_10  and  C_11 
REMARK    5  A    between atoms: C_17  and  O_18 
ROOT
ATOM      1  C   UNL d   1      25.458 -15.528  -2.305  0.00  0.00     0.256 C 
ATOM      2  O   UNL d   1      26.661 -15.634  -2.031  0.00  0.00    -0.267 OA
ATOM      3  N   UNL d   1      24.933 -14.554  -3.138  0.00  0.00    -0.321 N 
ATOM      4  H   UNL d   1      23.948 -14.347  -3.124  0.00  0.00     0.169 HD
ENDROOT
BRANCH   1   5
ATOM      5  C   UNL d   1      24.512 -16.475  -1.638  0.00  0.00     0.032 A 
ATOM      6  C   UNL d   1      23.264 -15.960  -1.268  0.00  0.00     0.017 A 
ATOM      7  C   UNL d   1      22.348 -16.736  -0.560  0.00  0.00     0.009 A 
ATOM      8  C   UNL d   1      22.623 -18.072  -0.237  0.00  0.00    -0.049 A 
ATOM      9  C   UNL d   1      23.855 -18.605  -0.652  0.00  0.00     0.009 A 
ATOM     10  C   UNL d   1      24.796 -17.813  -1.337  0.00  0.00     0.017 A 
BRANCH   8  11
ATOM     11  C   UNL d   1      21.586 -18.949   0.451  0.00  0.00     0.112 C 
BRANCH  11  12
ATOM     12  S   UNL d   1      20.250 -19.467  -0.701  0.00  0.00    -0.169 SA
ATOM     13  C   UNL d   1      19.037 -20.177   0.424  0.00  0.00     0.090 C 
ENDBRANCH  11  12
ENDBRANCH   8  11
ENDBRANCH   1   5
BRANCH   3  14
ATOM     14  C   UNL d   1      25.737 -13.713  -3.942  0.00  0.00     0.068 A 
ATOM     15  C   UNL d   1      25.519 -12.333  -3.905  0.00  0.00     0.033 A 
ATOM     16  C   UNL d   1      26.277 -11.477  -4.714  0.00  0.00     0.009 A 
ATOM     17  C   UNL d   1      27.293 -11.986  -5.533  0.00  0.00    -0.059 A 
ATOM     18  C   UNL d   1      28.191 -11.067  -6.308  0.00  0.00     0.048 C 
ATOM     19  C   UNL d   1      27.486 -13.371  -5.598  0.00  0.00     0.045 A 
ATOM     20  C   UNL d   1      26.698 -14.224  -4.825  0.00  0.00     0.092 A 
BRANCH  20  21
ATOM     21  O   UNL d   1      26.782 -15.573  -5.035  0.00  0.00    -0.358 OA
ATOM     22  H   UNL d   1      26.815 -16.020  -4.176  0.00  0.00     0.217 HD
ENDBRANCH  20  21
ENDBRANCH   3  14
TORSDOF 5
ENDMDL
MODEL 6
REMARK VINA RESULT:    -6.869      4.172      8.600
REMARK INTER + INTRA:          -9.082
REMARK INTER:                  -8.361
REMARK INTRA:                  -0.722
REMARK CONF_INDEPENDENT:        1.492
REMARK UNBOUND:                -0.722
REMARK  5 active torsions:
REMARK  status: ('A' for Active; 'I' for Inactive)
REMARK    1  A    between atoms: S_2  and  C_3 
REMARK    2  A    between atoms: C_3  and  C_4 
REMARK    3  A    between atoms: C_7  and  C_8 
REMARK       I    between atoms: C_8  and  N_10 
REMARK    4  A    between atoms: N_10  and  C_11 
REMARK    5  A    between atoms: C_17  and  O_18 
ROOT
ATOM      1  C   UNL d   1      25.627 -16.081  -1.800  0.00  0.00     0.256 C 
ATOM      2  O   UNL d   1      26.681 -16.059  -1.152  0.00  0.00    -0.267 OA
ATOM      3  N   UNL d   1      25.434 -15.405  -2.994  0.00  0.00    -0.321 N 
ATOM      4  H   UNL d   1      24.503 -15.240  -3.342  0.00  0.00     0.169 HD
ENDROOT
BRANCH   1   5
ATOM      5  C   UNL d   1      24.473 -16.833  -1.218  0.00  0.00     0.032 A 
ATOM      6  C   UNL d   1      24.702 -18.171  -0.878  0.00  0.00     0.017 A 
ATOM      7  C   UNL d   1      23.668 -18.981  -0.415  0.00  0.00     0.009 A 
ATOM      8  C   UNL d   1      22.374 -18.474  -0.227  0.00  0.00    -0.049 A 
ATOM      9  C   UNL d   1      22.155 -17.118  -0.520  0.00  0.00     0.009 A 
ATOM     10  C   UNL d   1      23.190 -16.306  -1.022  0.00  0.00     0.017 A 
BRANCH   8  11
ATOM     11  C   UNL d   1      21.267 -19.332   0.371  0.00  0.00     0.112 C 
BRANCH  11  12
ATOM     12  S   UNL d   1      19.817 -19.465  -0.750  0.00  0.00    -0.169 SA
ATOM     13  C   UNL d   1      18.683 -20.473   0.218  0.00  0.00     0.090 C 
ENDBRANCH  11  12
ENDBRANCH   8  11
ENDBRANCH   1   5
BRANCH   3  14
ATOM     14  C   UNL d   1      26.488 -14.799  -3.715  0.00  0.00     0.068 A 
ATOM     15  C   UNL d   1      27.239 -13.793  -3.098  0.00  0.00     0.033 A 
ATOM     16  C   UNL d   1      28.268 -13.152  -3.798  0.00  0.00     0.009 A 
ATOM     17  C   UNL d   1      28.590 -13.540  -5.104  0.00  0.00    -0.059 A 
ATOM     18  C   UNL d   1      29.769 -12.945  -5.817  0.00  0.00     0.048 C 
ATOM     19  C   UNL d   1      27.815 -14.520  -5.735  0.00  0.00     0.045 A 
ATOM     20  C   UNL d   1      26.760 -15.125  -5.050  0.00  0.00     0.092 A 
BRANCH  20  21
ATOM     21  O   UNL d   1      25.911 -15.947  -5.739  0.00  0.00    -0.358 OA
ATOM     22  H   UNL d   1      25.223 -16.262  -5.132  0.00  0.00     0.217 HD
ENDBRANCH  20  21
ENDBRANCH   3  14
TORSDOF 5
ENDMDL
MODEL 7
REMARK VINA RESULT:    -6.713      3.350      8.402
REMARK INTER + INTRA:          -8.947
REMARK INTER:                  -8.205
REMARK INTRA:                  -0.742
REMARK CONF_INDEPENDENT:        1.492
REMARK UNBOUND:                -0.742
REMARK  5 active torsions:
REMARK  status: ('A' for Active; 'I' for Inactive)
REMARK    1  A    between atoms: S_2  and  C_3 
REMARK    2  A    between atoms: C_3  and  C_4 
REMARK    3  A    between atoms: C_7  and  C_8 
REMARK       I    between atoms: C_8  and  N_10 
REMARK    4  A    between atoms: N_10  and  C_11 
REMARK    5  A    between atoms: C_17  and  O_18 
ROOT
ATOM      1  C   UNL d   1      25.412 -16.325  -0.582  0.00  0.00     0.256 C 
ATOM      2  O   UNL d   1      25.430 -15.312  -1.294  0.00  0.00    -0.267 OA
ATOM      3  N   UNL d   1      26.461 -16.722   0.231  0.00  0.00    -0.321 N 
ATOM      4  H   UNL d   1      26.507 -17.666   0.581  0.00  0.00     0.169 HD
ENDROOT
BRANCH   1   5
ATOM      5  C   UNL d   1      24.205 -17.204  -0.661  0.00  0.00     0.032 A 
ATOM      6  C   UNL d   1      22.979 -16.569  -0.892  0.00  0.00     0.017 A 
ATOM      7  C   UNL d   1      21.787 -17.289  -0.891  0.00  0.00     0.009 A 
ATOM      8  C   UNL d   1      21.776 -18.679  -0.708  0.00  0.00    -0.049 A 
ATOM      9  C   UNL d   1      23.010 -19.324  -0.526  0.00  0.00     0.009 A 
ATOM     10  C   UNL d   1      24.214 -18.594  -0.492  0.00  0.00     0.017 A 
BRANCH   8  11
ATOM     11  C   UNL d   1      20.484 -19.479  -0.804  0.00  0.00     0.112 C 
BRANCH  11  12
ATOM     12  S   UNL d   1      19.525 -19.428   0.763  0.00  0.00    -0.169 SA
ATOM     13  C   UNL d   1      18.588 -20.964   0.681  0.00  0.00     0.090 C 
ENDBRANCH  11  12
ENDBRANCH   8  11
ENDBRANCH   1   5
BRANCH   3  14
ATOM     14  C   UNL d   1      27.576 -15.899   0.508  0.00  0.00     0.068 A 
ATOM     15  C   UNL d   1      27.359 -14.613   1.011  0.00  0.00     0.033 A 
ATOM     16  C   UNL d   1      28.443 -13.763   1.264  0.00  0.00     0.009 A 
ATOM     17  C   UNL d   1      29.757 -14.204   1.063  0.00  0.00    -0.059 A 
ATOM     18  C   UNL d   1      30.926 -13.346   1.449  0.00  0.00     0.048 C 
ATOM     19  C   UNL d   1      29.972 -15.478   0.525  0.00  0.00     0.045 A 
ATOM     20  C   UNL d   1      28.889 -16.305   0.230  0.00  0.00     0.092 A 
BRANCH  20  21
ATOM     21  O   UNL d   1      29.112 -17.468  -0.455  0.00  0.00    -0.358 OA
ATOM     22  H   UNL d   1      29.297 -18.174   0.182  0.00  0.00     0.217 HD
ENDBRANCH  20  21
ENDBRANCH   3  14
TORSDOF 5
ENDMDL
MODEL 8
REMARK VINA RESULT:    -6.200      3.541      8.432
REMARK INTER + INTRA:          -8.971
REMARK INTER:                  -7.692
REMARK INTRA:                  -1.279
REMARK CONF_INDEPENDENT:        1.492
REMARK UNBOUND:                -1.279
REMARK  5 active torsions:
REMARK  status: ('A' for Active; 'I' for Inactive)
REMARK    1  A    between atoms: S_2  and  C_3 
REMARK    2  A    between atoms: C_3  and  C_4 
REMARK    3  A    between atoms: C_7  and  C_8 
REMARK       I    between atoms: C_8  and  N_10 
REMARK    4  A    between atoms: N_10  and  C_11 
REMARK    5  A    between atoms: C_17  and  O_18 
ROOT
ATOM      1  C   UNL d   1      25.857 -17.306  -0.350  0.00  0.00     0.256 C 
ATOM      2  O   UNL d   1      26.496 -17.916   0.517  0.00  0.00    -0.267 OA
ATOM      3  N   UNL d   1      26.397 -16.329  -1.171  0.00  0.00    -0.321 N 
ATOM      4  H   UNL d   1      25.797 -15.690  -1.667  0.00  0.00     0.169 HD
ENDROOT
BRANCH   1   5
ATOM      5  C   UNL d   1      24.395 -17.600  -0.467  0.00  0.00     0.032 A 
ATOM      6  C   UNL d   1      24.009 -18.937  -0.316  0.00  0.00     0.017 A 
ATOM      7  C   UNL d   1      22.684 -19.327  -0.499  0.00  0.00     0.009 A 
ATOM      8  C   UNL d   1      21.683 -18.389  -0.791  0.00  0.00    -0.049 A 
ATOM      9  C   UNL d   1      22.062 -17.040  -0.893  0.00  0.00     0.009 A 
ATOM     10  C   UNL d   1      23.406 -16.648  -0.744  0.00  0.00     0.017 A 
BRANCH   8  11
ATOM     11  C   UNL d   1      20.221 -18.800  -0.895  0.00  0.00     0.112 C 
BRANCH  11  12
ATOM     12  S   UNL d   1      19.906 -20.428  -0.103  0.00  0.00    -0.169 SA
ATOM     13  C   UNL d   1      19.617 -19.963   1.612  0.00  0.00     0.090 C 
ENDBRANCH  11  12
ENDBRANCH   8  11
ENDBRANCH   1   5
BRANCH   3  14
ATOM     14  C   UNL d   1      27.786 -16.080  -1.262  0.00  0.00     0.068 A 
ATOM     15  C   UNL d   1      28.416 -16.210  -2.503  0.00  0.00     0.033 A 
ATOM     16  C   UNL d   1      29.797 -16.002  -2.617  0.00  0.00     0.009 A 
ATOM     17  C   UNL d   1      30.553 -15.615  -1.505  0.00  0.00    -0.059 A 
ATOM     18  C   UNL d   1      32.007 -15.269  -1.643  0.00  0.00     0.048 C 
ATOM     19  C   UNL d   1      29.929 -15.521  -0.255  0.00  0.00     0.045 A 
ATOM     20  C   UNL d   1      28.562 -15.775  -0.136  0.00  0.00     0.092 A 
BRANCH  20  21
ATOM     21  O   UNL d   1      28.010 -15.851   1.114  0.00  0.00    -0.358 OA
ATOM     22  H   UNL d   1      28.111 -16.756   1.444  0.00  0.00     0.217 HD
ENDBRANCH  20  21
ENDBRANCH   3  14
TORSDOF 5
ENDMDL
MODEL 9
REMARK VINA RESULT:    -6.129      6.311      9.021
REMARK INTER + INTRA:          -8.410
REMARK INTER:                  -7.620
REMARK INTRA:                  -0.790
REMARK CONF_INDEPENDENT:        1.492
REMARK UNBOUND:                -0.790
REMARK  5 active torsions:
REMARK  status: ('A' for Active; 'I' for Inactive)
REMARK    1  A    between atoms: S_2  and  C_3 
REMARK    2  A    between atoms: C_3  and  C_4 
REMARK    3  A    between atoms: C_7  and  C_8 
REMARK       I    between atoms: C_8  and  N_10 
REMARK    4  A    between atoms: N_10  and  C_11 
REMARK    5  A    between atoms: C_17  and  O_18 
ROOT
ATOM      1  C   UNL d   1      27.510 -13.841   2.152  0.00  0.00     0.256 C 
ATOM      2  O   UNL d   1      27.248 -12.643   2.320  0.00  0.00    -0.267 OA
ATOM      3  N   UNL d   1      28.190 -14.625   3.070  0.00  0.00    -0.321 N 
ATOM      4  H   UNL d   1      28.602 -15.499   2.788  0.00  0.00     0.169 HD
ENDROOT
BRANCH   1   5
ATOM      5  C   UNL d   1      27.123 -14.456   0.845  0.00  0.00     0.032 A 
ATOM      6  C   UNL d   1      26.745 -13.576  -0.176  0.00  0.00     0.017 A 
ATOM      7  C   UNL d   1      26.279 -14.054  -1.399  0.00  0.00     0.009 A 
ATOM      8  C   UNL d   1      26.221 -15.429  -1.669  0.00  0.00    -0.049 A 
ATOM      9  C   UNL d   1      26.649 -16.311  -0.663  0.00  0.00     0.009 A 
ATOM     10  C   UNL d   1      27.086 -15.832   0.587  0.00  0.00     0.017 A 
BRANCH   8  11
ATOM     11  C   UNL d   1      25.806 -15.949  -3.039  0.00  0.00     0.112 C 
BRANCH  11  12
ATOM     12  S   UNL d   1      26.181 -14.745  -4.375  0.00  0.00    -0.169 SA
ATOM     13  C   UNL d   1      24.781 -13.618  -4.270  0.00  0.00     0.090 C 
ENDBRANCH  11  12
ENDBRANCH   8  11
ENDBRANCH   1   5
BRANCH   3  14
ATOM     14  C   UNL d   1      28.462 -14.202   4.391  0.00  0.00     0.068 A 
ATOM     15  C   UNL d   1      27.525 -13.403   5.052  0.00  0.00     0.033 A 
ATOM     16  C   UNL d   1      27.781 -12.942   6.350  0.00  0.00     0.009 A 
ATOM     17  C   UNL d   1      28.953 -13.315   7.019  0.00  0.00    -0.059 A 
ATOM     18  C   UNL d   1      29.179 -12.929   8.452  0.00  0.00     0.048 C 
ATOM     19  C   UNL d   1      29.908 -14.085   6.344  0.00  0.00     0.045 A 
ATOM     20  C   UNL d   1      29.670 -14.503   5.035  0.00  0.00     0.092 A 
BRANCH  20  21
ATOM     21  O   UNL d   1      30.684 -15.100   4.337  0.00  0.00    -0.358 OA
ATOM     22  H   UNL d   1      31.530 -14.832   4.726  0.00  0.00     0.217 HD
ENDBRANCH  20  21
ENDBRANCH   3  14
TORSDOF 5
ENDMDL
