MODEL 1
REMARK VINA RESULT:    -9.308      0.000      0.000
REMARK INTER + INTRA:         -13.517
REMARK INTER:                 -11.992
REMARK INTRA:                  -1.525
REMARK CONF_INDEPENDENT:        2.685
REMARK UNBOUND:                -1.525
REMARK  9 active torsions:
REMARK  status: ('A' for Active; 'I' for Inactive)
REMARK    1  A    between atoms: C_2  and  C_3 
REMARK       I    between atoms: C_2  and  N_21 
REMARK    2  A    between atoms: C_3  and  S_4 
REMARK    3  A    between atoms: S_4  and  C_5 
REMARK    4  A    between atoms: C_8  and  N_9 
REMARK    5  A    between atoms: N_9  and  N_10 
REMARK    6  A    between atoms: C_11  and  C_12 
REMARK    7  A    between atoms: N_21  and  C_22 
REMARK    8  A    between atoms: C_22  and  C_23 
REMARK    9  A    between atoms: C_23  and  C_24 
ROOT
ATOM      1  C   UNL d   1      28.247 -13.302   5.309  0.00  0.00     0.226 A 
ATOM      2  N   UNL d   1      28.445 -14.533   5.797  0.00  0.00    -0.132 NA
ATOM      3  N   UNL d   1      28.815 -15.200   4.670  0.00  0.00    -0.103 N 
ATOM      4  C   UNL d   1      28.835 -14.385   3.564  0.00  0.00     0.739 A 
ATOM      5  N   UNL d   1      28.475 -13.184   3.962  0.00  0.00    -0.034 NA
ATOM      6  H   UNL d   1      29.040 -16.185   4.734  0.00  0.00     0.208 HD
ENDROOT
BRANCH   1   7
ATOM      7  S   UNL d   1      27.782 -11.893   6.226  0.00  0.00    -0.079 SA
BRANCH   7   8
ATOM      8  C   UNL d   1      29.266 -10.875   6.457  0.00  0.00     0.185 C 
BRANCH   8   9
ATOM      9  C   UNL d   1      30.468 -11.497   5.715  0.00  0.00     0.227 C 
ATOM     10  O   UNL d   1      30.688 -11.377   4.505  0.00  0.00    -0.273 OA
ATOM     11  N   UNL d   1      31.374 -12.240   6.432  0.00  0.00    -0.360 N 
ATOM     12  H   UNL d   1      32.119 -12.629   5.862  0.00  0.00     0.162 HD
BRANCH  11  13
ATOM     13  C   UNL d   1      31.325 -12.538   7.847  0.00  0.00     0.127 C 
BRANCH  13  14
ATOM     14  C   UNL d   1      30.667 -13.886   8.163  0.00  0.00     0.060 C 
BRANCH  14  15
ATOM     15  C   UNL d   1      29.703 -13.746   9.320  0.00  0.00    -0.035 A 
ATOM     16  C   UNL d   1      28.770 -12.695   9.317  0.00  0.00     0.009 A 
ATOM     17  C   UNL d   1      27.822 -12.578  10.336  0.00  0.00     0.001 A 
ATOM     18  C   UNL d   1      27.785 -13.513  11.367  0.00  0.00     0.002 A 
ATOM     19  C   UNL d   1      28.705 -14.561  11.387  0.00  0.00     0.024 A 
ATOM     20  C   UNL d   1      29.662 -14.675  10.375  0.00  0.00     0.040 A 
ATOM     21 CL   UNL d   1      30.772 -15.996  10.474  0.00  0.00    -0.084 Cl
ENDBRANCH  14  15
ENDBRANCH  13  14
ENDBRANCH  11  13
ENDBRANCH   8   9
ENDBRANCH   7   8
ENDBRANCH   1   7
BRANCH   4  22
ATOM     22  N   UNL d   1      29.184 -14.813   2.313  0.00  0.00    -0.106 N 
ATOM     23  H   UNL d   1      30.110 -15.194   2.129  0.00  0.00     0.208 HD
BRANCH  22  24
ATOM     24  N   UNL d   1      28.276 -14.755   1.281  0.00  0.00    -0.172 NA
ATOM     25  C   UNL d   1      27.736 -15.856   0.860  0.00  0.00     0.152 C 
BRANCH  25  26
ATOM     26  C   UNL d   1      26.711 -15.835  -0.223  0.00  0.00     0.006 A 
ATOM     27  C   UNL d   1      26.689 -14.747  -1.109  0.00  0.00     0.015 A 
ATOM     28  C   UNL d   1      25.726 -14.673  -2.122  0.00  0.00     0.003 A 
ATOM     29  C   UNL d   1      24.780 -15.687  -2.259  0.00  0.00     0.026 A 
ATOM     30  C   UNL d   1      24.802 -16.783  -1.390  0.00  0.00     0.056 A 
ATOM     31 CL   UNL d   1      23.602 -18.007  -1.645  0.00  0.00    -0.083 Cl
ATOM     32  C   UNL d   1      25.766 -16.866  -0.367  0.00  0.00     0.067 A 
ATOM     33 CL   UNL d   1      25.756 -18.205   0.737  0.00  0.00    -0.082 Cl
ENDBRANCH  25  26
ENDBRANCH  22  24
ENDBRANCH   4  22
TORSDOF 9
ENDMDL
MODEL 2
REMARK VINA RESULT:    -9.243      8.622     11.646
REMARK INTER + INTRA:         -13.492
REMARK INTER:                 -11.928
REMARK INTRA:                  -1.564
REMARK CONF_INDEPENDENT:        2.685
REMARK UNBOUND:                -1.564
REMARK  9 active torsions:
REMARK  status: ('A' for Active; 'I' for Inactive)
REMARK    1  A    between atoms: C_2  and  C_3 
REMARK       I    between atoms: C_2  and  N_21 
REMARK    2  A    between atoms: C_3  and  S_4 
REMARK    3  A    between atoms: S_4  and  C_5 
REMARK    4  A    between atoms: C_8  and  N_9 
REMARK    5  A    between atoms: N_9  and  N_10 
REMARK    6  A    between atoms: C_11  and  C_12 
REMARK    7  A    between atoms: N_21  and  C_22 
REMARK    8  A    between atoms: C_22  and  C_23 
REMARK    9  A    between atoms: C_23  and  C_24 
ROOT
ATOM      1  C   UNL d   1      27.777 -12.472  -4.598  0.00  0.00     0.226 A 
ATOM      2  N   UNL d   1      27.178 -11.294  -4.801  0.00  0.00    -0.132 NA
ATOM      3  N   UNL d   1      25.869 -11.649  -4.695  0.00  0.00    -0.103 N 
ATOM      4  C   UNL d   1      25.711 -12.989  -4.434  0.00  0.00     0.739 A 
ATOM      5  N   UNL d   1      26.914 -13.515  -4.374  0.00  0.00    -0.034 NA
ATOM      6  H   UNL d   1      25.157 -10.937  -4.802  0.00  0.00     0.208 HD
ENDROOT
BRANCH   1   7
ATOM      7  S   UNL d   1      29.498 -12.761  -4.558  0.00  0.00    -0.079 SA
BRANCH   7   8
ATOM      8  C   UNL d   1      29.759 -14.544  -4.772  0.00  0.00     0.185 C 
BRANCH   8   9
ATOM      9  C   UNL d   1      29.080 -15.036  -6.068  0.00  0.00     0.227 C 
ATOM     10  O   UNL d   1      27.870 -15.259  -6.190  0.00  0.00    -0.273 OA
ATOM     11  N   UNL d   1      29.857 -15.247  -7.182  0.00  0.00    -0.360 N 
ATOM     12  H   UNL d   1      29.333 -15.591  -7.981  0.00  0.00     0.162 HD
BRANCH  11  13
ATOM     13  C   UNL d   1      31.290 -15.076  -7.285  0.00  0.00     0.127 C 
BRANCH  13  14
ATOM     14  C   UNL d   1      32.039 -16.384  -7.568  0.00  0.00     0.060 C 
BRANCH  14  15
ATOM     15  C   UNL d   1      31.514 -17.496  -6.687  0.00  0.00    -0.035 A 
ATOM     16  C   UNL d   1      31.410 -17.286  -5.301  0.00  0.00     0.009 A 
ATOM     17  C   UNL d   1      30.865 -18.268  -4.469  0.00  0.00     0.001 A 
ATOM     18  C   UNL d   1      30.408 -19.467  -5.010  0.00  0.00     0.002 A 
ATOM     19  C   UNL d   1      30.506 -19.691  -6.383  0.00  0.00     0.024 A 
ATOM     20  C   UNL d   1      31.060 -18.717  -7.216  0.00  0.00     0.040 A 
ATOM     21 CL   UNL d   1      31.155 -19.073  -8.905  0.00  0.00    -0.084 Cl
ENDBRANCH  14  15
ENDBRANCH  13  14
ENDBRANCH  11  13
ENDBRANCH   8   9
ENDBRANCH   7   8
ENDBRANCH   1   7
BRANCH   4  22
ATOM     22  N   UNL d   1      24.494 -13.591  -4.271  0.00  0.00    -0.106 N 
ATOM     23  H   UNL d   1      23.659 -13.212  -4.713  0.00  0.00     0.208 HD
BRANCH  22  24
ATOM     24  N   UNL d   1      24.383 -14.739  -3.520  0.00  0.00    -0.172 NA
ATOM     25  C   UNL d   1      24.913 -14.764  -2.336  0.00  0.00     0.152 C 
BRANCH  25  26
ATOM     26  C   UNL d   1      24.775 -15.970  -1.468  0.00  0.00     0.006 A 
ATOM     27  C   UNL d   1      23.488 -16.446  -1.176  0.00  0.00     0.015 A 
ATOM     28  C   UNL d   1      23.312 -17.557  -0.344  0.00  0.00     0.003 A 
ATOM     29  C   UNL d   1      24.421 -18.202   0.201  0.00  0.00     0.026 A 
ATOM     30  C   UNL d   1      25.709 -17.744  -0.096  0.00  0.00     0.056 A 
ATOM     31 CL   UNL d   1      27.031 -18.617   0.607  0.00  0.00    -0.083 Cl
ATOM     32  C   UNL d   1      25.896 -16.625  -0.932  0.00  0.00     0.067 A 
ATOM     33 CL   UNL d   1      27.496 -16.034  -1.255  0.00  0.00    -0.082 Cl
ENDBRANCH  25  26
ENDBRANCH  22  24
ENDBRANCH   4  22
TORSDOF 9
ENDMDL
MODEL 3
REMARK VINA RESULT:    -9.108      4.636      9.493
REMARK INTER + INTRA:         -13.580
REMARK INTER:                 -11.793
REMARK INTRA:                  -1.787
REMARK CONF_INDEPENDENT:        2.685
REMARK UNBOUND:                -1.787
REMARK  9 active torsions:
REMARK  status: ('A' for Active; 'I' for Inactive)
REMARK    1  A    between atoms: C_2  and  C_3 
REMARK       I    between atoms: C_2  and  N_21 
REMARK    2  A    between atoms: C_3  and  S_4 
REMARK    3  A    between atoms: S_4  and  C_5 
REMARK    4  A    between atoms: C_8  and  N_9 
REMARK    5  A    between atoms: N_9  and  N_10 
REMARK    6  A    between atoms: C_11  and  C_12 
REMARK    7  A    between atoms: N_21  and  C_22 
REMARK    8  A    between atoms: C_22  and  C_23 
REMARK    9  A    between atoms: C_23  and  C_24 
ROOT
ATOM      1  C   UNL d   1      29.186 -15.752  -2.857  0.00  0.00     0.226 A 
ATOM      2  N   UNL d   1      29.588 -17.024  -2.759  0.00  0.00    -0.132 NA
ATOM      3  N   UNL d   1      29.515 -17.215  -1.414  0.00  0.00    -0.103 N 
ATOM      4  C   UNL d   1      29.082 -16.092  -0.751  0.00  0.00     0.739 A 
ATOM      5  N   UNL d   1      28.874 -15.163  -1.658  0.00  0.00    -0.034 NA
ATOM      6  H   UNL d   1      29.765 -18.118  -1.032  0.00  0.00     0.208 HD
ENDROOT
BRANCH   1   7
ATOM      7  S   UNL d   1      28.999 -14.841  -4.333  0.00  0.00    -0.079 SA
BRANCH   7   8
ATOM      8  C   UNL d   1      27.338 -14.110  -4.319  0.00  0.00     0.185 C 
BRANCH   8   9
ATOM      9  C   UNL d   1      26.261 -15.215  -4.375  0.00  0.00     0.227 C 
ATOM     10  O   UNL d   1      26.047 -15.940  -5.353  0.00  0.00    -0.273 OA
ATOM     11  N   UNL d   1      25.475 -15.428  -3.270  0.00  0.00    -0.360 N 
ATOM     12  H   UNL d   1      24.780 -16.158  -3.403  0.00  0.00     0.162 HD
BRANCH  11  13
ATOM     13  C   UNL d   1      25.521 -14.702  -2.019  0.00  0.00     0.127 C 
BRANCH  13  14
ATOM     14  C   UNL d   1      25.827 -15.593  -0.809  0.00  0.00     0.060 C 
BRANCH  14  15
ATOM     15  C   UNL d   1      24.749 -16.641  -0.638  0.00  0.00    -0.035 A 
ATOM     16  C   UNL d   1      23.421 -16.325  -0.975  0.00  0.00     0.009 A 
ATOM     17  C   UNL d   1      22.414 -17.290  -0.893  0.00  0.00     0.001 A 
ATOM     18  C   UNL d   1      22.720 -18.586  -0.485  0.00  0.00     0.002 A 
ATOM     19  C   UNL d   1      24.031 -18.915  -0.145  0.00  0.00     0.024 A 
ATOM     20  C   UNL d   1      25.039 -17.950  -0.215  0.00  0.00     0.040 A 
ATOM     21 CL   UNL d   1      26.637 -18.433   0.230  0.00  0.00    -0.084 Cl
ENDBRANCH  14  15
ENDBRANCH  13  14
ENDBRANCH  11  13
ENDBRANCH   8   9
ENDBRANCH   7   8
ENDBRANCH   1   7
BRANCH   4  22
ATOM     22  N   UNL d   1      28.914 -16.030   0.605  0.00  0.00    -0.106 N 
ATOM     23  H   UNL d   1      28.934 -16.874   1.174  0.00  0.00     0.208 HD
BRANCH  22  24
ATOM     24  N   UNL d   1      28.734 -14.815   1.227  0.00  0.00    -0.172 NA
ATOM     25  C   UNL d   1      28.147 -14.787   2.384  0.00  0.00     0.152 C 
BRANCH  25  26
ATOM     26  C   UNL d   1      27.975 -13.498   3.116  0.00  0.00     0.006 A 
ATOM     27  C   UNL d   1      27.658 -12.344   2.383  0.00  0.00     0.015 A 
ATOM     28  C   UNL d   1      27.515 -11.110   3.027  0.00  0.00     0.003 A 
ATOM     29  C   UNL d   1      27.684 -11.020   4.407  0.00  0.00     0.026 A 
ATOM     30  C   UNL d   1      27.984 -12.168   5.149  0.00  0.00     0.056 A 
ATOM     31 CL   UNL d   1      28.156 -11.969   6.861  0.00  0.00    -0.083 Cl
ATOM     32  C   UNL d   1      28.132 -13.414   4.510  0.00  0.00     0.067 A 
ATOM     33 CL   UNL d   1      28.553 -14.824   5.431  0.00  0.00    -0.082 Cl
ENDBRANCH  25  26
ENDBRANCH  22  24
ENDBRANCH   4  22
TORSDOF 9
ENDMDL
MODEL 4
REMARK VINA RESULT:    -8.966      2.329      9.895
REMARK INTER + INTRA:         -13.082
REMARK INTER:                 -11.651
REMARK INTRA:                  -1.431
REMARK CONF_INDEPENDENT:        2.685
REMARK UNBOUND:                -1.431
REMARK  9 active torsions:
REMARK  status: ('A' for Active; 'I' for Inactive)
REMARK    1  A    between atoms: C_2  and  C_3 
REMARK       I    between atoms: C_2  and  N_21 
REMARK    2  A    between atoms: C_3  and  S_4 
REMARK    3  A    between atoms: S_4  and  C_5 
REMARK    4  A    between atoms: C_8  and  N_9 
REMARK    5  A    between atoms: N_9  and  N_10 
REMARK    6  A    between atoms: C_11  and  C_12 
REMARK    7  A    between atoms: N_21  and  C_22 
REMARK    8  A    between atoms: C_22  and  C_23 
REMARK    9  A    between atoms: C_23  and  C_24 
ROOT
ATOM      1  C   UNL d   1      27.891 -13.400   2.875  0.00  0.00     0.226 A 
ATOM      2  N   UNL d   1      27.101 -14.080   3.713  0.00  0.00    -0.132 NA
ATOM      3  N   UNL d   1      27.992 -14.432   4.679  0.00  0.00    -0.103 N 
ATOM      4  C   UNL d   1      29.258 -13.968   4.414  0.00  0.00     0.739 A 
ATOM      5  N   UNL d   1      29.201 -13.317   3.273  0.00  0.00    -0.034 NA
ATOM      6  H   UNL d   1      27.668 -14.969   5.474  0.00  0.00     0.208 HD
ENDROOT
BRANCH   1   7
ATOM      7  S   UNL d   1      27.393 -12.612   1.400  0.00  0.00    -0.079 SA
BRANCH   7   8
ATOM      8  C   UNL d   1      27.731 -13.752   0.029  0.00  0.00     0.185 C 
BRANCH   8   9
ATOM      9  C   UNL d   1      28.944 -14.647   0.358  0.00  0.00     0.227 C 
ATOM     10  O   UNL d   1      30.125 -14.284   0.299  0.00  0.00    -0.273 OA
ATOM     11  N   UNL d   1      28.722 -15.944   0.751  0.00  0.00    -0.360 N 
ATOM     12  H   UNL d   1      29.575 -16.466   0.926  0.00  0.00     0.162 HD
BRANCH  11  13
ATOM     13  C   UNL d   1      27.440 -16.604   0.879  0.00  0.00     0.127 C 
BRANCH  13  14
ATOM     14  C   UNL d   1      27.044 -17.408  -0.365  0.00  0.00     0.060 C 
BRANCH  14  15
ATOM     15  C   UNL d   1      25.538 -17.451  -0.509  0.00  0.00    -0.035 A 
ATOM     16  C   UNL d   1      24.812 -18.460   0.147  0.00  0.00     0.009 A 
ATOM     17  C   UNL d   1      23.416 -18.487   0.090  0.00  0.00     0.001 A 
ATOM     18  C   UNL d   1      22.726 -17.503  -0.613  0.00  0.00     0.002 A 
ATOM     19  C   UNL d   1      23.432 -16.497  -1.272  0.00  0.00     0.024 A 
ATOM     20  C   UNL d   1      24.828 -16.473  -1.227  0.00  0.00     0.040 A 
ATOM     21 CL   UNL d   1      25.631 -15.199  -2.075  0.00  0.00    -0.084 Cl
ENDBRANCH  14  15
ENDBRANCH  13  14
ENDBRANCH  11  13
ENDBRANCH   8   9
ENDBRANCH   7   8
ENDBRANCH   1   7
BRANCH   4  22
ATOM     22  N   UNL d   1      30.330 -14.178   5.238  0.00  0.00    -0.106 N 
ATOM     23  H   UNL d   1      31.282 -14.051   4.901  0.00  0.00     0.208 HD
BRANCH  22  24
ATOM     24  N   UNL d   1      30.135 -14.548   6.549  0.00  0.00    -0.172 NA
ATOM     25  C   UNL d   1      30.654 -13.818   7.488  0.00  0.00     0.152 C 
BRANCH  25  26
ATOM     26  C   UNL d   1      30.428 -14.153   8.923  0.00  0.00     0.006 A 
ATOM     27  C   UNL d   1      31.171 -15.195   9.498  0.00  0.00     0.015 A 
ATOM     28  C   UNL d   1      30.970 -15.560  10.834  0.00  0.00     0.003 A 
ATOM     29  C   UNL d   1      30.027 -14.886  11.606  0.00  0.00     0.026 A 
ATOM     30  C   UNL d   1      29.291 -13.836  11.047  0.00  0.00     0.056 A 
ATOM     31 CL   UNL d   1      28.155 -13.038  12.085  0.00  0.00    -0.083 Cl
ATOM     32  C   UNL d   1      29.485 -13.462   9.703  0.00  0.00     0.067 A 
ATOM     33 CL   UNL d   1      28.532 -12.190   9.004  0.00  0.00    -0.082 Cl
ENDBRANCH  25  26
ENDBRANCH  22  24
ENDBRANCH   4  22
TORSDOF 9
ENDMDL
MODEL 5
REMARK VINA RESULT:    -8.872      2.495      9.666
REMARK INTER + INTRA:         -12.792
REMARK INTER:                 -11.557
REMARK INTRA:                  -1.235
REMARK CONF_INDEPENDENT:        2.685
REMARK UNBOUND:                -1.235
REMARK  9 active torsions:
REMARK  status: ('A' for Active; 'I' for Inactive)
REMARK    1  A    between atoms: C_2  and  C_3 
REMARK       I    between atoms: C_2  and  N_21 
REMARK    2  A    between atoms: C_3  and  S_4 
REMARK    3  A    between atoms: S_4  and  C_5 
REMARK    4  A    between atoms: C_8  and  N_9 
REMARK    5  A    between atoms: N_9  and  N_10 
REMARK    6  A    between atoms: C_11  and  C_12 
REMARK    7  A    between atoms: N_21  and  C_22 
REMARK    8  A    between atoms: C_22  and  C_23 
REMARK    9  A    between atoms: C_23  and  C_24 
ROOT
ATOM      1  C   UNL d   1      30.487 -13.436   1.889  0.00  0.00     0.226 A 
ATOM      2  N   UNL d   1      31.473 -13.078   2.721  0.00  0.00    -0.132 NA
ATOM      3  N   UNL d   1      31.106 -13.736   3.853  0.00  0.00    -0.103 N 
ATOM      4  C   UNL d   1      29.947 -14.455   3.687  0.00  0.00     0.739 A 
ATOM      5  N   UNL d   1      29.550 -14.267   2.447  0.00  0.00    -0.034 NA
ATOM      6  H   UNL d   1      31.686 -13.654   4.679  0.00  0.00     0.208 HD
ENDROOT
BRANCH   1   7
ATOM      7  S   UNL d   1      30.335 -12.976   0.213  0.00  0.00    -0.079 SA
BRANCH   7   8
ATOM      8  C   UNL d   1      30.602 -14.465  -0.790  0.00  0.00     0.185 C 
BRANCH   8   9
ATOM      9  C   UNL d   1      30.855 -15.688   0.117  0.00  0.00     0.227 C 
ATOM     10  O   UNL d   1      31.891 -15.883   0.764  0.00  0.00    -0.273 OA
ATOM     11  N   UNL d   1      29.872 -16.640   0.233  0.00  0.00    -0.360 N 
ATOM     12  H   UNL d   1      30.132 -17.419   0.831  0.00  0.00     0.162 HD
BRANCH  11  13
ATOM     13  C   UNL d   1      28.588 -16.646  -0.434  0.00  0.00     0.127 C 
BRANCH  13  14
ATOM     14  C   UNL d   1      27.405 -16.454   0.522  0.00  0.00     0.060 C 
BRANCH  14  15
ATOM     15  C   UNL d   1      26.125 -16.951  -0.112  0.00  0.00    -0.035 A 
ATOM     16  C   UNL d   1      25.530 -18.129   0.371  0.00  0.00     0.009 A 
ATOM     17  C   UNL d   1      24.312 -18.578  -0.148  0.00  0.00     0.001 A 
ATOM     18  C   UNL d   1      23.668 -17.853  -1.147  0.00  0.00     0.002 A 
ATOM     19  C   UNL d   1      24.247 -16.684  -1.638  0.00  0.00     0.024 A 
ATOM     20  C   UNL d   1      25.469 -16.237  -1.131  0.00  0.00     0.040 A 
ATOM     21 CL   UNL d   1      26.126 -14.784  -1.797  0.00  0.00    -0.084 Cl
ENDBRANCH  14  15
ENDBRANCH  13  14
ENDBRANCH  11  13
ENDBRANCH   8   9
ENDBRANCH   7   8
ENDBRANCH   1   7
BRANCH   4  22
ATOM     22  N   UNL d   1      29.376 -15.211   4.673  0.00  0.00    -0.106 N 
ATOM     23  H   UNL d   1      29.246 -16.214   4.556  0.00  0.00     0.208 HD
BRANCH  22  24
ATOM     24  N   UNL d   1      28.984 -14.626   5.856  0.00  0.00    -0.172 NA
ATOM     25  C   UNL d   1      29.896 -14.253   6.700  0.00  0.00     0.152 C 
BRANCH  25  26
ATOM     26  C   UNL d   1      29.520 -13.572   7.972  0.00  0.00     0.006 A 
ATOM     27  C   UNL d   1      28.527 -12.580   7.938  0.00  0.00     0.015 A 
ATOM     28  C   UNL d   1      28.164 -11.896   9.104  0.00  0.00     0.003 A 
ATOM     29  C   UNL d   1      28.787 -12.200  10.312  0.00  0.00     0.026 A 
ATOM     30  C   UNL d   1      29.766 -13.197  10.361  0.00  0.00     0.056 A 
ATOM     31 CL   UNL d   1      30.474 -13.524  11.908  0.00  0.00    -0.083 Cl
ATOM     32  C   UNL d   1      30.140 -13.890   9.192  0.00  0.00     0.067 A 
ATOM     33 CL   UNL d   1      31.392 -15.091   9.253  0.00  0.00    -0.082 Cl
ENDBRANCH  25  26
ENDBRANCH  22  24
ENDBRANCH   4  22
TORSDOF 9
ENDMDL
MODEL 6
REMARK VINA RESULT:    -8.697      3.269      9.757
REMARK INTER + INTRA:         -12.825
REMARK INTER:                 -11.382
REMARK INTRA:                  -1.443
REMARK CONF_INDEPENDENT:        2.685
REMARK UNBOUND:                -1.443
REMARK  9 active torsions:
REMARK  status: ('A' for Active; 'I' for Inactive)
REMARK    1  A    between atoms: C_2  and  C_3 
REMARK       I    between atoms: C_2  and  N_21 
REMARK    2  A    between atoms: C_3  and  S_4 
REMARK    3  A    between atoms: S_4  and  C_5 
REMARK    4  A    between atoms: C_8  and  N_9 
REMARK    5  A    between atoms: N_9  and  N_10 
REMARK    6  A    between atoms: C_11  and  C_12 
REMARK    7  A    between atoms: N_21  and  C_22 
REMARK    8  A    between atoms: C_22  and  C_23 
REMARK    9  A    between atoms: C_23  and  C_24 
ROOT
ATOM      1  C   UNL d   1      27.849 -13.582   0.848  0.00  0.00     0.226 A 
ATOM      2  N   UNL d   1      29.055 -14.137   0.676  0.00  0.00    -0.132 NA
ATOM      3  N   UNL d   1      29.193 -14.820   1.844  0.00  0.00    -0.103 N 
ATOM      4  C   UNL d   1      28.104 -14.672   2.668  0.00  0.00     0.739 A 
ATOM      5  N   UNL d   1      27.252 -13.888   2.044  0.00  0.00    -0.034 NA
ATOM      6  H   UNL d   1      30.036 -15.359   2.001  0.00  0.00     0.208 HD
ENDROOT
BRANCH   1   7
ATOM      7  S   UNL d   1      27.003 -12.577  -0.300  0.00  0.00    -0.079 SA
BRANCH   7   8
ATOM      8  C   UNL d   1      27.294 -13.269  -1.952  0.00  0.00     0.185 C 
BRANCH   8   9
ATOM      9  C   UNL d   1      26.406 -12.563  -2.998  0.00  0.00     0.227 C 
ATOM     10  O   UNL d   1      26.698 -11.509  -3.575  0.00  0.00    -0.273 OA
ATOM     11  N   UNL d   1      25.199 -13.129  -3.330  0.00  0.00    -0.360 N 
ATOM     12  H   UNL d   1      24.671 -12.587  -4.008  0.00  0.00     0.162 HD
BRANCH  11  13
ATOM     13  C   UNL d   1      24.630 -14.342  -2.784  0.00  0.00     0.127 C 
BRANCH  13  14
ATOM     14  C   UNL d   1      25.529 -15.571  -2.964  0.00  0.00     0.060 C 
BRANCH  14  15
ATOM     15  C   UNL d   1      25.483 -16.446  -1.731  0.00  0.00    -0.035 A 
ATOM     16  C   UNL d   1      24.240 -16.888  -1.247  0.00  0.00     0.009 A 
ATOM     17  C   UNL d   1      24.166 -17.752  -0.151  0.00  0.00     0.001 A 
ATOM     18  C   UNL d   1      25.332 -18.195   0.468  0.00  0.00     0.002 A 
ATOM     19  C   UNL d   1      26.573 -17.764   0.001  0.00  0.00     0.024 A 
ATOM     20  C   UNL d   1      26.650 -16.891  -1.086  0.00  0.00     0.040 A 
ATOM     21 CL   UNL d   1      28.224 -16.396  -1.601  0.00  0.00    -0.084 Cl
ENDBRANCH  14  15
ENDBRANCH  13  14
ENDBRANCH  11  13
ENDBRANCH   8   9
ENDBRANCH   7   8
ENDBRANCH   1   7
BRANCH   4  22
ATOM     22  N   UNL d   1      27.994 -15.268   3.894  0.00  0.00    -0.106 N 
ATOM     23  H   UNL d   1      27.963 -16.281   3.983  0.00  0.00     0.208 HD
BRANCH  22  24
ATOM     24  N   UNL d   1      27.944 -14.501   5.036  0.00  0.00    -0.172 NA
ATOM     25  C   UNL d   1      29.038 -14.304   5.705  0.00  0.00     0.152 C 
BRANCH  25  26
ATOM     26  C   UNL d   1      29.040 -13.440   6.920  0.00  0.00     0.006 A 
ATOM     27  C   UNL d   1      28.903 -14.047   8.179  0.00  0.00     0.015 A 
ATOM     28  C   UNL d   1      28.872 -13.271   9.343  0.00  0.00     0.003 A 
ATOM     29  C   UNL d   1      28.980 -11.885   9.260  0.00  0.00     0.026 A 
ATOM     30  C   UNL d   1      29.132 -11.271   8.011  0.00  0.00     0.056 A 
ATOM     31 CL   UNL d   1      29.281  -9.545   8.002  0.00  0.00    -0.083 Cl
ATOM     32  C   UNL d   1      29.163 -12.043   6.833  0.00  0.00     0.067 A 
ATOM     33 CL   UNL d   1      29.303 -11.270   5.286  0.00  0.00    -0.082 Cl
ENDBRANCH  25  26
ENDBRANCH  22  24
ENDBRANCH   4  22
TORSDOF 9
ENDMDL
MODEL 7
REMARK VINA RESULT:    -8.575      5.180      9.254
REMARK INTER + INTRA:         -13.215
REMARK INTER:                 -11.259
REMARK INTRA:                  -1.956
REMARK CONF_INDEPENDENT:        2.685
REMARK UNBOUND:                -1.956
REMARK  9 active torsions:
REMARK  status: ('A' for Active; 'I' for Inactive)
REMARK    1  A    between atoms: C_2  and  C_3 
REMARK       I    between atoms: C_2  and  N_21 
REMARK    2  A    between atoms: C_3  and  S_4 
REMARK    3  A    between atoms: S_4  and  C_5 
REMARK    4  A    between atoms: C_8  and  N_9 
REMARK    5  A    between atoms: N_9  and  N_10 
REMARK    6  A    between atoms: C_11  and  C_12 
REMARK    7  A    between atoms: N_21  and  C_22 
REMARK    8  A    between atoms: C_22  and  C_23 
REMARK    9  A    between atoms: C_23  and  C_24 
ROOT
ATOM      1  C   UNL d   1      29.890 -16.463  -2.203  0.00  0.00     0.226 A 
ATOM      2  N   UNL d   1      29.863 -17.739  -1.800  0.00  0.00    -0.132 NA
ATOM      3  N   UNL d   1      30.171 -17.600  -0.482  0.00  0.00    -0.103 N 
ATOM      4  C   UNL d   1      30.368 -16.287  -0.128  0.00  0.00     0.739 A 
ATOM      5  N   UNL d   1      30.194 -15.564  -1.213  0.00  0.00    -0.034 NA
ATOM      6  H   UNL d   1      30.220 -18.427   0.100  0.00  0.00     0.208 HD
ENDROOT
BRANCH   1   7
ATOM      7  S   UNL d   1      29.545 -15.882  -3.811  0.00  0.00    -0.079 SA
BRANCH   7   8
ATOM      8  C   UNL d   1      28.166 -14.709  -3.685  0.00  0.00     0.185 C 
BRANCH   8   9
ATOM      9  C   UNL d   1      26.994 -15.155  -4.586  0.00  0.00     0.227 C 
ATOM     10  O   UNL d   1      27.114 -15.573  -5.743  0.00  0.00    -0.273 OA
ATOM     11  N   UNL d   1      25.716 -15.094  -4.086  0.00  0.00    -0.360 N 
ATOM     12  H   UNL d   1      25.007 -15.385  -4.753  0.00  0.00     0.162 HD
BRANCH  11  13
ATOM     13  C   UNL d   1      25.319 -14.627  -2.776  0.00  0.00     0.127 C 
BRANCH  13  14
ATOM     14  C   UNL d   1      24.387 -15.598  -2.040  0.00  0.00     0.060 C 
BRANCH  14  15
ATOM     15  C   UNL d   1      25.174 -16.455  -1.073  0.00  0.00    -0.035 A 
ATOM     16  C   UNL d   1      26.529 -16.164  -0.839  0.00  0.00     0.009 A 
ATOM     17  C   UNL d   1      27.265 -16.892   0.099  0.00  0.00     0.001 A 
ATOM     18  C   UNL d   1      26.655 -17.914   0.823  0.00  0.00     0.002 A 
ATOM     19  C   UNL d   1      25.313 -18.217   0.602  0.00  0.00     0.024 A 
ATOM     20  C   UNL d   1      24.577 -17.498  -0.343  0.00  0.00     0.040 A 
ATOM     21 CL   UNL d   1      22.921 -17.938  -0.566  0.00  0.00    -0.084 Cl
ENDBRANCH  14  15
ENDBRANCH  13  14
ENDBRANCH  11  13
ENDBRANCH   8   9
ENDBRANCH   7   8
ENDBRANCH   1   7
BRANCH   4  22
ATOM     22  N   UNL d   1      30.677 -15.883   1.141  0.00  0.00    -0.106 N 
ATOM     23  H   UNL d   1      31.177 -16.498   1.780  0.00  0.00     0.208 HD
BRANCH  22  24
ATOM     24  N   UNL d   1      30.332 -14.621   1.571  0.00  0.00    -0.172 NA
ATOM     25  C   UNL d   1      29.163 -14.440   2.101  0.00  0.00     0.152 C 
BRANCH  25  26
ATOM     26  C   UNL d   1      28.765 -13.101   2.625  0.00  0.00     0.006 A 
ATOM     27  C   UNL d   1      29.528 -12.525   3.652  0.00  0.00     0.015 A 
ATOM     28  C   UNL d   1      29.175 -11.283   4.191  0.00  0.00     0.003 A 
ATOM     29  C   UNL d   1      28.058 -10.606   3.707  0.00  0.00     0.026 A 
ATOM     30  C   UNL d   1      27.299 -11.164   2.672  0.00  0.00     0.056 A 
ATOM     31 CL   UNL d   1      25.939 -10.245   2.116  0.00  0.00    -0.083 Cl
ATOM     32  C   UNL d   1      27.646 -12.414   2.124  0.00  0.00     0.067 A 
ATOM     33 CL   UNL d   1      26.670 -13.122   0.875  0.00  0.00    -0.082 Cl
ENDBRANCH  25  26
ENDBRANCH  22  24
ENDBRANCH   4  22
TORSDOF 9
ENDMDL
MODEL 8
REMARK VINA RESULT:    -8.450      3.804      9.656
REMARK INTER + INTRA:         -12.698
REMARK INTER:                 -11.135
REMARK INTRA:                  -1.563
REMARK CONF_INDEPENDENT:        2.685
REMARK UNBOUND:                -1.563
REMARK  9 active torsions:
REMARK  status: ('A' for Active; 'I' for Inactive)
REMARK    1  A    between atoms: C_2  and  C_3 
REMARK       I    between atoms: C_2  and  N_21 
REMARK    2  A    between atoms: C_3  and  S_4 
REMARK    3  A    between atoms: S_4  and  C_5 
REMARK    4  A    between atoms: C_8  and  N_9 
REMARK    5  A    between atoms: N_9  and  N_10 
REMARK    6  A    between atoms: C_11  and  C_12 
REMARK    7  A    between atoms: N_21  and  C_22 
REMARK    8  A    between atoms: C_22  and  C_23 
REMARK    9  A    between atoms: C_23  and  C_24 
ROOT
ATOM      1  C   UNL d   1      29.299 -14.944  -1.490  0.00  0.00     0.226 A 
ATOM      2  N   UNL d   1      29.755 -15.857  -0.624  0.00  0.00    -0.132 NA
ATOM      3  N   UNL d   1      29.087 -15.498   0.505  0.00  0.00    -0.103 N 
ATOM      4  C   UNL d   1      28.266 -14.415   0.304  0.00  0.00     0.739 A 
ATOM      5  N   UNL d   1      28.398 -14.058  -0.955  0.00  0.00    -0.034 NA
ATOM      6  H   UNL d   1      29.233 -16.032   1.353  0.00  0.00     0.208 HD
ENDROOT
BRANCH   1   7
ATOM      7  S   UNL d   1      29.716 -14.826  -3.180  0.00  0.00    -0.079 SA
BRANCH   7   8
ATOM      8  C   UNL d   1      28.363 -13.955  -4.018  0.00  0.00     0.185 C 
BRANCH   8   9
ATOM      9  C   UNL d   1      27.381 -14.965  -4.650  0.00  0.00     0.227 C 
ATOM     10  O   UNL d   1      27.579 -15.573  -5.708  0.00  0.00    -0.273 OA
ATOM     11  N   UNL d   1      26.196 -15.226  -4.006  0.00  0.00    -0.360 N 
ATOM     12  H   UNL d   1      25.603 -15.884  -4.502  0.00  0.00     0.162 HD
BRANCH  11  13
ATOM     13  C   UNL d   1      25.731 -14.631  -2.772  0.00  0.00     0.127 C 
BRANCH  13  14
ATOM     14  C   UNL d   1      24.587 -15.412  -2.113  0.00  0.00     0.060 C 
BRANCH  14  15
ATOM     15  C   UNL d   1      25.135 -16.555  -1.287  0.00  0.00    -0.035 A 
ATOM     16  C   UNL d   1      26.526 -16.722  -1.179  0.00  0.00     0.009 A 
ATOM     17  C   UNL d   1      27.064 -17.726  -0.369  0.00  0.00     0.001 A 
ATOM     18  C   UNL d   1      26.221 -18.568   0.351  0.00  0.00     0.002 A 
ATOM     19  C   UNL d   1      24.839 -18.418   0.253  0.00  0.00     0.024 A 
ATOM     20  C   UNL d   1      24.297 -17.423  -0.564  0.00  0.00     0.040 A 
ATOM     21 CL   UNL d   1      22.575 -17.305  -0.640  0.00  0.00    -0.084 Cl
ENDBRANCH  14  15
ENDBRANCH  13  14
ENDBRANCH  11  13
ENDBRANCH   8   9
ENDBRANCH   7   8
ENDBRANCH   1   7
BRANCH   4  22
ATOM     22  N   UNL d   1      27.479 -13.869   1.280  0.00  0.00    -0.106 N 
ATOM     23  H   UNL d   1      26.465 -13.850   1.187  0.00  0.00     0.208 HD
BRANCH  22  24
ATOM     24  N   UNL d   1      28.048 -13.351   2.421  0.00  0.00    -0.172 NA
ATOM     25  C   UNL d   1      27.293 -13.133   3.453  0.00  0.00     0.152 C 
BRANCH  25  26
ATOM     26  C   UNL d   1      27.876 -12.619   4.726  0.00  0.00     0.006 A 
ATOM     27  C   UNL d   1      27.966 -11.231   4.914  0.00  0.00     0.015 A 
ATOM     28  C   UNL d   1      28.531 -10.706   6.081  0.00  0.00     0.003 A 
ATOM     29  C   UNL d   1      29.009 -11.563   7.070  0.00  0.00     0.026 A 
ATOM     30  C   UNL d   1      28.911 -12.948   6.899  0.00  0.00     0.056 A 
ATOM     31 CL   UNL d   1      29.511 -13.939   8.188  0.00  0.00    -0.083 Cl
ATOM     32  C   UNL d   1      28.345 -13.486   5.727  0.00  0.00     0.067 A 
ATOM     33 CL   UNL d   1      28.272 -15.206   5.502  0.00  0.00    -0.082 Cl
ENDBRANCH  25  26
ENDBRANCH  22  24
ENDBRANCH   4  22
TORSDOF 9
ENDMDL
MODEL 9
REMARK VINA RESULT:    -8.356      2.662      3.431
REMARK INTER + INTRA:         -13.109
REMARK INTER:                 -11.040
REMARK INTRA:                  -2.069
REMARK CONF_INDEPENDENT:        2.685
REMARK UNBOUND:                -2.069
REMARK  9 active torsions:
REMARK  status: ('A' for Active; 'I' for Inactive)
REMARK    1  A    between atoms: C_2  and  C_3 
REMARK       I    between atoms: C_2  and  N_21 
REMARK    2  A    between atoms: C_3  and  S_4 
REMARK    3  A    between atoms: S_4  and  C_5 
REMARK    4  A    between atoms: C_8  and  N_9 
REMARK    5  A    between atoms: N_9  and  N_10 
REMARK    6  A    between atoms: C_11  and  C_12 
REMARK    7  A    between atoms: N_21  and  C_22 
REMARK    8  A    between atoms: C_22  and  C_23 
REMARK    9  A    between atoms: C_23  and  C_24 
ROOT
ATOM      1  C   UNL d   1      30.426 -12.065   3.103  0.00  0.00     0.226 A 
ATOM      2  N   UNL d   1      31.207 -12.718   3.972  0.00  0.00    -0.132 NA
ATOM      3  N   UNL d   1      31.178 -13.974   3.451  0.00  0.00    -0.103 N 
ATOM      4  C   UNL d   1      30.409 -14.050   2.315  0.00  0.00     0.739 A 
ATOM      5  N   UNL d   1      29.929 -12.846   2.092  0.00  0.00    -0.034 NA
ATOM      6  H   UNL d   1      31.702 -14.708   3.911  0.00  0.00     0.208 HD
ENDROOT
BRANCH   1   7
ATOM      7  S   UNL d   1      30.043 -10.363   3.139  0.00  0.00    -0.079 SA
BRANCH   7   8
ATOM      8  C   UNL d   1      28.236 -10.207   3.079  0.00  0.00     0.185 C 
BRANCH   8   9
ATOM      9  C   UNL d   1      27.750  -9.162   4.106  0.00  0.00     0.227 C 
ATOM     10  O   UNL d   1      27.041  -8.186   3.837  0.00  0.00    -0.273 OA
ATOM     11  N   UNL d   1      28.118  -9.308   5.421  0.00  0.00    -0.360 N 
ATOM     12  H   UNL d   1      27.773  -8.565   6.022  0.00  0.00     0.162 HD
BRANCH  11  13
ATOM     13  C   UNL d   1      28.953 -10.350   5.978  0.00  0.00     0.127 C 
BRANCH  13  14
ATOM     14  C   UNL d   1      28.168 -11.397   6.776  0.00  0.00     0.060 C 
BRANCH  14  15
ATOM     15  C   UNL d   1      28.175 -12.727   6.054  0.00  0.00    -0.035 A 
ATOM     16  C   UNL d   1      27.406 -12.881   4.888  0.00  0.00     0.009 A 
ATOM     17  C   UNL d   1      27.443 -14.073   4.160  0.00  0.00     0.001 A 
ATOM     18  C   UNL d   1      28.256 -15.123   4.581  0.00  0.00     0.002 A 
ATOM     19  C   UNL d   1      29.022 -14.987   5.737  0.00  0.00     0.024 A 
ATOM     20  C   UNL d   1      28.979 -13.801   6.474  0.00  0.00     0.040 A 
ATOM     21 CL   UNL d   1      29.951 -13.713   7.900  0.00  0.00    -0.084 Cl
ENDBRANCH  14  15
ENDBRANCH  13  14
ENDBRANCH  11  13
ENDBRANCH   8   9
ENDBRANCH   7   8
ENDBRANCH   1   7
BRANCH   4  22
ATOM     22  N   UNL d   1      30.229 -15.200   1.597  0.00  0.00    -0.106 N 
ATOM     23  H   UNL d   1      30.764 -16.040   1.810  0.00  0.00     0.208 HD
BRANCH  22  24
ATOM     24  N   UNL d   1      29.301 -15.246   0.581  0.00  0.00    -0.172 NA
ATOM     25  C   UNL d   1      28.060 -15.477   0.879  0.00  0.00     0.152 C 
BRANCH  25  26
ATOM     26  C   UNL d   1      27.013 -15.487  -0.184  0.00  0.00     0.006 A 
ATOM     27  C   UNL d   1      26.891 -14.367  -1.021  0.00  0.00     0.015 A 
ATOM     28  C   UNL d   1      25.905 -14.323  -2.012  0.00  0.00     0.003 A 
ATOM     29  C   UNL d   1      25.035 -15.399  -2.177  0.00  0.00     0.026 A 
ATOM     30  C   UNL d   1      25.157 -16.526  -1.358  0.00  0.00     0.056 A 
ATOM     31 CL   UNL d   1      24.047 -17.826  -1.645  0.00  0.00    -0.083 Cl
ATOM     32  C   UNL d   1      26.146 -16.579  -0.356  0.00  0.00     0.067 A 
ATOM     33 CL   UNL d   1      26.259 -17.961   0.688  0.00  0.00    -0.082 Cl
ENDBRANCH  25  26
ENDBRANCH  22  24
ENDBRANCH   4  22
TORSDOF 9
ENDMDL
