MODEL 1
REMARK VINA RESULT:    -8.248      0.000      0.000
REMARK INTER + INTRA:         -11.464
REMARK INTER:                 -10.038
REMARK INTRA:                  -1.426
REMARK CONF_INDEPENDENT:        1.790
REMARK UNBOUND:                -1.426
REMARK  6 active torsions:
REMARK  status: ('A' for Active; 'I' for Inactive)
REMARK    1  A    between atoms: C_3  and  C_20 
REMARK    2  A    between atoms: C_4  and  C_5 
REMARK    3  A    between atoms: C_8  and  C_9 
REMARK    4  A    between atoms: C_11  and  N_12 
REMARK       I    between atoms: C_20  and  N_22 
REMARK    5  A    between atoms: N_22  and  C_23 
REMARK    6  A    between atoms: C_25  and  C_26 
ROOT
ATOM      1  N   UNL d   1      29.254 -16.711  -2.872  0.00  0.00    -0.096 N 
ATOM      2  C   UNL d   1      28.919 -16.144  -3.947  0.00  0.00     0.025 C 
ATOM      3  C   UNL d   1      28.515 -15.460  -5.243  0.00  0.00     0.101 C 
ATOM      4  C   UNL d   1      27.290 -14.877  -5.296  0.00  0.00     0.064 C 
ENDROOT
BRANCH   3   5
ATOM      5  C   UNL d   1      29.488 -15.487  -6.394  0.00  0.00     0.265 C 
ATOM      6  O   UNL d   1      29.255 -14.761  -7.362  0.00  0.00    -0.267 OA
ATOM      7  N   UNL d   1      30.549 -16.397  -6.366  0.00  0.00    -0.321 N 
ATOM      8  H   UNL d   1      30.517 -17.188  -5.737  0.00  0.00     0.169 HD
BRANCH   7   9
ATOM      9  C   UNL d   1      31.574 -16.446  -7.369  0.00  0.00     0.057 A 
ATOM     10  C   UNL d   1      32.172 -15.234  -7.782  0.00  0.00     0.047 A 
ATOM     11  C   UNL d   1      33.203 -15.211  -8.756  0.00  0.00     0.050 A 
ATOM     12  C   UNL d   1      33.610 -16.416  -9.339  0.00  0.00     0.018 A 
ATOM     13  C   UNL d   1      32.999 -17.613  -8.972  0.00  0.00     0.027 A 
ATOM     14  C   UNL d   1      31.982 -17.634  -8.009  0.00  0.00     0.060 A 
ATOM     15 CL   UNL d   1      31.151 -19.145  -7.843  0.00  0.00    -0.082 Cl
BRANCH  11  16
ATOM     16  C   UNL d   1      33.873 -13.918  -9.172  0.00  0.00     0.417 C 
ATOM     17  F   UNL d   1      33.003 -13.042  -9.743  0.00  0.00    -0.166 F 
ATOM     18  F   UNL d   1      34.437 -13.260  -8.123  0.00  0.00    -0.166 F 
ATOM     19  F   UNL d   1      34.874 -14.092 -10.083  0.00  0.00    -0.166 F 
ENDBRANCH  11  16
ENDBRANCH   7   9
ENDBRANCH   3   5
BRANCH   4  20
ATOM     20  C   UNL d   1      26.421 -14.839  -4.151  0.00  0.00     0.077 A 
ATOM     21  C   UNL d   1      25.827 -13.725  -3.563  0.00  0.00     0.040 A 
ATOM     22  C   UNL d   1      25.174 -14.139  -2.392  0.00  0.00     0.041 A 
ATOM     23  C   UNL d   1      25.290 -15.508  -2.343  0.00  0.00     0.088 A 
ATOM     24  O   UNL d   1      26.033 -15.950  -3.406  0.00  0.00    -0.310 OA
BRANCH  23  25
ATOM     25  C   UNL d   1      24.735 -16.468  -1.390  0.00  0.00     0.022 A 
ATOM     26  C   UNL d   1      23.395 -16.890  -1.488  0.00  0.00     0.052 A 
ATOM     27  C   UNL d   1      22.927 -17.944  -0.676  0.00  0.00     0.103 A 
ATOM     28  C   UNL d   1      23.780 -18.592   0.226  0.00  0.00     0.038 A 
ATOM     29  C   UNL d   1      25.104 -18.172   0.332  0.00  0.00     0.027 A 
ATOM     30  C   UNL d   1      25.577 -17.118  -0.459  0.00  0.00     0.047 A 
ATOM     31 CL   UNL d   1      27.237 -16.674  -0.236  0.00  0.00    -0.083 Cl
BRANCH  27  32
ATOM     32  N   UNL d   1      21.529 -18.395  -0.780  0.00  0.00    -0.116 N 
ATOM     33  O   UNL d   1      20.656 -17.536  -0.937  0.00  0.00    -0.532 OA
ATOM     34  O   UNL d   1      21.312 -19.615  -0.697  0.00  0.00    -0.532 OA
ENDBRANCH  27  32
ENDBRANCH  23  25
ENDBRANCH   4  20
TORSDOF 6
ENDMDL
MODEL 2
REMARK VINA RESULT:    -7.771      5.338      6.349
REMARK INTER + INTRA:         -10.723
REMARK INTER:                  -9.561
REMARK INTRA:                  -1.162
REMARK CONF_INDEPENDENT:        1.790
REMARK UNBOUND:                -1.162
REMARK  6 active torsions:
REMARK  status: ('A' for Active; 'I' for Inactive)
REMARK    1  A    between atoms: C_3  and  C_20 
REMARK    2  A    between atoms: C_4  and  C_5 
REMARK    3  A    between atoms: C_8  and  C_9 
REMARK    4  A    between atoms: C_11  and  N_12 
REMARK       I    between atoms: C_20  and  N_22 
REMARK    5  A    between atoms: N_22  and  C_23 
REMARK    6  A    between atoms: C_25  and  C_26 
ROOT
ATOM      1  N   UNL d   1      24.948 -14.307  -3.115  0.00  0.00    -0.096 N 
ATOM      2  C   UNL d   1      26.184 -14.554  -3.133  0.00  0.00     0.025 C 
ATOM      3  C   UNL d   1      27.675 -14.852  -3.154  0.00  0.00     0.101 C 
ATOM      4  C   UNL d   1      28.374 -14.663  -2.006  0.00  0.00     0.064 C 
ENDROOT
BRANCH   3   5
ATOM      5  C   UNL d   1      28.287 -15.320  -4.450  0.00  0.00     0.265 C 
ATOM      6  O   UNL d   1      27.615 -15.204  -5.478  0.00  0.00    -0.267 OA
ATOM      7  N   UNL d   1      29.533 -15.952  -4.425  0.00  0.00    -0.321 N 
ATOM      8  H   UNL d   1      29.891 -16.324  -3.556  0.00  0.00     0.169 HD
BRANCH   7   9
ATOM      9  C   UNL d   1      30.236 -16.358  -5.608  0.00  0.00     0.057 A 
ATOM     10  C   UNL d   1      30.375 -17.741  -5.868  0.00  0.00     0.047 A 
ATOM     11  C   UNL d   1      31.043 -18.213  -7.026  0.00  0.00     0.050 A 
ATOM     12  C   UNL d   1      31.602 -17.284  -7.912  0.00  0.00     0.018 A 
ATOM     13  C   UNL d   1      31.509 -15.921  -7.645  0.00  0.00     0.027 A 
ATOM     14  C   UNL d   1      30.848 -15.455  -6.501  0.00  0.00     0.060 A 
ATOM     15 CL   UNL d   1      31.032 -13.764  -6.175  0.00  0.00    -0.082 Cl
BRANCH  11  16
ATOM     16  C   UNL d   1      31.159 -19.693  -7.329  0.00  0.00     0.417 C 
ATOM     17  F   UNL d   1      32.206 -20.274  -6.683  0.00  0.00    -0.166 F 
ATOM     18  F   UNL d   1      30.052 -20.391  -6.956  0.00  0.00    -0.166 F 
ATOM     19  F   UNL d   1      31.343 -19.966  -8.652  0.00  0.00    -0.166 F 
ENDBRANCH  11  16
ENDBRANCH   7   9
ENDBRANCH   3   5
BRANCH   4  20
ATOM     20  C   UNL d   1      27.730 -14.261  -0.786  0.00  0.00     0.077 A 
ATOM     21  C   UNL d   1      26.671 -14.886  -0.131  0.00  0.00     0.040 A 
ATOM     22  C   UNL d   1      26.277 -14.075   0.945  0.00  0.00     0.041 A 
ATOM     23  C   UNL d   1      27.167 -13.029   0.991  0.00  0.00     0.088 A 
ATOM     24  O   UNL d   1      28.061 -13.131  -0.043  0.00  0.00    -0.310 OA
BRANCH  23  25
ATOM     25  C   UNL d   1      27.282 -11.930   1.950  0.00  0.00     0.022 A 
ATOM     26  C   UNL d   1      26.686 -10.681   1.692  0.00  0.00     0.052 A 
ATOM     27  C   UNL d   1      26.653  -9.694   2.699  0.00  0.00     0.103 A 
ATOM     28  C   UNL d   1      27.197  -9.939   3.966  0.00  0.00     0.038 A 
ATOM     29  C   UNL d   1      27.795 -11.170   4.223  0.00  0.00     0.027 A 
ATOM     30  C   UNL d   1      27.846 -12.153   3.227  0.00  0.00     0.047 A 
ATOM     31 CL   UNL d   1      28.623 -13.642   3.656  0.00  0.00    -0.083 Cl
BRANCH  27  32
ATOM     32  N   UNL d   1      26.023  -8.389   2.436  0.00  0.00    -0.116 N 
ATOM     33  O   UNL d   1      26.389  -7.424   3.115  0.00  0.00    -0.532 OA
ATOM     34  O   UNL d   1      25.155  -8.339   1.550  0.00  0.00    -0.532 OA
ENDBRANCH  27  32
ENDBRANCH  23  25
ENDBRANCH   4  20
TORSDOF 6
ENDMDL
MODEL 3
REMARK VINA RESULT:    -7.607      6.440      8.880
REMARK INTER + INTRA:         -10.716
REMARK INTER:                  -9.396
REMARK INTRA:                  -1.320
REMARK CONF_INDEPENDENT:        1.790
REMARK UNBOUND:                -1.320
REMARK  6 active torsions:
REMARK  status: ('A' for Active; 'I' for Inactive)
REMARK    1  A    between atoms: C_3  and  C_20 
REMARK    2  A    between atoms: C_4  and  C_5 
REMARK    3  A    between atoms: C_8  and  C_9 
REMARK    4  A    between atoms: C_11  and  N_12 
REMARK       I    between atoms: C_20  and  N_22 
REMARK    5  A    between atoms: N_22  and  C_23 
REMARK    6  A    between atoms: C_25  and  C_26 
ROOT
ATOM      1  N   UNL d   1      27.614 -11.010  -2.153  0.00  0.00    -0.096 N 
ATOM      2  C   UNL d   1      26.855 -10.971  -3.159  0.00  0.00     0.025 C 
ATOM      3  C   UNL d   1      25.941 -10.924  -4.372  0.00  0.00     0.101 C 
ATOM      4  C   UNL d   1      25.530 -12.104  -4.902  0.00  0.00     0.064 C 
ENDROOT
BRANCH   3   5
ATOM      5  C   UNL d   1      25.562  -9.572  -4.924  0.00  0.00     0.265 C 
ATOM      6  O   UNL d   1      26.150  -9.178  -5.934  0.00  0.00    -0.267 OA
ATOM      7  N   UNL d   1      24.647  -8.783  -4.222  0.00  0.00    -0.321 N 
ATOM      8  H   UNL d   1      24.448  -8.985  -3.252  0.00  0.00     0.169 HD
BRANCH   7   9
ATOM      9  C   UNL d   1      24.160  -7.522  -4.703  0.00  0.00     0.057 A 
ATOM     10  C   UNL d   1      23.285  -7.516  -5.814  0.00  0.00     0.047 A 
ATOM     11  C   UNL d   1      22.754  -6.306  -6.330  0.00  0.00     0.050 A 
ATOM     12  C   UNL d   1      23.130  -5.095  -5.741  0.00  0.00     0.018 A 
ATOM     13  C   UNL d   1      24.023  -5.084  -4.672  0.00  0.00     0.027 A 
ATOM     14  C   UNL d   1      24.548  -6.279  -4.163  0.00  0.00     0.060 A 
ATOM     15 CL   UNL d   1      25.829  -6.094  -3.011  0.00  0.00    -0.082 Cl
BRANCH  11  16
ATOM     16  C   UNL d   1      21.786  -6.299  -7.496  0.00  0.00     0.417 C 
ATOM     17  F   UNL d   1      21.870  -5.158  -8.233  0.00  0.00    -0.166 F 
ATOM     18  F   UNL d   1      22.004  -7.324  -8.363  0.00  0.00    -0.166 F 
ATOM     19  F   UNL d   1      20.479  -6.401  -7.120  0.00  0.00    -0.166 F 
ENDBRANCH  11  16
ENDBRANCH   7   9
ENDBRANCH   3   5
BRANCH   4  20
ATOM     20  C   UNL d   1      25.883 -13.363  -4.305  0.00  0.00     0.077 A 
ATOM     21  C   UNL d   1      26.884 -14.247  -4.699  0.00  0.00     0.040 A 
ATOM     22  C   UNL d   1      26.781 -15.408  -3.918  0.00  0.00     0.041 A 
ATOM     23  C   UNL d   1      25.793 -15.170  -2.993  0.00  0.00     0.088 A 
ATOM     24  O   UNL d   1      25.245 -13.932  -3.205  0.00  0.00    -0.310 OA
BRANCH  23  25
ATOM     25  C   UNL d   1      25.320 -15.998  -1.884  0.00  0.00     0.022 A 
ATOM     26  C   UNL d   1      24.030 -16.561  -1.904  0.00  0.00     0.052 A 
ATOM     27  C   UNL d   1      23.654 -17.499  -0.919  0.00  0.00     0.103 A 
ATOM     28  C   UNL d   1      24.552 -17.891   0.081  0.00  0.00     0.038 A 
ATOM     29  C   UNL d   1      25.827 -17.331   0.109  0.00  0.00     0.027 A 
ATOM     30  C   UNL d   1      26.207 -16.390  -0.856  0.00  0.00     0.047 A 
ATOM     31 CL   UNL d   1      27.813 -15.752  -0.717  0.00  0.00    -0.083 Cl
BRANCH  27  32
ATOM     32  N   UNL d   1      22.308 -18.096  -0.940  0.00  0.00    -0.116 N 
ATOM     33  O   UNL d   1      22.224 -19.326  -1.007  0.00  0.00    -0.532 OA
ATOM     34  O   UNL d   1      21.337 -17.324  -0.895  0.00  0.00    -0.532 OA
ENDBRANCH  27  32
ENDBRANCH  23  25
ENDBRANCH   4  20
TORSDOF 6
ENDMDL
MODEL 4
REMARK VINA RESULT:    -7.573     10.845     14.274
REMARK INTER + INTRA:         -10.099
REMARK INTER:                  -9.363
REMARK INTRA:                  -0.736
REMARK CONF_INDEPENDENT:        1.790
REMARK UNBOUND:                -0.736
REMARK  6 active torsions:
REMARK  status: ('A' for Active; 'I' for Inactive)
REMARK    1  A    between atoms: C_3  and  C_20 
REMARK    2  A    between atoms: C_4  and  C_5 
REMARK    3  A    between atoms: C_8  and  C_9 
REMARK    4  A    between atoms: C_11  and  N_12 
REMARK       I    between atoms: C_20  and  N_22 
REMARK    5  A    between atoms: N_22  and  C_23 
REMARK    6  A    between atoms: C_25  and  C_26 
ROOT
ATOM      1  N   UNL d   1      28.050 -10.554   5.861  0.00  0.00    -0.096 N 
ATOM      2  C   UNL d   1      28.377 -11.716   6.223  0.00  0.00     0.025 C 
ATOM      3  C   UNL d   1      28.772 -13.118   6.659  0.00  0.00     0.101 C 
ATOM      4  C   UNL d   1      28.598 -14.130   5.771  0.00  0.00     0.064 C 
ENDROOT
BRANCH   3   5
ATOM      5  C   UNL d   1      29.314 -13.301   8.055  0.00  0.00     0.265 C 
ATOM      6  O   UNL d   1      29.124 -12.394   8.868  0.00  0.00    -0.267 OA
ATOM      7  N   UNL d   1      30.087 -14.428   8.341  0.00  0.00    -0.321 N 
ATOM      8  H   UNL d   1      30.496 -14.964   7.587  0.00  0.00     0.169 HD
BRANCH   7   9
ATOM      9  C   UNL d   1      30.579 -14.736   9.654  0.00  0.00     0.057 A 
ATOM     10  C   UNL d   1      31.916 -15.178   9.787  0.00  0.00     0.047 A 
ATOM     11  C   UNL d   1      32.471 -15.483  11.056  0.00  0.00     0.050 A 
ATOM     12  C   UNL d   1      31.663 -15.372  12.193  0.00  0.00     0.018 A 
ATOM     13  C   UNL d   1      30.333 -14.979  12.071  0.00  0.00     0.027 A 
ATOM     14  C   UNL d   1      29.785 -14.676  10.818  0.00  0.00     0.060 A 
ATOM     15 CL   UNL d   1      28.068 -14.451  10.794  0.00  0.00    -0.082 Cl
BRANCH  11  16
ATOM     16  C   UNL d   1      33.914 -15.919  11.207  0.00  0.00     0.417 C 
ATOM     17  F   UNL d   1      34.051 -16.982  12.046  0.00  0.00    -0.166 F 
ATOM     18  F   UNL d   1      34.472 -16.297  10.025  0.00  0.00    -0.166 F 
ATOM     19  F   UNL d   1      34.728 -14.945  11.707  0.00  0.00    -0.166 F 
ENDBRANCH  11  16
ENDBRANCH   7   9
ENDBRANCH   3   5
BRANCH   4  20
ATOM     20  C   UNL d   1      28.122 -13.890   4.436  0.00  0.00     0.077 A 
ATOM     21  C   UNL d   1      27.798 -14.830   3.461  0.00  0.00     0.040 A 
ATOM     22  C   UNL d   1      27.511 -14.148   2.269  0.00  0.00     0.041 A 
ATOM     23  C   UNL d   1      27.559 -12.807   2.565  0.00  0.00     0.088 A 
ATOM     24  O   UNL d   1      27.917 -12.632   3.876  0.00  0.00    -0.310 OA
BRANCH  23  25
ATOM     25  C   UNL d   1      27.267 -11.645   1.725  0.00  0.00     0.022 A 
ATOM     26  C   UNL d   1      26.679 -10.489   2.273  0.00  0.00     0.052 A 
ATOM     27  C   UNL d   1      26.568  -9.317   1.495  0.00  0.00     0.103 A 
ATOM     28  C   UNL d   1      27.047  -9.280   0.179  0.00  0.00     0.038 A 
ATOM     29  C   UNL d   1      27.623 -10.423  -0.369  0.00  0.00     0.027 A 
ATOM     30  C   UNL d   1      27.726 -11.596   0.390  0.00  0.00     0.047 A 
ATOM     31 CL   UNL d   1      28.449 -12.960  -0.398  0.00  0.00    -0.083 Cl
BRANCH  27  32
ATOM     32  N   UNL d   1      25.961  -8.103   2.065  0.00  0.00    -0.116 N 
ATOM     33  O   UNL d   1      25.155  -7.479   1.368  0.00  0.00    -0.532 OA
ATOM     34  O   UNL d   1      26.303  -7.777   3.213  0.00  0.00    -0.532 OA
ENDBRANCH  27  32
ENDBRANCH  23  25
ENDBRANCH   4  20
TORSDOF 6
ENDMDL
MODEL 5
REMARK VINA RESULT:    -7.567      1.940      2.392
REMARK INTER + INTRA:         -10.743
REMARK INTER:                  -9.356
REMARK INTRA:                  -1.387
REMARK CONF_INDEPENDENT:        1.790
REMARK UNBOUND:                -1.387
REMARK  6 active torsions:
REMARK  status: ('A' for Active; 'I' for Inactive)
REMARK    1  A    between atoms: C_3  and  C_20 
REMARK    2  A    between atoms: C_4  and  C_5 
REMARK    3  A    between atoms: C_8  and  C_9 
REMARK    4  A    between atoms: C_11  and  N_12 
REMARK       I    between atoms: C_20  and  N_22 
REMARK    5  A    between atoms: N_22  and  C_23 
REMARK    6  A    between atoms: C_25  and  C_26 
ROOT
ATOM      1  N   UNL d   1      29.147 -16.456  -2.950  0.00  0.00    -0.096 N 
ATOM      2  C   UNL d   1      28.845 -15.903  -4.042  0.00  0.00     0.025 C 
ATOM      3  C   UNL d   1      28.481 -15.238  -5.360  0.00  0.00     0.101 C 
ATOM      4  C   UNL d   1      27.236 -14.710  -5.479  0.00  0.00     0.064 C 
ENDROOT
BRANCH   3   5
ATOM      5  C   UNL d   1      29.515 -15.222  -6.457  0.00  0.00     0.265 C 
ATOM      6  O   UNL d   1      29.228 -14.646  -7.509  0.00  0.00    -0.267 OA
ATOM      7  N   UNL d   1      30.703 -15.936  -6.282  0.00  0.00    -0.321 N 
ATOM      8  H   UNL d   1      30.759 -16.653  -5.571  0.00  0.00     0.169 HD
BRANCH   7   9
ATOM      9  C   UNL d   1      31.782 -15.918  -7.227  0.00  0.00     0.057 A 
ATOM     10  C   UNL d   1      32.208 -17.144  -7.789  0.00  0.00     0.047 A 
ATOM     11  C   UNL d   1      33.257 -17.197  -8.741  0.00  0.00     0.050 A 
ATOM     12  C   UNL d   1      33.901 -16.010  -9.106  0.00  0.00     0.018 A 
ATOM     13  C   UNL d   1      33.520 -14.801  -8.529  0.00  0.00     0.027 A 
ATOM     14  C   UNL d   1      32.483 -14.750  -7.589  0.00  0.00     0.060 A 
ATOM     15 CL   UNL d   1      32.293 -13.231  -6.777  0.00  0.00    -0.082 Cl
BRANCH  11  16
ATOM     16  C   UNL d   1      33.689 -18.504  -9.374  0.00  0.00     0.417 C 
ATOM     17  F   UNL d   1      33.932 -19.473  -8.451  0.00  0.00    -0.166 F 
ATOM     18  F   UNL d   1      32.749 -19.013 -10.216  0.00  0.00    -0.166 F 
ATOM     19  F   UNL d   1      34.832 -18.401 -10.113  0.00  0.00    -0.166 F 
ENDBRANCH  11  16
ENDBRANCH   7   9
ENDBRANCH   3   5
BRANCH   4  20
ATOM     20  C   UNL d   1      26.306 -14.711  -4.383  0.00  0.00     0.077 A 
ATOM     21  C   UNL d   1      25.502 -13.663  -3.941  0.00  0.00     0.040 A 
ATOM     22  C   UNL d   1      24.858 -14.068  -2.762  0.00  0.00     0.041 A 
ATOM     23  C   UNL d   1      25.195 -15.386  -2.566  0.00  0.00     0.088 A 
ATOM     24  O   UNL d   1      26.063 -15.795  -3.544  0.00  0.00    -0.310 OA
BRANCH  23  25
ATOM     25  C   UNL d   1      24.750 -16.331  -1.541  0.00  0.00     0.022 A 
ATOM     26  C   UNL d   1      23.447 -16.863  -1.568  0.00  0.00     0.052 A 
ATOM     27  C   UNL d   1      23.091 -17.904  -0.684  0.00  0.00     0.103 A 
ATOM     28  C   UNL d   1      24.022 -18.427   0.222  0.00  0.00     0.038 A 
ATOM     29  C   UNL d   1      25.310 -17.898   0.257  0.00  0.00     0.027 A 
ATOM     30  C   UNL d   1      25.670 -16.857  -0.607  0.00  0.00     0.047 A 
ATOM     31 CL   UNL d   1      27.295 -16.269  -0.467  0.00  0.00    -0.083 Cl
BRANCH  27  32
ATOM     32  N   UNL d   1      21.733 -18.470  -0.714  0.00  0.00    -0.116 N 
ATOM     33  O   UNL d   1      20.788 -17.695  -0.895  0.00  0.00    -0.532 OA
ATOM     34  O   UNL d   1      21.618 -19.695  -0.548  0.00  0.00    -0.532 OA
ENDBRANCH  27  32
ENDBRANCH  23  25
ENDBRANCH   4  20
TORSDOF 6
ENDMDL
MODEL 6
REMARK VINA RESULT:    -7.546      1.966      2.445
REMARK INTER + INTRA:         -10.764
REMARK INTER:                  -9.336
REMARK INTRA:                  -1.429
REMARK CONF_INDEPENDENT:        1.790
REMARK UNBOUND:                -1.429
REMARK  6 active torsions:
REMARK  status: ('A' for Active; 'I' for Inactive)
REMARK    1  A    between atoms: C_3  and  C_20 
REMARK    2  A    between atoms: C_4  and  C_5 
REMARK    3  A    between atoms: C_8  and  C_9 
REMARK    4  A    between atoms: C_11  and  N_12 
REMARK       I    between atoms: C_20  and  N_22 
REMARK    5  A    between atoms: N_22  and  C_23 
REMARK    6  A    between atoms: C_25  and  C_26 
ROOT
ATOM      1  N   UNL d   1      29.404 -14.809  -2.669  0.00  0.00    -0.096 N 
ATOM      2  C   UNL d   1      28.959 -14.810  -3.849  0.00  0.00     0.025 C 
ATOM      3  C   UNL d   1      28.422 -14.812  -5.271  0.00  0.00     0.101 C 
ATOM      4  C   UNL d   1      27.077 -14.874  -5.440  0.00  0.00     0.064 C 
ENDROOT
BRANCH   3   5
ATOM      5  C   UNL d   1      29.415 -14.764  -6.405  0.00  0.00     0.265 C 
ATOM      6  O   UNL d   1      29.655 -15.814  -7.005  0.00  0.00    -0.267 OA
ATOM      7  N   UNL d   1      30.094 -13.570  -6.664  0.00  0.00    -0.321 N 
ATOM      8  H   UNL d   1      30.125 -12.845  -5.960  0.00  0.00     0.169 HD
BRANCH   7   9
ATOM      9  C   UNL d   1      30.995 -13.397  -7.767  0.00  0.00     0.057 A 
ATOM     10  C   UNL d   1      32.183 -14.164  -7.795  0.00  0.00     0.047 A 
ATOM     11  C   UNL d   1      33.109 -14.055  -8.864  0.00  0.00     0.050 A 
ATOM     12  C   UNL d   1      32.850 -13.146  -9.895  0.00  0.00     0.018 A 
ATOM     13  C   UNL d   1      31.705 -12.354  -9.858  0.00  0.00     0.027 A 
ATOM     14  C   UNL d   1      30.790 -12.462  -8.802  0.00  0.00     0.060 A 
ATOM     15 CL   UNL d   1      29.557 -11.247  -8.763  0.00  0.00    -0.082 Cl
BRANCH  11  16
ATOM     16  C   UNL d   1      34.363 -14.904  -8.917  0.00  0.00     0.417 C 
ATOM     17  F   UNL d   1      35.265 -14.558  -7.959  0.00  0.00    -0.166 F 
ATOM     18  F   UNL d   1      34.106 -16.227  -8.733  0.00  0.00    -0.166 F 
ATOM     19  F   UNL d   1      35.030 -14.816 -10.103  0.00  0.00    -0.166 F 
ENDBRANCH  11  16
ENDBRANCH   7   9
ENDBRANCH   3   5
BRANCH   4  20
ATOM     20  C   UNL d   1      26.174 -14.870  -4.321  0.00  0.00     0.077 A 
ATOM     21  C   UNL d   1      25.389 -13.817  -3.859  0.00  0.00     0.040 A 
ATOM     22  C   UNL d   1      24.770 -14.218  -2.665  0.00  0.00     0.041 A 
ATOM     23  C   UNL d   1      25.102 -15.539  -2.478  0.00  0.00     0.088 A 
ATOM     24  O   UNL d   1      25.944 -15.953  -3.478  0.00  0.00    -0.310 OA
BRANCH  23  25
ATOM     25  C   UNL d   1      24.675 -16.481  -1.444  0.00  0.00     0.022 A 
ATOM     26  C   UNL d   1      23.335 -16.904  -1.362  0.00  0.00     0.052 A 
ATOM     27  C   UNL d   1      22.976 -17.944  -0.479  0.00  0.00     0.103 A 
ATOM     28  C   UNL d   1      23.939 -18.575   0.318  0.00  0.00     0.038 A 
ATOM     29  C   UNL d   1      25.265 -18.155   0.246  0.00  0.00     0.027 A 
ATOM     30  C   UNL d   1      25.630 -17.115  -0.618  0.00  0.00     0.047 A 
ATOM     31 CL   UNL d   1      27.305 -16.668  -0.617  0.00  0.00    -0.083 Cl
BRANCH  27  32
ATOM     32  N   UNL d   1      21.577 -18.395  -0.395  0.00  0.00    -0.116 N 
ATOM     33  O   UNL d   1      21.351 -19.475   0.161  0.00  0.00    -0.532 OA
ATOM     34  O   UNL d   1      20.708 -17.664  -0.896  0.00  0.00    -0.532 OA
ENDBRANCH  27  32
ENDBRANCH  23  25
ENDBRANCH   4  20
TORSDOF 6
ENDMDL
MODEL 7
REMARK VINA RESULT:    -7.452      4.965      5.767
REMARK INTER + INTRA:         -10.369
REMARK INTER:                  -9.242
REMARK INTRA:                  -1.127
REMARK CONF_INDEPENDENT:        1.790
REMARK UNBOUND:                -1.127
REMARK  6 active torsions:
REMARK  status: ('A' for Active; 'I' for Inactive)
REMARK    1  A    between atoms: C_3  and  C_20 
REMARK    2  A    between atoms: C_4  and  C_5 
REMARK    3  A    between atoms: C_8  and  C_9 
REMARK    4  A    between atoms: C_11  and  N_12 
REMARK       I    between atoms: C_20  and  N_22 
REMARK    5  A    between atoms: N_22  and  C_23 
REMARK    6  A    between atoms: C_25  and  C_26 
ROOT
ATOM      1  N   UNL d   1      26.013 -15.537  -5.117  0.00  0.00    -0.096 N 
ATOM      2  C   UNL d   1      26.047 -14.299  -4.877  0.00  0.00     0.025 C 
ATOM      3  C   UNL d   1      26.089 -12.808  -4.588  0.00  0.00     0.101 C 
ATOM      4  C   UNL d   1      26.033 -12.412  -3.291  0.00  0.00     0.064 C 
ENDROOT
BRANCH   3   5
ATOM      5  C   UNL d   1      26.171 -11.860  -5.759  0.00  0.00     0.265 C 
ATOM      6  O   UNL d   1      25.113 -11.452  -6.243  0.00  0.00    -0.267 OA
ATOM      7  N   UNL d   1      27.421 -11.564  -6.308  0.00  0.00    -0.321 N 
ATOM      8  H   UNL d   1      28.212 -12.161  -6.110  0.00  0.00     0.169 HD
BRANCH   7   9
ATOM      9  C   UNL d   1      27.614 -10.614  -7.366  0.00  0.00     0.057 A 
ATOM     10  C   UNL d   1      27.154  -9.290  -7.176  0.00  0.00     0.047 A 
ATOM     11  C   UNL d   1      27.326  -8.297  -8.173  0.00  0.00     0.050 A 
ATOM     12  C   UNL d   1      27.940  -8.648  -9.380  0.00  0.00     0.018 A 
ATOM     13  C   UNL d   1      28.360  -9.958  -9.596  0.00  0.00     0.027 A 
ATOM     14  C   UNL d   1      28.190 -10.939  -8.611  0.00  0.00     0.060 A 
ATOM     15 CL   UNL d   1      28.526 -12.562  -9.114  0.00  0.00    -0.082 Cl
BRANCH  11  16
ATOM     16  C   UNL d   1      26.870  -6.868  -7.958  0.00  0.00     0.417 C 
ATOM     17  F   UNL d   1      27.891  -6.046  -7.595  0.00  0.00    -0.166 F 
ATOM     18  F   UNL d   1      26.323  -6.320  -9.076  0.00  0.00    -0.166 F 
ATOM     19  F   UNL d   1      25.925  -6.739  -6.982  0.00  0.00    -0.166 F 
ENDBRANCH  11  16
ENDBRANCH   7   9
ENDBRANCH   3   5
BRANCH   4  20
ATOM     20  C   UNL d   1      26.004 -13.362  -2.212  0.00  0.00     0.077 A 
ATOM     21  C   UNL d   1      26.753 -13.347  -1.038  0.00  0.00     0.040 A 
ATOM     22  C   UNL d   1      26.501 -14.537  -0.339  0.00  0.00     0.041 A 
ATOM     23  C   UNL d   1      25.526 -15.204  -1.041  0.00  0.00     0.088 A 
ATOM     24  O   UNL d   1      25.206 -14.502  -2.174  0.00  0.00    -0.310 OA
BRANCH  23  25
ATOM     25  C   UNL d   1      24.830 -16.453  -0.734  0.00  0.00     0.022 A 
ATOM     26  C   UNL d   1      23.469 -16.617  -1.054  0.00  0.00     0.052 A 
ATOM     27  C   UNL d   1      22.859 -17.883  -0.916  0.00  0.00     0.103 A 
ATOM     28  C   UNL d   1      23.593 -18.990  -0.471  0.00  0.00     0.038 A 
ATOM     29  C   UNL d   1      24.938 -18.830  -0.146  0.00  0.00     0.027 A 
ATOM     30  C   UNL d   1      25.549 -17.576  -0.267  0.00  0.00     0.047 A 
ATOM     31 CL   UNL d   1      27.223 -17.492   0.177  0.00  0.00    -0.083 Cl
BRANCH  27  32
ATOM     32  N   UNL d   1      21.439 -18.062  -1.258  0.00  0.00    -0.116 N 
ATOM     33  O   UNL d   1      21.047 -19.204  -1.518  0.00  0.00    -0.532 OA
ATOM     34  O   UNL d   1      20.720 -17.050  -1.270  0.00  0.00    -0.532 OA
ENDBRANCH  27  32
ENDBRANCH  23  25
ENDBRANCH   4  20
TORSDOF 6
ENDMDL
MODEL 8
REMARK VINA RESULT:    -7.391      4.565      5.472
REMARK INTER + INTRA:         -10.252
REMARK INTER:                  -9.181
REMARK INTRA:                  -1.071
REMARK CONF_INDEPENDENT:        1.790
REMARK UNBOUND:                -1.071
REMARK  6 active torsions:
REMARK  status: ('A' for Active; 'I' for Inactive)
REMARK    1  A    between atoms: C_3  and  C_20 
REMARK    2  A    between atoms: C_4  and  C_5 
REMARK    3  A    between atoms: C_8  and  C_9 
REMARK    4  A    between atoms: C_11  and  N_12 
REMARK       I    between atoms: C_20  and  N_22 
REMARK    5  A    between atoms: N_22  and  C_23 
REMARK    6  A    between atoms: C_25  and  C_26 
ROOT
ATOM      1  N   UNL d   1      25.185 -14.756  -3.435  0.00  0.00    -0.096 N 
ATOM      2  C   UNL d   1      26.443 -14.849  -3.436  0.00  0.00     0.025 C 
ATOM      3  C   UNL d   1      27.959 -14.961  -3.437  0.00  0.00     0.101 C 
ATOM      4  C   UNL d   1      28.615 -14.683  -2.282  0.00  0.00     0.064 C 
ENDROOT
BRANCH   3   5
ATOM      5  C   UNL d   1      28.641 -15.355  -4.723  0.00  0.00     0.265 C 
ATOM      6  O   UNL d   1      27.944 -15.464  -5.734  0.00  0.00    -0.267 OA
ATOM      7  N   UNL d   1      30.001 -15.676  -4.700  0.00  0.00    -0.321 N 
ATOM      8  H   UNL d   1      30.451 -15.900  -3.823  0.00  0.00     0.169 HD
BRANCH   7   9
ATOM      9  C   UNL d   1      30.759 -15.982  -5.879  0.00  0.00     0.057 A 
ATOM     10  C   UNL d   1      31.167 -14.917  -6.715  0.00  0.00     0.047 A 
ATOM     11  C   UNL d   1      31.933 -15.146  -7.886  0.00  0.00     0.050 A 
ATOM     12  C   UNL d   1      32.264 -16.461  -8.232  0.00  0.00     0.018 A 
ATOM     13  C   UNL d   1      31.833 -17.522  -7.441  0.00  0.00     0.027 A 
ATOM     14  C   UNL d   1      31.077 -17.295  -6.284  0.00  0.00     0.060 A 
ATOM     15 CL   UNL d   1      30.404 -18.712  -5.548  0.00  0.00    -0.082 Cl
BRANCH  11  16
ATOM     16  C   UNL d   1      32.404 -14.004  -8.762  0.00  0.00     0.417 C 
ATOM     17  F   UNL d   1      33.309 -13.205  -8.133  0.00  0.00    -0.166 F 
ATOM     18  F   UNL d   1      33.011 -14.434  -9.901  0.00  0.00    -0.166 F 
ATOM     19  F   UNL d   1      31.398 -13.176  -9.167  0.00  0.00    -0.166 F 
ENDBRANCH  11  16
ENDBRANCH   7   9
ENDBRANCH   3   5
BRANCH   4  20
ATOM     20  C   UNL d   1      27.909 -14.359  -1.071  0.00  0.00     0.077 A 
ATOM     21  C   UNL d   1      26.815 -15.017  -0.516  0.00  0.00     0.040 A 
ATOM     22  C   UNL d   1      26.370 -14.278   0.590  0.00  0.00     0.041 A 
ATOM     23  C   UNL d   1      27.262 -13.245   0.754  0.00  0.00     0.088 A 
ATOM     24  O   UNL d   1      28.207 -13.284  -0.237  0.00  0.00    -0.310 OA
BRANCH  23  25
ATOM     25  C   UNL d   1      27.332 -12.215   1.790  0.00  0.00     0.022 A 
ATOM     26  C   UNL d   1      26.750 -10.949   1.590  0.00  0.00     0.052 A 
ATOM     27  C   UNL d   1      26.670 -10.032   2.660  0.00  0.00     0.103 A 
ATOM     28  C   UNL d   1      27.154 -10.366   3.931  0.00  0.00     0.038 A 
ATOM     29  C   UNL d   1      27.737 -11.614   4.132  0.00  0.00     0.027 A 
ATOM     30  C   UNL d   1      27.834 -12.527   3.074  0.00  0.00     0.047 A 
ATOM     31 CL   UNL d   1      28.589 -14.045   3.436  0.00  0.00    -0.083 Cl
BRANCH  27  32
ATOM     32  N   UNL d   1      26.055  -8.710   2.457  0.00  0.00    -0.116 N 
ATOM     33  O   UNL d   1      26.464  -7.771   3.148  0.00  0.00    -0.532 OA
ATOM     34  O   UNL d   1      25.154  -8.620   1.607  0.00  0.00    -0.532 OA
ENDBRANCH  27  32
ENDBRANCH  23  25
ENDBRANCH   4  20
TORSDOF 6
ENDMDL
MODEL 9
REMARK VINA RESULT:    -7.151      9.412     12.813
REMARK INTER + INTRA:         -10.190
REMARK INTER:                  -8.941
REMARK INTRA:                  -1.249
REMARK CONF_INDEPENDENT:        1.790
REMARK UNBOUND:                -1.249
REMARK  6 active torsions:
REMARK  status: ('A' for Active; 'I' for Inactive)
REMARK    1  A    between atoms: C_3  and  C_20 
REMARK    2  A    between atoms: C_4  and  C_5 
REMARK    3  A    between atoms: C_8  and  C_9 
REMARK    4  A    between atoms: C_11  and  N_12 
REMARK       I    between atoms: C_20  and  N_22 
REMARK    5  A    between atoms: N_22  and  C_23 
REMARK    6  A    between atoms: C_25  and  C_26 
ROOT
ATOM      1  N   UNL d   1      27.353 -11.182   3.108  0.00  0.00    -0.096 N 
ATOM      2  C   UNL d   1      27.790 -12.147   3.792  0.00  0.00     0.025 C 
ATOM      3  C   UNL d   1      28.317 -13.310   4.617  0.00  0.00     0.101 C 
ATOM      4  C   UNL d   1      28.654 -14.450   3.961  0.00  0.00     0.064 C 
ENDROOT
BRANCH   3   5
ATOM      5  C   UNL d   1      28.414 -13.134   6.112  0.00  0.00     0.265 C 
ATOM      6  O   UNL d   1      27.412 -12.738   6.710  0.00  0.00    -0.267 OA
ATOM      7  N   UNL d   1      29.648 -13.325   6.740  0.00  0.00    -0.321 N 
ATOM      8  H   UNL d   1      30.498 -13.317   6.193  0.00  0.00     0.169 HD
BRANCH   7   9
ATOM      9  C   UNL d   1      29.828 -13.263   8.162  0.00  0.00     0.057 A 
ATOM     10  C   UNL d   1      30.170 -14.449   8.851  0.00  0.00     0.047 A 
ATOM     11  C   UNL d   1      30.379 -14.456  10.254  0.00  0.00     0.050 A 
ATOM     12  C   UNL d   1      30.213 -13.265  10.969  0.00  0.00     0.018 A 
ATOM     13  C   UNL d   1      29.834 -12.099  10.309  0.00  0.00     0.027 A 
ATOM     14  C   UNL d   1      29.628 -12.093   8.923  0.00  0.00     0.060 A 
ATOM     15 CL   UNL d   1      28.921 -10.646   8.285  0.00  0.00    -0.082 Cl
BRANCH  11  16
ATOM     16  C   UNL d   1      30.785 -15.717  10.989  0.00  0.00     0.417 C 
ATOM     17  F   UNL d   1      30.231 -15.795  12.230  0.00  0.00    -0.166 F 
ATOM     18  F   UNL d   1      30.405 -16.848  10.336  0.00  0.00    -0.166 F 
ATOM     19  F   UNL d   1      32.131 -15.830  11.177  0.00  0.00    -0.166 F 
ENDBRANCH  11  16
ENDBRANCH   7   9
ENDBRANCH   3   5
BRANCH   4  20
ATOM     20  C   UNL d   1      28.586 -14.545   2.528  0.00  0.00     0.077 A 
ATOM     21  C   UNL d   1      29.563 -14.197   1.600  0.00  0.00     0.040 A 
ATOM     22  C   UNL d   1      29.017 -14.328   0.314  0.00  0.00     0.041 A 
ATOM     23  C   UNL d   1      27.758 -14.855   0.476  0.00  0.00     0.088 A 
ATOM     24  O   UNL d   1      27.484 -15.003   1.810  0.00  0.00    -0.310 OA
BRANCH  23  25
ATOM     25  C   UNL d   1      26.773 -15.269  -0.523  0.00  0.00     0.022 A 
ATOM     26  C   UNL d   1      26.367 -14.388  -1.543  0.00  0.00     0.052 A 
ATOM     27  C   UNL d   1      25.556 -14.857  -2.599  0.00  0.00     0.103 A 
ATOM     28  C   UNL d   1      25.154 -16.197  -2.656  0.00  0.00     0.038 A 
ATOM     29  C   UNL d   1      25.547 -17.070  -1.645  0.00  0.00     0.027 A 
ATOM     30  C   UNL d   1      26.341 -16.613  -0.586  0.00  0.00     0.047 A 
ATOM     31 CL   UNL d   1      26.761 -17.784   0.622  0.00  0.00    -0.083 Cl
BRANCH  27  32
ATOM     32  N   UNL d   1      25.135 -13.942  -3.673  0.00  0.00    -0.116 N 
ATOM     33  O   UNL d   1      25.233 -12.728  -3.468  0.00  0.00    -0.532 OA
ATOM     34  O   UNL d   1      24.700 -14.448  -4.720  0.00  0.00    -0.532 OA
ENDBRANCH  27  32
ENDBRANCH  23  25
ENDBRANCH   4  20
TORSDOF 6
ENDMDL
