MODEL 1
REMARK VINA RESULT:    -9.194      0.000      0.000
REMARK INTER + INTRA:         -12.913
REMARK INTER:                 -11.580
REMARK INTRA:                  -1.333
REMARK CONF_INDEPENDENT:        2.386
REMARK UNBOUND:                -1.333
REMARK  8 active torsions:
REMARK  status: ('A' for Active; 'I' for Inactive)
REMARK    1  A    between atoms: C_2  and  C_3 
REMARK       I    between atoms: C_3  and  N_5 
REMARK    2  A    between atoms: N_5  and  C_6 
REMARK    3  A    between atoms: C_10  and  C_11 
REMARK       I    between atoms: C_11  and  N_13 
REMARK    4  A    between atoms: N_13  and  N_14 
REMARK       I    between atoms: N_14  and  C_15 
REMARK    5  A    between atoms: C_15  and  C_17 
REMARK    6  A    between atoms: C_17  and  C_18 
REMARK    7  A    between atoms: C_18  and  C_19 
REMARK    8  A    between atoms: C_19  and  C_20 
ROOT
ATOM      1  C   UNL d   1      25.821 -15.464  -2.584  0.00  0.00     0.270 C 
ATOM      2  O   UNL d   1      24.974 -14.832  -3.225  0.00  0.00    -0.266 OA
ATOM      3  N   UNL d   1      27.178 -15.311  -2.813  0.00  0.00    -0.263 N 
ATOM      4  H   UNL d   1      27.917 -15.798  -2.307  0.00  0.00     0.190 HD
ENDROOT
BRANCH   3   5
ATOM      5  N   UNL d   1      27.645 -14.415  -3.798  0.00  0.00    -0.267 N 
ATOM      6  C   UNL d   1      27.267 -14.650  -5.107  0.00  0.00     0.236 C 
ATOM      7  O   UNL d   1      26.538 -15.596  -5.410  0.00  0.00    -0.272 OA
ATOM      8  H   UNL d   1      28.249 -13.659  -3.488  0.00  0.00     0.190 HD
BRANCH   6   9
ATOM      9  C   UNL d   1      27.813 -13.662  -6.130  0.00  0.00     0.105 C 
BRANCH   9  10
ATOM     10  C   UNL d   1      28.899 -14.322  -6.985  0.00  0.00     0.014 C 
BRANCH  10  11
ATOM     11  C   UNL d   1      30.135 -14.715  -6.178  0.00  0.00     0.039 C 
BRANCH  11  12
ATOM     12  C   UNL d   1      30.272 -16.211  -6.011  0.00  0.00    -0.058 A 
ATOM     13  C   UNL d   1      29.971 -16.843  -4.794  0.00  0.00     0.007 A 
ATOM     14  C   UNL d   1      30.211 -18.205  -4.622  0.00  0.00     0.001 A 
ATOM     15  C   UNL d   1      30.692 -18.966  -5.682  0.00  0.00     0.000 A 
ATOM     16  C   UNL d   1      30.974 -18.357  -6.904  0.00  0.00     0.001 A 
ATOM     17  C   UNL d   1      30.778 -16.986  -7.063  0.00  0.00     0.007 A 
ENDBRANCH  11  12
ENDBRANCH  10  11
ENDBRANCH   9  10
ENDBRANCH   6   9
ENDBRANCH   3   5
BRANCH   1  18
ATOM     18  C   UNL d   1      25.390 -16.459  -1.539  0.00  0.00     0.035 A 
ATOM     19  C   UNL d   1      26.332 -17.012  -0.659  0.00  0.00     0.017 A 
ATOM     20  C   UNL d   1      25.925 -17.871   0.375  0.00  0.00     0.003 A 
ATOM     21  C   UNL d   1      24.575 -18.213   0.525  0.00  0.00     0.029 A 
ATOM     22  C   UNL d   1      23.630 -17.678  -0.350  0.00  0.00     0.035 A 
ATOM     23  C   UNL d   1      24.048 -16.816  -1.373  0.00  0.00     0.046 A 
BRANCH  22  24
ATOM     24  N   UNL d   1      22.248 -17.946  -0.178  0.00  0.00    -0.327 N 
ATOM     25  C   UNL d   1      21.539 -18.730  -1.079  0.00  0.00     0.221 C 
ATOM     26  O   UNL d   1      22.065 -19.325  -2.020  0.00  0.00    -0.273 OA
ATOM     27  H   UNL d   1      21.810 -17.655   0.687  0.00  0.00     0.169 HD
BRANCH  25  28
ATOM     28  C   UNL d   1      20.047 -18.847  -0.820  0.00  0.00     0.098 C 
ATOM     29  C   UNL d   1      19.791 -19.963   0.192  0.00  0.00     0.014 C 
ENDBRANCH  25  28
ENDBRANCH  22  24
ENDBRANCH   1  18
TORSDOF 8
ENDMDL
MODEL 2
REMARK VINA RESULT:    -8.900      2.604      3.570
REMARK INTER + INTRA:         -13.180
REMARK INTER:                 -11.287
REMARK INTRA:                  -1.894
REMARK CONF_INDEPENDENT:        2.386
REMARK UNBOUND:                -1.894
REMARK  8 active torsions:
REMARK  status: ('A' for Active; 'I' for Inactive)
REMARK    1  A    between atoms: C_2  and  C_3 
REMARK       I    between atoms: C_3  and  N_5 
REMARK    2  A    between atoms: N_5  and  C_6 
REMARK    3  A    between atoms: C_10  and  C_11 
REMARK       I    between atoms: C_11  and  N_13 
REMARK    4  A    between atoms: N_13  and  N_14 
REMARK       I    between atoms: N_14  and  C_15 
REMARK    5  A    between atoms: C_15  and  C_17 
REMARK    6  A    between atoms: C_17  and  C_18 
REMARK    7  A    between atoms: C_18  and  C_19 
REMARK    8  A    between atoms: C_19  and  C_20 
ROOT
ATOM      1  C   UNL d   1      26.451 -18.033   0.056  0.00  0.00     0.270 C 
ATOM      2  O   UNL d   1      26.760 -18.783   0.988  0.00  0.00    -0.266 OA
ATOM      3  N   UNL d   1      27.404 -17.450  -0.763  0.00  0.00    -0.263 N 
ATOM      4  H   UNL d   1      27.204 -16.835  -1.550  0.00  0.00     0.190 HD
ENDROOT
BRANCH   3   5
ATOM      5  N   UNL d   1      28.778 -17.698  -0.556  0.00  0.00    -0.267 N 
ATOM      6  C   UNL d   1      29.664 -17.230  -1.508  0.00  0.00     0.236 C 
ATOM      7  O   UNL d   1      29.278 -16.606  -2.499  0.00  0.00    -0.272 OA
ATOM      8  H   UNL d   1      29.033 -18.225   0.275  0.00  0.00     0.190 HD
BRANCH   6   9
ATOM      9  C   UNL d   1      31.131 -17.541  -1.243  0.00  0.00     0.105 C 
BRANCH   9  10
ATOM     10  C   UNL d   1      31.826 -17.985  -2.534  0.00  0.00     0.014 C 
BRANCH  10  11
ATOM     11  C   UNL d   1      31.191 -19.227  -3.156  0.00  0.00     0.039 C 
BRANCH  11  12
ATOM     12  C   UNL d   1      30.989 -19.093  -4.649  0.00  0.00    -0.058 A 
ATOM     13  C   UNL d   1      30.592 -20.186  -5.435  0.00  0.00     0.007 A 
ATOM     14  C   UNL d   1      30.521 -20.075  -6.823  0.00  0.00     0.001 A 
ATOM     15  C   UNL d   1      30.781 -18.854  -7.437  0.00  0.00     0.000 A 
ATOM     16  C   UNL d   1      31.154 -17.754  -6.667  0.00  0.00     0.001 A 
ATOM     17  C   UNL d   1      31.270 -17.875  -5.283  0.00  0.00     0.007 A 
ENDBRANCH  11  12
ENDBRANCH  10  11
ENDBRANCH   9  10
ENDBRANCH   6   9
ENDBRANCH   3   5
BRANCH   1  18
ATOM     18  C   UNL d   1      25.005 -17.702  -0.200  0.00  0.00     0.035 A 
ATOM     19  C   UNL d   1      24.662 -16.568  -0.951  0.00  0.00     0.017 A 
ATOM     20  C   UNL d   1      23.320 -16.302  -1.270  0.00  0.00     0.003 A 
ATOM     21  C   UNL d   1      22.300 -17.149  -0.817  0.00  0.00     0.029 A 
ATOM     22  C   UNL d   1      22.627 -18.274  -0.062  0.00  0.00     0.035 A 
ATOM     23  C   UNL d   1      23.971 -18.532   0.244  0.00  0.00     0.046 A 
BRANCH  22  24
ATOM     24  N   UNL d   1      21.626 -19.190   0.347  0.00  0.00    -0.327 N 
ATOM     25  C   UNL d   1      20.632 -19.622  -0.521  0.00  0.00     0.221 C 
ATOM     26  O   UNL d   1      20.604 -19.331  -1.717  0.00  0.00    -0.273 OA
ATOM     27  H   UNL d   1      21.719 -19.623   1.258  0.00  0.00     0.169 HD
BRANCH  25  28
ATOM     28  C   UNL d   1      19.572 -20.525   0.085  0.00  0.00     0.098 C 
ATOM     29  C   UNL d   1      19.213 -20.023   1.483  0.00  0.00     0.014 C 
ENDBRANCH  25  28
ENDBRANCH  22  24
ENDBRANCH   1  18
TORSDOF 8
ENDMDL
MODEL 3
REMARK VINA RESULT:    -8.838      1.859      9.322
REMARK INTER + INTRA:         -13.041
REMARK INTER:                 -11.225
REMARK INTRA:                  -1.816
REMARK CONF_INDEPENDENT:        2.386
REMARK UNBOUND:                -1.816
REMARK  8 active torsions:
REMARK  status: ('A' for Active; 'I' for Inactive)
REMARK    1  A    between atoms: C_2  and  C_3 
REMARK       I    between atoms: C_3  and  N_5 
REMARK    2  A    between atoms: N_5  and  C_6 
REMARK    3  A    between atoms: C_10  and  C_11 
REMARK       I    between atoms: C_11  and  N_13 
REMARK    4  A    between atoms: N_13  and  N_14 
REMARK       I    between atoms: N_14  and  C_15 
REMARK    5  A    between atoms: C_15  and  C_17 
REMARK    6  A    between atoms: C_17  and  C_18 
REMARK    7  A    between atoms: C_18  and  C_19 
REMARK    8  A    between atoms: C_19  and  C_20 
ROOT
ATOM      1  C   UNL d   1      25.192 -14.475  -3.744  0.00  0.00     0.270 C 
ATOM      2  O   UNL d   1      24.023 -14.075  -3.788  0.00  0.00    -0.266 OA
ATOM      3  N   UNL d   1      25.603 -15.433  -2.831  0.00  0.00    -0.263 N 
ATOM      4  H   UNL d   1      26.549 -15.805  -2.758  0.00  0.00     0.190 HD
ENDROOT
BRANCH   3   5
ATOM      5  N   UNL d   1      24.689 -15.989  -1.911  0.00  0.00    -0.267 N 
ATOM      6  C   UNL d   1      25.130 -17.036  -1.124  0.00  0.00     0.236 C 
ATOM      7  O   UNL d   1      26.283 -17.465  -1.205  0.00  0.00    -0.272 OA
ATOM      8  H   UNL d   1      23.751 -15.598  -1.896  0.00  0.00     0.190 HD
BRANCH   6   9
ATOM      9  C   UNL d   1      24.097 -17.609  -0.162  0.00  0.00     0.105 C 
BRANCH   9  10
ATOM     10  C   UNL d   1      23.234 -18.660  -0.867  0.00  0.00     0.014 C 
BRANCH  10  11
ATOM     11  C   UNL d   1      21.783 -18.217  -1.047  0.00  0.00     0.039 C 
BRANCH  11  12
ATOM     12  C   UNL d   1      20.810 -19.074  -0.270  0.00  0.00    -0.058 A 
ATOM     13  C   UNL d   1      19.713 -19.687  -0.895  0.00  0.00     0.007 A 
ATOM     14  C   UNL d   1      18.763 -20.379  -0.145  0.00  0.00     0.001 A 
ATOM     15  C   UNL d   1      18.932 -20.524   1.228  0.00  0.00     0.000 A 
ATOM     16  C   UNL d   1      20.028 -19.940   1.859  0.00  0.00     0.001 A 
ATOM     17  C   UNL d   1      20.955 -19.209   1.117  0.00  0.00     0.007 A 
ENDBRANCH  11  12
ENDBRANCH  10  11
ENDBRANCH   9  10
ENDBRANCH   6   9
ENDBRANCH   3   5
BRANCH   1  18
ATOM     18  C   UNL d   1      26.224 -13.900  -4.676  0.00  0.00     0.035 A 
ATOM     19  C   UNL d   1      26.355 -12.511  -4.815  0.00  0.00     0.017 A 
ATOM     20  C   UNL d   1      27.374 -11.966  -5.613  0.00  0.00     0.003 A 
ATOM     21  C   UNL d   1      28.257 -12.802  -6.307  0.00  0.00     0.029 A 
ATOM     22  C   UNL d   1      28.132 -14.185  -6.186  0.00  0.00     0.035 A 
ATOM     23  C   UNL d   1      27.115 -14.716  -5.380  0.00  0.00     0.046 A 
BRANCH  22  24
ATOM     24  N   UNL d   1      29.056 -15.056  -6.815  0.00  0.00    -0.327 N 
ATOM     25  C   UNL d   1      29.706 -16.062  -6.113  0.00  0.00     0.221 C 
ATOM     26  O   UNL d   1      29.459 -16.337  -4.939  0.00  0.00    -0.273 OA
ATOM     27  H   UNL d   1      29.143 -15.010  -7.823  0.00  0.00     0.169 HD
BRANCH  25  28
ATOM     28  C   UNL d   1      30.740 -16.852  -6.897  0.00  0.00     0.098 C 
ATOM     29  C   UNL d   1      31.776 -15.894  -7.484  0.00  0.00     0.014 C 
ENDBRANCH  25  28
ENDBRANCH  22  24
ENDBRANCH   1  18
TORSDOF 8
ENDMDL
MODEL 4
REMARK VINA RESULT:    -8.808      4.478      6.540
REMARK INTER + INTRA:         -13.087
REMARK INTER:                 -11.194
REMARK INTRA:                  -1.893
REMARK CONF_INDEPENDENT:        2.386
REMARK UNBOUND:                -1.893
REMARK  8 active torsions:
REMARK  status: ('A' for Active; 'I' for Inactive)
REMARK    1  A    between atoms: C_2  and  C_3 
REMARK       I    between atoms: C_3  and  N_5 
REMARK    2  A    between atoms: N_5  and  C_6 
REMARK    3  A    between atoms: C_10  and  C_11 
REMARK       I    between atoms: C_11  and  N_13 
REMARK    4  A    between atoms: N_13  and  N_14 
REMARK       I    between atoms: N_14  and  C_15 
REMARK    5  A    between atoms: C_15  and  C_17 
REMARK    6  A    between atoms: C_17  and  C_18 
REMARK    7  A    between atoms: C_18  and  C_19 
REMARK    8  A    between atoms: C_19  and  C_20 
ROOT
ATOM      1  C   UNL d   1      26.696 -17.752   0.091  0.00  0.00     0.270 C 
ATOM      2  O   UNL d   1      27.058 -18.870   0.476  0.00  0.00    -0.266 OA
ATOM      3  N   UNL d   1      27.590 -16.704  -0.058  0.00  0.00    -0.263 N 
ATOM      4  H   UNL d   1      27.348 -15.769  -0.381  0.00  0.00     0.190 HD
ENDROOT
BRANCH   3   5
ATOM      5  N   UNL d   1      28.960 -16.882   0.228  0.00  0.00    -0.267 N 
ATOM      6  C   UNL d   1      29.790 -15.785   0.093  0.00  0.00     0.236 C 
ATOM      7  O   UNL d   1      29.356 -14.684  -0.252  0.00  0.00    -0.272 OA
ATOM      8  H   UNL d   1      29.259 -17.815   0.500  0.00  0.00     0.190 HD
BRANCH   6   9
ATOM      9  C   UNL d   1      31.261 -16.039   0.398  0.00  0.00     0.105 C 
BRANCH   9  10
ATOM     10  C   UNL d   1      31.598 -15.584   1.822  0.00  0.00     0.014 C 
BRANCH  10  11
ATOM     11  C   UNL d   1      30.973 -14.238   2.182  0.00  0.00     0.039 C 
BRANCH  11  12
ATOM     12  C   UNL d   1      29.827 -14.369   3.159  0.00  0.00    -0.058 A 
ATOM     13  C   UNL d   1      28.508 -14.067   2.786  0.00  0.00     0.007 A 
ATOM     14  C   UNL d   1      27.481 -14.083   3.728  0.00  0.00     0.001 A 
ATOM     15  C   UNL d   1      27.746 -14.465   5.039  0.00  0.00     0.000 A 
ATOM     16  C   UNL d   1      29.047 -14.790   5.419  0.00  0.00     0.001 A 
ATOM     17  C   UNL d   1      30.083 -14.730   4.488  0.00  0.00     0.007 A 
ENDBRANCH  11  12
ENDBRANCH  10  11
ENDBRANCH   9  10
ENDBRANCH   6   9
ENDBRANCH   3   5
BRANCH   1  18
ATOM     18  C   UNL d   1      25.244 -17.486  -0.202  0.00  0.00     0.035 A 
ATOM     19  C   UNL d   1      24.855 -16.287  -0.815  0.00  0.00     0.017 A 
ATOM     20  C   UNL d   1      23.514 -16.069  -1.173  0.00  0.00     0.003 A 
ATOM     21  C   UNL d   1      22.539 -17.036  -0.895  0.00  0.00     0.029 A 
ATOM     22  C   UNL d   1      22.910 -18.228  -0.276  0.00  0.00     0.035 A 
ATOM     23  C   UNL d   1      24.254 -18.436   0.069  0.00  0.00     0.046 A 
BRANCH  22  24
ATOM     24  N   UNL d   1      21.960 -19.255  -0.049  0.00  0.00    -0.327 N 
ATOM     25  C   UNL d   1      20.644 -19.140  -0.475  0.00  0.00     0.221 C 
ATOM     26  O   UNL d   1      20.233 -18.203  -1.160  0.00  0.00    -0.273 OA
ATOM     27  H   UNL d   1      22.292 -20.136   0.325  0.00  0.00     0.169 HD
BRANCH  25  28
ATOM     28  C   UNL d   1      19.719 -20.276  -0.074  0.00  0.00     0.098 C 
ATOM     29  C   UNL d   1      19.290 -20.095   1.381  0.00  0.00     0.014 C 
ENDBRANCH  25  28
ENDBRANCH  22  24
ENDBRANCH   1  18
TORSDOF 8
ENDMDL
MODEL 5
REMARK VINA RESULT:    -8.722      2.173      9.777
REMARK INTER + INTRA:         -12.878
REMARK INTER:                 -11.108
REMARK INTRA:                  -1.770
REMARK CONF_INDEPENDENT:        2.386
REMARK UNBOUND:                -1.770
REMARK  8 active torsions:
REMARK  status: ('A' for Active; 'I' for Inactive)
REMARK    1  A    between atoms: C_2  and  C_3 
REMARK       I    between atoms: C_3  and  N_5 
REMARK    2  A    between atoms: N_5  and  C_6 
REMARK    3  A    between atoms: C_10  and  C_11 
REMARK       I    between atoms: C_11  and  N_13 
REMARK    4  A    between atoms: N_13  and  N_14 
REMARK       I    between atoms: N_14  and  C_15 
REMARK    5  A    between atoms: C_15  and  C_17 
REMARK    6  A    between atoms: C_17  and  C_18 
REMARK    7  A    between atoms: C_18  and  C_19 
REMARK    8  A    between atoms: C_19  and  C_20 
ROOT
ATOM      1  C   UNL d   1      25.810 -15.529  -3.301  0.00  0.00     0.270 C 
ATOM      2  O   UNL d   1      24.843 -14.804  -3.561  0.00  0.00    -0.266 OA
ATOM      3  N   UNL d   1      25.717 -16.576  -2.398  0.00  0.00    -0.263 N 
ATOM      4  H   UNL d   1      26.477 -17.210  -2.156  0.00  0.00     0.190 HD
ENDROOT
BRANCH   3   5
ATOM      5  N   UNL d   1      24.500 -16.851  -1.739  0.00  0.00    -0.267 N 
ATOM      6  C   UNL d   1      24.523 -17.777  -0.713  0.00  0.00     0.236 C 
ATOM      7  O   UNL d   1      25.566 -18.338  -0.370  0.00  0.00    -0.272 OA
ATOM      8  H   UNL d   1      23.673 -16.364  -2.072  0.00  0.00     0.190 HD
BRANCH   6   9
ATOM      9  C   UNL d   1      23.179 -18.048  -0.049  0.00  0.00     0.105 C 
BRANCH   9  10
ATOM     10  C   UNL d   1      22.294 -18.904  -0.960  0.00  0.00     0.014 C 
BRANCH  10  11
ATOM     11  C   UNL d   1      20.821 -18.500  -0.912  0.00  0.00     0.039 C 
BRANCH  11  12
ATOM     12  C   UNL d   1      19.996 -19.408  -0.027  0.00  0.00    -0.058 A 
ATOM     13  C   UNL d   1      18.870 -20.085  -0.519  0.00  0.00     0.007 A 
ATOM     14  C   UNL d   1      18.055 -20.825   0.336  0.00  0.00     0.001 A 
ATOM     15  C   UNL d   1      18.392 -20.953   1.679  0.00  0.00     0.000 A 
ATOM     16  C   UNL d   1      19.521 -20.305   2.178  0.00  0.00     0.001 A 
ATOM     17  C   UNL d   1      20.311 -19.527   1.333  0.00  0.00     0.007 A 
ENDBRANCH  11  12
ENDBRANCH  10  11
ENDBRANCH   9  10
ENDBRANCH   6   9
ENDBRANCH   3   5
BRANCH   1  18
ATOM     18  C   UNL d   1      27.145 -15.271  -3.946  0.00  0.00     0.035 A 
ATOM     19  C   UNL d   1      28.331 -15.582  -3.265  0.00  0.00     0.017 A 
ATOM     20  C   UNL d   1      29.577 -15.428  -3.893  0.00  0.00     0.003 A 
ATOM     21  C   UNL d   1      29.657 -14.933  -5.201  0.00  0.00     0.029 A 
ATOM     22  C   UNL d   1      28.487 -14.610  -5.886  0.00  0.00     0.035 A 
ATOM     23  C   UNL d   1      27.248 -14.775  -5.249  0.00  0.00     0.046 A 
BRANCH  22  24
ATOM     24  N   UNL d   1      28.530 -14.178  -7.235  0.00  0.00    -0.327 N 
ATOM     25  C   UNL d   1      28.234 -12.869  -7.592  0.00  0.00     0.221 C 
ATOM     26  O   UNL d   1      28.016 -11.976  -6.773  0.00  0.00    -0.273 OA
ATOM     27  H   UNL d   1      28.904 -14.814  -7.928  0.00  0.00     0.169 HD
BRANCH  25  28
ATOM     28  C   UNL d   1      28.226 -12.577  -9.083  0.00  0.00     0.098 C 
ATOM     29  C   UNL d   1      29.625 -12.157  -9.528  0.00  0.00     0.014 C 
ENDBRANCH  25  28
ENDBRANCH  22  24
ENDBRANCH   1  18
TORSDOF 8
ENDMDL
MODEL 6
REMARK VINA RESULT:    -8.410      2.413      4.598
REMARK INTER + INTRA:         -12.882
REMARK INTER:                 -10.796
REMARK INTRA:                  -2.086
REMARK CONF_INDEPENDENT:        2.386
REMARK UNBOUND:                -2.086
REMARK  8 active torsions:
REMARK  status: ('A' for Active; 'I' for Inactive)
REMARK    1  A    between atoms: C_2  and  C_3 
REMARK       I    between atoms: C_3  and  N_5 
REMARK    2  A    between atoms: N_5  and  C_6 
REMARK    3  A    between atoms: C_10  and  C_11 
REMARK       I    between atoms: C_11  and  N_13 
REMARK    4  A    between atoms: N_13  and  N_14 
REMARK       I    between atoms: N_14  and  C_15 
REMARK    5  A    between atoms: C_15  and  C_17 
REMARK    6  A    between atoms: C_17  and  C_18 
REMARK    7  A    between atoms: C_18  and  C_19 
REMARK    8  A    between atoms: C_19  and  C_20 
ROOT
ATOM      1  C   UNL d   1      25.266 -15.422  -2.972  0.00  0.00     0.270 C 
ATOM      2  O   UNL d   1      24.443 -14.531  -3.213  0.00  0.00    -0.266 OA
ATOM      3  N   UNL d   1      26.423 -15.571  -3.719  0.00  0.00    -0.263 N 
ATOM      4  H   UNL d   1      27.138 -16.279  -3.557  0.00  0.00     0.190 HD
ENDROOT
BRANCH   3   5
ATOM      5  N   UNL d   1      26.703 -14.700  -4.793  0.00  0.00    -0.267 N 
ATOM      6  C   UNL d   1      27.895 -14.880  -5.470  0.00  0.00     0.236 C 
ATOM      7  O   UNL d   1      28.684 -15.776  -5.163  0.00  0.00    -0.272 OA
ATOM      8  H   UNL d   1      26.018 -13.976  -4.993  0.00  0.00     0.190 HD
BRANCH   6   9
ATOM      9  C   UNL d   1      28.152 -13.901  -6.609  0.00  0.00     0.105 C 
BRANCH   9  10
ATOM     10  C   UNL d   1      28.194 -12.464  -6.079  0.00  0.00     0.014 C 
BRANCH  10  11
ATOM     11  C   UNL d   1      27.027 -11.612  -6.574  0.00  0.00     0.039 C 
BRANCH  11  12
ATOM     12  C   UNL d   1      26.428 -10.753  -5.483  0.00  0.00    -0.058 A 
ATOM     13  C   UNL d   1      26.486 -11.136  -4.134  0.00  0.00     0.007 A 
ATOM     14  C   UNL d   1      25.831 -10.392  -3.154  0.00  0.00     0.001 A 
ATOM     15  C   UNL d   1      25.165  -9.221  -3.501  0.00  0.00     0.000 A 
ATOM     16  C   UNL d   1      25.118  -8.815  -4.833  0.00  0.00     0.001 A 
ATOM     17  C   UNL d   1      25.734  -9.584  -5.820  0.00  0.00     0.007 A 
ENDBRANCH  11  12
ENDBRANCH  10  11
ENDBRANCH   9  10
ENDBRANCH   6   9
ENDBRANCH   3   5
BRANCH   1  18
ATOM     18  C   UNL d   1      25.013 -16.404  -1.860  0.00  0.00     0.035 A 
ATOM     19  C   UNL d   1      26.080 -16.889  -1.090  0.00  0.00     0.017 A 
ATOM     20  C   UNL d   1      25.843 -17.735   0.006  0.00  0.00     0.003 A 
ATOM     21  C   UNL d   1      24.539 -18.133   0.328  0.00  0.00     0.029 A 
ATOM     22  C   UNL d   1      23.470 -17.666  -0.436  0.00  0.00     0.035 A 
ATOM     23  C   UNL d   1      23.720 -16.815  -1.523  0.00  0.00     0.046 A 
BRANCH  22  24
ATOM     24  N   UNL d   1      22.134 -17.989  -0.090  0.00  0.00    -0.327 N 
ATOM     25  C   UNL d   1      21.337 -18.775  -0.913  0.00  0.00     0.221 C 
ATOM     26  O   UNL d   1      21.752 -19.325  -1.933  0.00  0.00    -0.273 OA
ATOM     27  H   UNL d   1      21.807 -17.738   0.834  0.00  0.00     0.169 HD
BRANCH  25  28
ATOM     28  C   UNL d   1      19.899 -18.955  -0.461  0.00  0.00     0.098 C 
ATOM     29  C   UNL d   1      19.770 -20.259   0.325  0.00  0.00     0.014 C 
ENDBRANCH  25  28
ENDBRANCH  22  24
ENDBRANCH   1  18
TORSDOF 8
ENDMDL
MODEL 7
REMARK VINA RESULT:    -8.402      3.784      5.217
REMARK INTER + INTRA:         -12.791
REMARK INTER:                 -10.789
REMARK INTRA:                  -2.002
REMARK CONF_INDEPENDENT:        2.386
REMARK UNBOUND:                -2.002
REMARK  8 active torsions:
REMARK  status: ('A' for Active; 'I' for Inactive)
REMARK    1  A    between atoms: C_2  and  C_3 
REMARK       I    between atoms: C_3  and  N_5 
REMARK    2  A    between atoms: N_5  and  C_6 
REMARK    3  A    between atoms: C_10  and  C_11 
REMARK       I    between atoms: C_11  and  N_13 
REMARK    4  A    between atoms: N_13  and  N_14 
REMARK       I    between atoms: N_14  and  C_15 
REMARK    5  A    between atoms: C_15  and  C_17 
REMARK    6  A    between atoms: C_17  and  C_18 
REMARK    7  A    between atoms: C_18  and  C_19 
REMARK    8  A    between atoms: C_19  and  C_20 
ROOT
ATOM      1  C   UNL d   1      26.497 -18.170   0.063  0.00  0.00     0.270 C 
ATOM      2  O   UNL d   1      26.776 -18.953   0.978  0.00  0.00    -0.266 OA
ATOM      3  N   UNL d   1      27.473 -17.600  -0.737  0.00  0.00    -0.263 N 
ATOM      4  H   UNL d   1      27.298 -16.959  -1.509  0.00  0.00     0.190 HD
ENDROOT
BRANCH   3   5
ATOM      5  N   UNL d   1      28.837 -17.899  -0.530  0.00  0.00    -0.267 N 
ATOM      6  C   UNL d   1      29.755 -17.327  -1.390  0.00  0.00     0.236 C 
ATOM      7  O   UNL d   1      29.407 -16.570  -2.299  0.00  0.00    -0.272 OA
ATOM      8  H   UNL d   1      29.061 -18.536   0.230  0.00  0.00     0.190 HD
BRANCH   6   9
ATOM      9  C   UNL d   1      31.210 -17.698  -1.131  0.00  0.00     0.105 C 
BRANCH   9  10
ATOM     10  C   UNL d   1      31.450 -19.178  -1.447  0.00  0.00     0.014 C 
BRANCH  10  11
ATOM     11  C   UNL d   1      31.780 -20.006  -0.207  0.00  0.00     0.039 C 
BRANCH  11  12
ATOM     12  C   UNL d   1      31.015 -21.309  -0.154  0.00  0.00    -0.058 A 
ATOM     13  C   UNL d   1      30.087 -21.573   0.866  0.00  0.00     0.007 A 
ATOM     14  C   UNL d   1      29.475 -22.821   0.966  0.00  0.00     0.001 A 
ATOM     15  C   UNL d   1      29.731 -23.799   0.010  0.00  0.00     0.000 A 
ATOM     16  C   UNL d   1      30.632 -23.544  -1.022  0.00  0.00     0.001 A 
ATOM     17  C   UNL d   1      31.280 -22.311  -1.097  0.00  0.00     0.007 A 
ENDBRANCH  11  12
ENDBRANCH  10  11
ENDBRANCH   9  10
ENDBRANCH   6   9
ENDBRANCH   3   5
BRANCH   1  18
ATOM     18  C   UNL d   1      25.064 -17.785  -0.190  0.00  0.00     0.035 A 
ATOM     19  C   UNL d   1      24.763 -16.645  -0.949  0.00  0.00     0.017 A 
ATOM     20  C   UNL d   1      23.432 -16.328  -1.266  0.00  0.00     0.003 A 
ATOM     21  C   UNL d   1      22.381 -17.130  -0.803  0.00  0.00     0.029 A 
ATOM     22  C   UNL d   1      22.666 -18.261  -0.039  0.00  0.00     0.035 A 
ATOM     23  C   UNL d   1      24.000 -18.570   0.264  0.00  0.00     0.046 A 
BRANCH  22  24
ATOM     24  N   UNL d   1      21.631 -19.133   0.381  0.00  0.00    -0.327 N 
ATOM     25  C   UNL d   1      20.643 -19.569  -0.493  0.00  0.00     0.221 C 
ATOM     26  O   UNL d   1      20.648 -19.320  -1.699  0.00  0.00    -0.273 OA
ATOM     27  H   UNL d   1      21.694 -19.536   1.308  0.00  0.00     0.169 HD
BRANCH  25  28
ATOM     28  C   UNL d   1      19.546 -20.419   0.123  0.00  0.00     0.098 C 
ATOM     29  C   UNL d   1      19.128 -19.820   1.465  0.00  0.00     0.014 C 
ENDBRANCH  25  28
ENDBRANCH  22  24
ENDBRANCH   1  18
TORSDOF 8
ENDMDL
MODEL 8
REMARK VINA RESULT:    -8.329      2.006      3.250
REMARK INTER + INTRA:         -12.818
REMARK INTER:                 -10.715
REMARK INTRA:                  -2.103
REMARK CONF_INDEPENDENT:        2.386
REMARK UNBOUND:                -2.103
REMARK  8 active torsions:
REMARK  status: ('A' for Active; 'I' for Inactive)
REMARK    1  A    between atoms: C_2  and  C_3 
REMARK       I    between atoms: C_3  and  N_5 
REMARK    2  A    between atoms: N_5  and  C_6 
REMARK    3  A    between atoms: C_10  and  C_11 
REMARK       I    between atoms: C_11  and  N_13 
REMARK    4  A    between atoms: N_13  and  N_14 
REMARK       I    between atoms: N_14  and  C_15 
REMARK    5  A    between atoms: C_15  and  C_17 
REMARK    6  A    between atoms: C_17  and  C_18 
REMARK    7  A    between atoms: C_18  and  C_19 
REMARK    8  A    between atoms: C_19  and  C_20 
ROOT
ATOM      1  C   UNL d   1      24.982 -14.588  -3.057  0.00  0.00     0.270 C 
ATOM      2  O   UNL d   1      24.781 -14.823  -4.254  0.00  0.00    -0.266 OA
ATOM      3  N   UNL d   1      25.279 -13.314  -2.601  0.00  0.00    -0.263 N 
ATOM      4  H   UNL d   1      25.443 -13.064  -1.627  0.00  0.00     0.190 HD
ENDROOT
BRANCH   3   5
ATOM      5  N   UNL d   1      25.359 -12.229  -3.500  0.00  0.00    -0.267 N 
ATOM      6  C   UNL d   1      26.189 -11.177  -3.161  0.00  0.00     0.236 C 
ATOM      7  O   UNL d   1      26.850 -11.184  -2.120  0.00  0.00    -0.272 OA
ATOM      8  H   UNL d   1      24.786 -12.279  -4.338  0.00  0.00     0.190 HD
BRANCH   6   9
ATOM      9  C   UNL d   1      26.225 -10.027  -4.159  0.00  0.00     0.105 C 
BRANCH   9  10
ATOM     10  C   UNL d   1      27.244 -10.312  -5.268  0.00  0.00     0.014 C 
BRANCH  10  11
ATOM     11  C   UNL d   1      26.758 -11.358  -6.270  0.00  0.00     0.039 C 
BRANCH  11  12
ATOM     12  C   UNL d   1      27.573 -12.630  -6.226  0.00  0.00    -0.058 A 
ATOM     13  C   UNL d   1      28.699 -12.808  -7.045  0.00  0.00     0.007 A 
ATOM     14  C   UNL d   1      29.371 -14.029  -7.076  0.00  0.00     0.001 A 
ATOM     15  C   UNL d   1      28.968 -15.065  -6.240  0.00  0.00     0.000 A 
ATOM     16  C   UNL d   1      27.866 -14.896  -5.405  0.00  0.00     0.001 A 
ATOM     17  C   UNL d   1      27.165 -13.691  -5.407  0.00  0.00     0.007 A 
ENDBRANCH  11  12
ENDBRANCH  10  11
ENDBRANCH   9  10
ENDBRANCH   6   9
ENDBRANCH   3   5
BRANCH   1  18
ATOM     18  C   UNL d   1      24.942 -15.706  -2.050  0.00  0.00     0.035 A 
ATOM     19  C   UNL d   1      26.128 -16.176  -1.469  0.00  0.00     0.017 A 
ATOM     20  C   UNL d   1      26.091 -17.156  -0.463  0.00  0.00     0.003 A 
ATOM     21  C   UNL d   1      24.870 -17.700  -0.046  0.00  0.00     0.029 A 
ATOM     22  C   UNL d   1      23.684 -17.249  -0.622  0.00  0.00     0.035 A 
ATOM     23  C   UNL d   1      23.734 -16.265  -1.621  0.00  0.00     0.046 A 
BRANCH  22  24
ATOM     24  N   UNL d   1      22.429 -17.726  -0.170  0.00  0.00    -0.327 N 
ATOM     25  C   UNL d   1      21.710 -18.679  -0.880  0.00  0.00     0.221 C 
ATOM     26  O   UNL d   1      22.145 -19.247  -1.882  0.00  0.00    -0.273 OA
ATOM     27  H   UNL d   1      22.118 -17.448   0.753  0.00  0.00     0.169 HD
BRANCH  25  28
ATOM     28  C   UNL d   1      20.338 -19.020  -0.325  0.00  0.00     0.098 C 
ATOM     29  C   UNL d   1      20.450 -20.222   0.611  0.00  0.00     0.014 C 
ENDBRANCH  25  28
ENDBRANCH  22  24
ENDBRANCH   1  18
TORSDOF 8
ENDMDL
MODEL 9
REMARK VINA RESULT:    -7.709      2.075      3.592
REMARK INTER + INTRA:         -12.734
REMARK INTER:                 -10.096
REMARK INTRA:                  -2.638
REMARK CONF_INDEPENDENT:        2.386
REMARK UNBOUND:                -2.638
REMARK  8 active torsions:
REMARK  status: ('A' for Active; 'I' for Inactive)
REMARK    1  A    between atoms: C_2  and  C_3 
REMARK       I    between atoms: C_3  and  N_5 
REMARK    2  A    between atoms: N_5  and  C_6 
REMARK    3  A    between atoms: C_10  and  C_11 
REMARK       I    between atoms: C_11  and  N_13 
REMARK    4  A    between atoms: N_13  and  N_14 
REMARK       I    between atoms: N_14  and  C_15 
REMARK    5  A    between atoms: C_15  and  C_17 
REMARK    6  A    between atoms: C_17  and  C_18 
REMARK    7  A    between atoms: C_18  and  C_19 
REMARK    8  A    between atoms: C_19  and  C_20 
ROOT
ATOM      1  C   UNL d   1      25.314 -15.429  -3.143  0.00  0.00     0.270 C 
ATOM      2  O   UNL d   1      24.475 -14.559  -3.404  0.00  0.00    -0.266 OA
ATOM      3  N   UNL d   1      26.469 -15.581  -3.893  0.00  0.00    -0.263 N 
ATOM      4  H   UNL d   1      27.195 -16.272  -3.716  0.00  0.00     0.190 HD
ENDROOT
BRANCH   3   5
ATOM      5  N   UNL d   1      26.728 -14.736  -4.993  0.00  0.00    -0.267 N 
ATOM      6  C   UNL d   1      27.921 -14.912  -5.669  0.00  0.00     0.236 C 
ATOM      7  O   UNL d   1      28.729 -15.783  -5.339  0.00  0.00    -0.272 OA
ATOM      8  H   UNL d   1      26.028 -14.032  -5.212  0.00  0.00     0.190 HD
BRANCH   6   9
ATOM      9  C   UNL d   1      28.156 -13.962  -6.836  0.00  0.00     0.105 C 
BRANCH   9  10
ATOM     10  C   UNL d   1      29.283 -12.978  -6.507  0.00  0.00     0.014 C 
BRANCH  10  11
ATOM     11  C   UNL d   1      28.778 -11.679  -5.882  0.00  0.00     0.039 C 
BRANCH  11  12
ATOM     12  C   UNL d   1      27.881 -11.916  -4.688  0.00  0.00    -0.058 A 
ATOM     13  C   UNL d   1      26.522 -11.566  -4.712  0.00  0.00     0.007 A 
ATOM     14  C   UNL d   1      25.736 -11.685  -3.567  0.00  0.00     0.001 A 
ATOM     15  C   UNL d   1      26.281 -12.217  -2.403  0.00  0.00     0.000 A 
ATOM     16  C   UNL d   1      27.623 -12.590  -2.370  0.00  0.00     0.001 A 
ATOM     17  C   UNL d   1      28.422 -12.429  -3.502  0.00  0.00     0.007 A 
ENDBRANCH  11  12
ENDBRANCH  10  11
ENDBRANCH   9  10
ENDBRANCH   6   9
ENDBRANCH   3   5
BRANCH   1  18
ATOM     18  C   UNL d   1      25.083 -16.383  -2.003  0.00  0.00     0.035 A 
ATOM     19  C   UNL d   1      26.163 -16.831  -1.228  0.00  0.00     0.017 A 
ATOM     20  C   UNL d   1      25.946 -17.650  -0.107  0.00  0.00     0.003 A 
ATOM     21  C   UNL d   1      24.650 -18.057   0.236  0.00  0.00     0.029 A 
ATOM     22  C   UNL d   1      23.570 -17.627  -0.532  0.00  0.00     0.035 A 
ATOM     23  C   UNL d   1      23.799 -16.803  -1.644  0.00  0.00     0.046 A 
BRANCH  22  24
ATOM     24  N   UNL d   1      22.241 -17.959  -0.167  0.00  0.00    -0.327 N 
ATOM     25  C   UNL d   1      21.442 -18.762  -0.970  0.00  0.00     0.221 C 
ATOM     26  O   UNL d   1      21.851 -19.320  -1.989  0.00  0.00    -0.273 OA
ATOM     27  H   UNL d   1      21.922 -17.700   0.759  0.00  0.00     0.169 HD
BRANCH  25  28
ATOM     28  C   UNL d   1      20.011 -18.951  -0.499  0.00  0.00     0.098 C 
ATOM     29  C   UNL d   1      19.886 -20.288   0.230  0.00  0.00     0.014 C 
ENDBRANCH  25  28
ENDBRANCH  22  24
ENDBRANCH   1  18
TORSDOF 8
ENDMDL
