MODEL 1
REMARK VINA RESULT:    -7.695      0.000      0.000
REMARK INTER + INTRA:         -14.338
REMARK INTER:                 -11.871
REMARK INTRA:                  -2.467
REMARK CONF_INDEPENDENT:        4.176
REMARK UNBOUND:                -2.467
REMARK  14 active torsions:
REMARK  status: ('A' for Active; 'I' for Inactive)
REMARK    1  A    between atoms: C_2  and  C_3 
REMARK    2  A    between atoms: C_3  and  C_4 
REMARK    3  A    between atoms: C_4  and  C_5 
REMARK    4  A    between atoms: C_5  and  C_6 
REMARK    5  A    between atoms: C_6  and  O_7 
REMARK    6  A    between atoms: O_7  and  C_8 
REMARK    7  A    between atoms: C_13  and  C_14 
REMARK       I    between atoms: C_14  and  N_16 
REMARK    8  A    between atoms: N_16  and  C_17 
REMARK    9  A    between atoms: C_17  and  N_19 
REMARK   10  A    between atoms: C_25  and  C_26 
REMARK   11  A    between atoms: C_26  and  C_27 
REMARK   12  A    between atoms: C_27  and  O_29 
REMARK   13  A    between atoms: C_30  and  O_29 
REMARK   14  A    between atoms: C_30  and  C_32 
ROOT
ATOM      1  C   UNL d   1      26.440 -14.187  -4.430  0.00  0.00     0.177 C 
ATOM      2  S   UNL d   1      25.248 -12.983  -4.339  0.00  0.00    -0.041 SA
ENDROOT
BRANCH   1   3
ATOM      3  N   UNL d   1      26.316 -15.421  -3.754  0.00  0.00    -0.299 N 
ATOM      4  C   UNL d   1      25.455 -15.589  -2.645  0.00  0.00     0.260 C 
ATOM      5  O   UNL d   1      24.395 -14.978  -2.510  0.00  0.00    -0.267 OA
ATOM      6  H   UNL d   1      27.079 -16.081  -3.813  0.00  0.00     0.171 HD
BRANCH   4   7
ATOM      7  C   UNL d   1      25.732 -16.561  -1.537  0.00  0.00     0.065 A 
ATOM      8  C   UNL d   1      27.079 -16.593  -1.084  0.00  0.00     0.020 A 
ATOM      9  C   UNL d   1      27.492 -17.387  -0.012  0.00  0.00     0.001 A 
ATOM     10  C   UNL d   1      26.561 -18.179   0.637  0.00  0.00     0.003 A 
ATOM     11  C   UNL d   1      25.253 -18.241   0.147  0.00  0.00     0.038 A 
ATOM     12  C   UNL d   1      24.834 -17.444  -0.940  0.00  0.00     0.084 A 
BRANCH  12  13
ATOM     13  O   UNL d   1      23.501 -17.497  -1.211  0.00  0.00    -0.350 OA
BRANCH  13  14
ATOM     14  C   UNL d   1      22.913 -18.796  -1.216  0.00  0.00     0.175 C 
BRANCH  14  15
ATOM     15  C   UNL d   1      21.789 -18.725  -0.173  0.00  0.00     0.027 C 
BRANCH  15  16
ATOM     16  C   UNL d   1      20.447 -18.683  -0.895  0.00  0.00     0.002 C 
BRANCH  16  17
ATOM     17  C   UNL d   1      19.384 -19.743  -0.484  0.00  0.00    -0.000 C 
BRANCH  17  18
ATOM     18  C   UNL d   1      19.488 -20.562   0.880  0.00  0.00    -0.005 C 
ATOM     19  C   UNL d   1      18.173 -21.248   1.288  0.00  0.00     0.005 C 
ENDBRANCH  17  18
ENDBRANCH  16  17
ENDBRANCH  15  16
ENDBRANCH  14  15
ENDBRANCH  13  14
ENDBRANCH  12  13
ENDBRANCH   4   7
ENDBRANCH   1   3
BRANCH   1  20
ATOM     20  N   UNL d   1      27.686 -13.949  -5.080  0.00  0.00    -0.343 N 
ATOM     21  C   UNL d   1      28.071 -14.824  -6.279  0.00  0.00     0.146 C 
ATOM     22  C   UNL d   1      28.877 -14.067  -7.249  0.00  0.00     0.142 C 
ATOM     23  N   UNL d   1      30.070 -13.610  -6.465  0.00  0.00    -0.358 N 
ATOM     24  C   UNL d   1      29.998 -12.892  -5.300  0.00  0.00     0.241 C 
ATOM     25  H   UNL d   1      30.970 -13.501  -6.903  0.00  0.00     0.162 HD
ATOM     26  O   UNL d   1      30.949 -12.210  -4.904  0.00  0.00    -0.271 OA
ATOM     27  C   UNL d   1      28.861 -13.314  -4.393  0.00  0.00     0.188 C 
BRANCH  27  28
ATOM     28  C   UNL d   1      29.705 -14.246  -3.546  0.00  0.00     0.146 C 
BRANCH  28  29
ATOM     29  C   UNL d   1      29.520 -15.715  -3.865  0.00  0.00     0.261 C 
ATOM     30  O   UNL d   1      28.668 -16.469  -3.530  0.00  0.00    -0.265 OA
BRANCH  29  31
ATOM     31  O   UNL d   1      30.398 -16.239  -4.705  0.00  0.00    -0.316 OA
BRANCH  31  32
ATOM     32  C   UNL d   1      30.330 -17.595  -5.032  0.00  0.00     0.127 C 
ATOM     33  C   UNL d   1      31.257 -18.184  -4.008  0.00  0.00     0.040 C 
BRANCH  32  34
ATOM     34  C   UNL d   1      30.765 -17.597  -6.474  0.00  0.00     0.027 C 
ATOM     35  C   UNL d   1      31.567 -16.332  -6.812  0.00  0.00     0.007 C 
ENDBRANCH  32  34
ENDBRANCH  31  32
ENDBRANCH  29  31
ENDBRANCH  28  29
ENDBRANCH  27  28
ENDBRANCH   1  20
TORSDOF 14
ENDMDL
MODEL 2
REMARK VINA RESULT:    -7.137      1.487      2.101
REMARK INTER + INTRA:         -14.239
REMARK INTER:                 -11.313
REMARK INTRA:                  -2.926
REMARK CONF_INDEPENDENT:        4.176
REMARK UNBOUND:                -2.926
REMARK  14 active torsions:
REMARK  status: ('A' for Active; 'I' for Inactive)
REMARK    1  A    between atoms: C_2  and  C_3 
REMARK    2  A    between atoms: C_3  and  C_4 
REMARK    3  A    between atoms: C_4  and  C_5 
REMARK    4  A    between atoms: C_5  and  C_6 
REMARK    5  A    between atoms: C_6  and  O_7 
REMARK    6  A    between atoms: O_7  and  C_8 
REMARK    7  A    between atoms: C_13  and  C_14 
REMARK       I    between atoms: C_14  and  N_16 
REMARK    8  A    between atoms: N_16  and  C_17 
REMARK    9  A    between atoms: C_17  and  N_19 
REMARK   10  A    between atoms: C_25  and  C_26 
REMARK   11  A    between atoms: C_26  and  C_27 
REMARK   12  A    between atoms: C_27  and  O_29 
REMARK   13  A    between atoms: C_30  and  O_29 
REMARK   14  A    between atoms: C_30  and  C_32 
ROOT
ATOM      1  C   UNL d   1      26.414 -13.699  -3.752  0.00  0.00     0.177 C 
ATOM      2  S   UNL d   1      25.180 -12.960  -4.654  0.00  0.00    -0.041 SA
ENDROOT
BRANCH   1   3
ATOM      3  N   UNL d   1      26.310 -15.026  -3.280  0.00  0.00    -0.299 N 
ATOM      4  C   UNL d   1      25.287 -15.432  -2.392  0.00  0.00     0.260 C 
ATOM      5  O   UNL d   1      24.158 -14.941  -2.388  0.00  0.00    -0.267 OA
ATOM      6  H   UNL d   1      27.140 -15.602  -3.275  0.00  0.00     0.171 HD
BRANCH   4   7
ATOM      7  C   UNL d   1      25.467 -16.531  -1.387  0.00  0.00     0.065 A 
ATOM      8  C   UNL d   1      26.812 -16.784  -1.004  0.00  0.00     0.020 A 
ATOM      9  C   UNL d   1      27.150 -17.722  -0.027  0.00  0.00     0.001 A 
ATOM     10  C   UNL d   1      26.143 -18.440   0.594  0.00  0.00     0.003 A 
ATOM     11  C   UNL d   1      24.822 -18.281   0.164  0.00  0.00     0.038 A 
ATOM     12  C   UNL d   1      24.478 -17.337  -0.827  0.00  0.00     0.084 A 
BRANCH  12  13
ATOM     13  O   UNL d   1      23.141 -17.186  -1.038  0.00  0.00    -0.350 OA
BRANCH  13  14
ATOM     14  C   UNL d   1      22.281 -17.887  -0.141  0.00  0.00     0.175 C 
BRANCH  14  15
ATOM     15  C   UNL d   1      21.894 -19.170  -0.888  0.00  0.00     0.027 C 
BRANCH  15  16
ATOM     16  C   UNL d   1      20.377 -19.210  -1.046  0.00  0.00     0.002 C 
BRANCH  16  17
ATOM     17  C   UNL d   1      19.530 -19.331   0.255  0.00  0.00    -0.000 C 
BRANCH  17  18
ATOM     18  C   UNL d   1      19.410 -20.701   1.063  0.00  0.00    -0.005 C 
ATOM     19  C   UNL d   1      18.028 -21.365   0.943  0.00  0.00     0.005 C 
ENDBRANCH  17  18
ENDBRANCH  16  17
ENDBRANCH  15  16
ENDBRANCH  14  15
ENDBRANCH  13  14
ENDBRANCH  12  13
ENDBRANCH   4   7
ENDBRANCH   1   3
BRANCH   1  20
ATOM     20  N   UNL d   1      27.552 -12.962  -3.312  0.00  0.00    -0.343 N 
ATOM     21  C   UNL d   1      28.057 -11.800  -4.175  0.00  0.00     0.146 C 
ATOM     22  C   UNL d   1      28.643 -10.739  -3.341  0.00  0.00     0.142 C 
ATOM     23  N   UNL d   1      29.748 -11.422  -2.594  0.00  0.00    -0.358 N 
ATOM     24  C   UNL d   1      29.580 -12.541  -1.822  0.00  0.00     0.241 C 
ATOM     25  H   UNL d   1      30.585 -10.925  -2.334  0.00  0.00     0.162 HD
ATOM     26  O   UNL d   1      30.384 -12.837  -0.933  0.00  0.00    -0.271 OA
ATOM     27  C   UNL d   1      28.598 -13.538  -2.401  0.00  0.00     0.188 C 
BRANCH  27  28
ATOM     28  C   UNL d   1      29.655 -14.390  -3.075  0.00  0.00     0.146 C 
BRANCH  28  29
ATOM     29  C   UNL d   1      29.134 -15.693  -3.644  0.00  0.00     0.261 C 
ATOM     30  O   UNL d   1      29.029 -16.762  -3.137  0.00  0.00    -0.265 OA
BRANCH  29  31
ATOM     31  O   UNL d   1      28.649 -15.635  -4.873  0.00  0.00    -0.316 OA
BRANCH  31  32
ATOM     32  C   UNL d   1      29.466 -15.945  -5.963  0.00  0.00     0.127 C 
ATOM     33  C   UNL d   1      30.719 -16.390  -5.264  0.00  0.00     0.040 C 
BRANCH  32  34
ATOM     34  C   UNL d   1      29.495 -14.643  -6.719  0.00  0.00     0.027 C 
ATOM     35  C   UNL d   1      28.155 -13.902  -6.600  0.00  0.00     0.007 C 
ENDBRANCH  32  34
ENDBRANCH  31  32
ENDBRANCH  29  31
ENDBRANCH  28  29
ENDBRANCH  27  28
ENDBRANCH   1  20
TORSDOF 14
ENDMDL
MODEL 3
REMARK VINA RESULT:    -6.969      1.368      2.579
REMARK INTER + INTRA:         -14.521
REMARK INTER:                 -11.145
REMARK INTRA:                  -3.376
REMARK CONF_INDEPENDENT:        4.176
REMARK UNBOUND:                -3.376
REMARK  14 active torsions:
REMARK  status: ('A' for Active; 'I' for Inactive)
REMARK    1  A    between atoms: C_2  and  C_3 
REMARK    2  A    between atoms: C_3  and  C_4 
REMARK    3  A    between atoms: C_4  and  C_5 
REMARK    4  A    between atoms: C_5  and  C_6 
REMARK    5  A    between atoms: C_6  and  O_7 
REMARK    6  A    between atoms: O_7  and  C_8 
REMARK    7  A    between atoms: C_13  and  C_14 
REMARK       I    between atoms: C_14  and  N_16 
REMARK    8  A    between atoms: N_16  and  C_17 
REMARK    9  A    between atoms: C_17  and  N_19 
REMARK   10  A    between atoms: C_25  and  C_26 
REMARK   11  A    between atoms: C_26  and  C_27 
REMARK   12  A    between atoms: C_27  and  O_29 
REMARK   13  A    between atoms: C_30  and  O_29 
REMARK   14  A    between atoms: C_30  and  C_32 
ROOT
ATOM      1  C   UNL d   1      26.725 -14.048  -4.140  0.00  0.00     0.177 C 
ATOM      2  S   UNL d   1      25.670 -12.771  -3.766  0.00  0.00    -0.041 SA
ENDROOT
BRANCH   1   3
ATOM      3  N   UNL d   1      26.599 -15.325  -3.549  0.00  0.00    -0.299 N 
ATOM      4  C   UNL d   1      25.527 -15.655  -2.689  0.00  0.00     0.260 C 
ATOM      5  O   UNL d   1      24.397 -15.178  -2.799  0.00  0.00    -0.267 OA
ATOM      6  H   UNL d   1      27.431 -15.888  -3.439  0.00  0.00     0.171 HD
BRANCH   4   7
ATOM      7  C   UNL d   1      25.652 -16.651  -1.574  0.00  0.00     0.065 A 
ATOM      8  C   UNL d   1      26.937 -16.724  -0.971  0.00  0.00     0.020 A 
ATOM      9  C   UNL d   1      27.206 -17.544   0.126  0.00  0.00     0.001 A 
ATOM     10  C   UNL d   1      26.188 -18.323   0.650  0.00  0.00     0.003 A 
ATOM     11  C   UNL d   1      24.944 -18.344   0.013  0.00  0.00     0.038 A 
ATOM     12  C   UNL d   1      24.671 -17.519  -1.100  0.00  0.00     0.084 A 
BRANCH  12  13
ATOM     13  O   UNL d   1      23.377 -17.534  -1.523  0.00  0.00    -0.350 OA
BRANCH  13  14
ATOM     14  C   UNL d   1      22.385 -17.351  -0.515  0.00  0.00     0.175 C 
BRANCH  14  15
ATOM     15  C   UNL d   1      21.834 -18.757  -0.242  0.00  0.00     0.027 C 
BRANCH  15  16
ATOM     16  C   UNL d   1      20.726 -19.056  -1.246  0.00  0.00     0.002 C 
BRANCH  16  17
ATOM     17  C   UNL d   1      19.376 -19.586  -0.680  0.00  0.00    -0.000 C 
BRANCH  17  18
ATOM     18  C   UNL d   1      19.231 -20.100   0.823  0.00  0.00    -0.005 C 
ATOM     19  C   UNL d   1      18.168 -21.197   0.997  0.00  0.00     0.005 C 
ENDBRANCH  17  18
ENDBRANCH  16  17
ENDBRANCH  15  16
ENDBRANCH  14  15
ENDBRANCH  13  14
ENDBRANCH  12  13
ENDBRANCH   4   7
ENDBRANCH   1   3
BRANCH   1  20
ATOM     20  N   UNL d   1      27.871 -13.845  -4.962  0.00  0.00    -0.343 N 
ATOM     21  C   UNL d   1      28.137 -14.826  -6.111  0.00  0.00     0.146 C 
ATOM     22  C   UNL d   1      28.788 -14.148  -7.243  0.00  0.00     0.142 C 
ATOM     23  N   UNL d   1      30.051 -13.587  -6.663  0.00  0.00    -0.358 N 
ATOM     24  C   UNL d   1      30.097 -12.758  -5.573  0.00  0.00     0.241 C 
ATOM     25  H   UNL d   1      30.885 -13.500  -7.220  0.00  0.00     0.162 HD
ATOM     26  O   UNL d   1      31.064 -12.017  -5.368  0.00  0.00    -0.271 OA
ATOM     27  C   UNL d   1      29.097 -13.116  -4.494  0.00  0.00     0.188 C 
BRANCH  27  28
ATOM     28  C   UNL d   1      30.073 -13.938  -3.675  0.00  0.00     0.146 C 
BRANCH  28  29
ATOM     29  C   UNL d   1      29.460 -15.153  -3.012  0.00  0.00     0.261 C 
ATOM     30  O   UNL d   1      29.603 -16.308  -3.247  0.00  0.00    -0.265 OA
BRANCH  29  31
ATOM     31  O   UNL d   1      28.698 -14.913  -1.958  0.00  0.00    -0.316 OA
BRANCH  31  32
ATOM     32  C   UNL d   1      29.120 -14.009  -0.980  0.00  0.00     0.127 C 
ATOM     33  C   UNL d   1      29.442 -14.941   0.153  0.00  0.00     0.040 C 
BRANCH  32  34
ATOM     34  C   UNL d   1      27.923 -13.105  -0.844  0.00  0.00     0.027 C 
ATOM     35  C   UNL d   1      26.906 -13.680   0.154  0.00  0.00     0.007 C 
ENDBRANCH  32  34
ENDBRANCH  31  32
ENDBRANCH  29  31
ENDBRANCH  28  29
ENDBRANCH  27  28
ENDBRANCH   1  20
TORSDOF 14
ENDMDL
MODEL 4
REMARK VINA RESULT:    -6.776      1.943      2.523
REMARK INTER + INTRA:         -14.280
REMARK INTER:                 -10.952
REMARK INTRA:                  -3.327
REMARK CONF_INDEPENDENT:        4.176
REMARK UNBOUND:                -3.327
REMARK  14 active torsions:
REMARK  status: ('A' for Active; 'I' for Inactive)
REMARK    1  A    between atoms: C_2  and  C_3 
REMARK    2  A    between atoms: C_3  and  C_4 
REMARK    3  A    between atoms: C_4  and  C_5 
REMARK    4  A    between atoms: C_5  and  C_6 
REMARK    5  A    between atoms: C_6  and  O_7 
REMARK    6  A    between atoms: O_7  and  C_8 
REMARK    7  A    between atoms: C_13  and  C_14 
REMARK       I    between atoms: C_14  and  N_16 
REMARK    8  A    between atoms: N_16  and  C_17 
REMARK    9  A    between atoms: C_17  and  N_19 
REMARK   10  A    between atoms: C_25  and  C_26 
REMARK   11  A    between atoms: C_26  and  C_27 
REMARK   12  A    between atoms: C_27  and  O_29 
REMARK   13  A    between atoms: C_30  and  O_29 
REMARK   14  A    between atoms: C_30  and  C_32 
ROOT
ATOM      1  C   UNL d   1      27.664 -12.913  -3.295  0.00  0.00     0.177 C 
ATOM      2  S   UNL d   1      28.786 -12.116  -2.302  0.00  0.00    -0.041 SA
ENDROOT
BRANCH   1   3
ATOM      3  N   UNL d   1      27.113 -14.168  -2.951  0.00  0.00    -0.299 N 
ATOM      4  C   UNL d   1      26.675 -14.463  -1.639  0.00  0.00     0.260 C 
ATOM      5  O   UNL d   1      26.202 -13.622  -0.876  0.00  0.00    -0.267 OA
ATOM      6  H   UNL d   1      27.348 -14.969  -3.519  0.00  0.00     0.171 HD
BRANCH   4   7
ATOM      7  C   UNL d   1      26.710 -15.846  -1.060  0.00  0.00     0.065 A 
ATOM      8  C   UNL d   1      27.958 -16.236  -0.501  0.00  0.00     0.020 A 
ATOM      9  C   UNL d   1      28.143 -17.460   0.143  0.00  0.00     0.001 A 
ATOM     10  C   UNL d   1      27.076 -18.336   0.242  0.00  0.00     0.003 A 
ATOM     11  C   UNL d   1      25.868 -18.019  -0.386  0.00  0.00     0.038 A 
ATOM     12  C   UNL d   1      25.680 -16.784  -1.043  0.00  0.00     0.084 A 
BRANCH  12  13
ATOM     13  O   UNL d   1      24.411 -16.551  -1.477  0.00  0.00    -0.350 OA
BRANCH  13  14
ATOM     14  C   UNL d   1      23.578 -17.699  -1.627  0.00  0.00     0.175 C 
BRANCH  14  15
ATOM     15  C   UNL d   1      22.595 -17.631  -0.451  0.00  0.00     0.027 C 
BRANCH  15  16
ATOM     16  C   UNL d   1      21.253 -18.203  -0.895  0.00  0.00     0.002 C 
BRANCH  16  17
ATOM     17  C   UNL d   1      20.896 -19.640  -0.411  0.00  0.00    -0.000 C 
BRANCH  17  18
ATOM     18  C   UNL d   1      19.589 -19.943   0.450  0.00  0.00    -0.005 C 
ATOM     19  C   UNL d   1      19.864 -20.079   1.957  0.00  0.00     0.005 C 
ENDBRANCH  17  18
ENDBRANCH  16  17
ENDBRANCH  15  16
ENDBRANCH  14  15
ENDBRANCH  13  14
ENDBRANCH  12  13
ENDBRANCH   4   7
ENDBRANCH   1   3
BRANCH   1  20
ATOM     20  N   UNL d   1      27.336 -12.416  -4.590  0.00  0.00    -0.343 N 
ATOM     21  C   UNL d   1      25.857 -12.244  -4.960  0.00  0.00     0.146 C 
ATOM     22  C   UNL d   1      25.672 -11.110  -5.879  0.00  0.00     0.142 C 
ATOM     23  N   UNL d   1      26.525 -11.450  -7.064  0.00  0.00    -0.358 N 
ATOM     24  C   UNL d   1      27.862 -11.741  -6.994  0.00  0.00     0.241 C 
ATOM     25  H   UNL d   1      26.267 -11.157  -7.992  0.00  0.00     0.162 HD
ATOM     26  O   UNL d   1      28.599 -11.626  -7.978  0.00  0.00    -0.271 OA
ATOM     27  C   UNL d   1      28.243 -12.559  -5.777  0.00  0.00     0.188 C 
BRANCH  27  28
ATOM     28  C   UNL d   1      28.181 -13.895  -6.491  0.00  0.00     0.146 C 
BRANCH  28  29
ATOM     29  C   UNL d   1      27.595 -15.017  -5.660  0.00  0.00     0.261 C 
ATOM     30  O   UNL d   1      26.464 -15.336  -5.494  0.00  0.00    -0.265 OA
BRANCH  29  31
ATOM     31  O   UNL d   1      28.468 -15.822  -5.077  0.00  0.00    -0.316 OA
BRANCH  31  32
ATOM     32  C   UNL d   1      29.838 -15.600  -5.235  0.00  0.00     0.127 C 
ATOM     33  C   UNL d   1      30.172 -16.615  -6.291  0.00  0.00     0.040 C 
BRANCH  32  34
ATOM     34  C   UNL d   1      30.360 -15.823  -3.840  0.00  0.00     0.027 C 
ATOM     35  C   UNL d   1      29.735 -17.075  -3.208  0.00  0.00     0.007 C 
ENDBRANCH  32  34
ENDBRANCH  31  32
ENDBRANCH  29  31
ENDBRANCH  28  29
ENDBRANCH  27  28
ENDBRANCH   1  20
TORSDOF 14
ENDMDL
MODEL 5
REMARK VINA RESULT:    -6.451      3.641      7.804
REMARK INTER + INTRA:         -14.290
REMARK INTER:                 -10.627
REMARK INTRA:                  -3.664
REMARK CONF_INDEPENDENT:        4.176
REMARK UNBOUND:                -3.664
REMARK  14 active torsions:
REMARK  status: ('A' for Active; 'I' for Inactive)
REMARK    1  A    between atoms: C_2  and  C_3 
REMARK    2  A    between atoms: C_3  and  C_4 
REMARK    3  A    between atoms: C_4  and  C_5 
REMARK    4  A    between atoms: C_5  and  C_6 
REMARK    5  A    between atoms: C_6  and  O_7 
REMARK    6  A    between atoms: O_7  and  C_8 
REMARK    7  A    between atoms: C_13  and  C_14 
REMARK       I    between atoms: C_14  and  N_16 
REMARK    8  A    between atoms: N_16  and  C_17 
REMARK    9  A    between atoms: C_17  and  N_19 
REMARK   10  A    between atoms: C_25  and  C_26 
REMARK   11  A    between atoms: C_26  and  C_27 
REMARK   12  A    between atoms: C_27  and  O_29 
REMARK   13  A    between atoms: C_30  and  O_29 
REMARK   14  A    between atoms: C_30  and  C_32 
ROOT
ATOM      1  C   UNL d   1      25.150 -15.859  -1.603  0.00  0.00     0.177 C 
ATOM      2  S   UNL d   1      23.657 -16.593  -1.271  0.00  0.00    -0.041 SA
ENDROOT
BRANCH   1   3
ATOM      3  N   UNL d   1      25.263 -14.729  -2.444  0.00  0.00    -0.299 N 
ATOM      4  C   UNL d   1      25.536 -14.845  -3.827  0.00  0.00     0.260 C 
ATOM      5  O   UNL d   1      25.159 -15.791  -4.517  0.00  0.00    -0.267 OA
ATOM      6  H   UNL d   1      25.506 -13.842  -2.028  0.00  0.00     0.171 HD
BRANCH   4   7
ATOM      7  C   UNL d   1      26.286 -13.800  -4.600  0.00  0.00     0.065 A 
ATOM      8  C   UNL d   1      25.832 -12.466  -4.410  0.00  0.00     0.020 A 
ATOM      9  C   UNL d   1      26.463 -11.368  -4.997  0.00  0.00     0.001 A 
ATOM     10  C   UNL d   1      27.572 -11.578  -5.798  0.00  0.00     0.003 A 
ATOM     11  C   UNL d   1      27.976 -12.886  -6.081  0.00  0.00     0.038 A 
ATOM     12  C   UNL d   1      27.337 -13.999  -5.493  0.00  0.00     0.084 A 
BRANCH  12  13
ATOM     13  O   UNL d   1      27.930 -15.199  -5.741  0.00  0.00    -0.350 OA
BRANCH  13  14
ATOM     14  C   UNL d   1      29.135 -15.159  -6.502  0.00  0.00     0.175 C 
BRANCH  14  15
ATOM     15  C   UNL d   1      30.232 -15.609  -5.528  0.00  0.00     0.027 C 
BRANCH  15  16
ATOM     16  C   UNL d   1      29.863 -16.978  -4.966  0.00  0.00     0.002 C 
BRANCH  16  17
ATOM     17  C   UNL d   1      30.851 -18.150  -5.241  0.00  0.00    -0.000 C 
BRANCH  17  18
ATOM     18  C   UNL d   1      30.411 -19.459  -6.038  0.00  0.00    -0.005 C 
ATOM     19  C   UNL d   1      30.778 -19.423  -7.530  0.00  0.00     0.005 C 
ENDBRANCH  17  18
ENDBRANCH  16  17
ENDBRANCH  15  16
ENDBRANCH  14  15
ENDBRANCH  13  14
ENDBRANCH  12  13
ENDBRANCH   4   7
ENDBRANCH   1   3
BRANCH   1  20
ATOM     20  N   UNL d   1      26.375 -16.436  -1.158  0.00  0.00    -0.343 N 
ATOM     21  C   UNL d   1      26.415 -17.111   0.219  0.00  0.00     0.146 C 
ATOM     22  C   UNL d   1      27.363 -18.235   0.228  0.00  0.00     0.142 C 
ATOM     23  N   UNL d   1      28.676 -17.617  -0.147  0.00  0.00    -0.358 N 
ATOM     24  C   UNL d   1      28.885 -16.879  -1.282  0.00  0.00     0.241 C 
ATOM     25  H   UNL d   1      29.544 -17.978   0.215  0.00  0.00     0.162 HD
ATOM     26  O   UNL d   1      30.017 -16.727  -1.753  0.00  0.00    -0.271 OA
ATOM     27  C   UNL d   1      27.720 -15.983  -1.648  0.00  0.00     0.188 C 
BRANCH  27  28
ATOM     28  C   UNL d   1      28.282 -14.749  -0.968  0.00  0.00     0.146 C 
BRANCH  28  29
ATOM     29  C   UNL d   1      27.343 -13.561  -0.960  0.00  0.00     0.261 C 
ATOM     30  O   UNL d   1      27.272 -12.637  -1.701  0.00  0.00    -0.265 OA
BRANCH  29  31
ATOM     31  O   UNL d   1      26.402 -13.575  -0.031  0.00  0.00    -0.316 OA
BRANCH  31  32
ATOM     32  C   UNL d   1      26.683 -13.114   1.257  0.00  0.00     0.127 C 
ATOM     33  C   UNL d   1      27.478 -11.877   0.950  0.00  0.00     0.040 C 
BRANCH  32  34
ATOM     34  C   UNL d   1      27.399 -14.289   1.868  0.00  0.00     0.027 C 
ATOM     35  C   UNL d   1      27.811 -13.996   3.318  0.00  0.00     0.007 C 
ENDBRANCH  32  34
ENDBRANCH  31  32
ENDBRANCH  29  31
ENDBRANCH  28  29
ENDBRANCH  27  28
ENDBRANCH   1  20
TORSDOF 14
ENDMDL
MODEL 6
REMARK VINA RESULT:    -5.938      2.466      4.874
REMARK INTER + INTRA:         -14.243
REMARK INTER:                 -10.114
REMARK INTRA:                  -4.129
REMARK CONF_INDEPENDENT:        4.176
REMARK UNBOUND:                -4.129
REMARK  14 active torsions:
REMARK  status: ('A' for Active; 'I' for Inactive)
REMARK    1  A    between atoms: C_2  and  C_3 
REMARK    2  A    between atoms: C_3  and  C_4 
REMARK    3  A    between atoms: C_4  and  C_5 
REMARK    4  A    between atoms: C_5  and  C_6 
REMARK    5  A    between atoms: C_6  and  O_7 
REMARK    6  A    between atoms: O_7  and  C_8 
REMARK    7  A    between atoms: C_13  and  C_14 
REMARK       I    between atoms: C_14  and  N_16 
REMARK    8  A    between atoms: N_16  and  C_17 
REMARK    9  A    between atoms: C_17  and  N_19 
REMARK   10  A    between atoms: C_25  and  C_26 
REMARK   11  A    between atoms: C_26  and  C_27 
REMARK   12  A    between atoms: C_27  and  O_29 
REMARK   13  A    between atoms: C_30  and  O_29 
REMARK   14  A    between atoms: C_30  and  C_32 
ROOT
ATOM      1  C   UNL d   1      27.225 -13.212  -2.868  0.00  0.00     0.177 C 
ATOM      2  S   UNL d   1      27.893 -12.320  -1.586  0.00  0.00    -0.041 SA
ENDROOT
BRANCH   1   3
ATOM      3  N   UNL d   1      26.805 -14.552  -2.714  0.00  0.00    -0.299 N 
ATOM      4  C   UNL d   1      25.469 -14.890  -2.397  0.00  0.00     0.260 C 
ATOM      5  O   UNL d   1      24.497 -14.230  -2.764  0.00  0.00    -0.267 OA
ATOM      6  H   UNL d   1      27.496 -15.248  -2.473  0.00  0.00     0.171 HD
BRANCH   4   7
ATOM      7  C   UNL d   1      25.101 -16.113  -1.611  0.00  0.00     0.065 A 
ATOM      8  C   UNL d   1      23.706 -16.327  -1.442  0.00  0.00     0.020 A 
ATOM      9  C   UNL d   1      23.192 -17.454  -0.799  0.00  0.00     0.001 A 
ATOM     10  C   UNL d   1      24.067 -18.403  -0.301  0.00  0.00     0.003 A 
ATOM     11  C   UNL d   1      25.444 -18.167  -0.366  0.00  0.00     0.038 A 
ATOM     12  C   UNL d   1      25.967 -17.025  -1.010  0.00  0.00     0.084 A 
BRANCH  12  13
ATOM     13  O   UNL d   1      27.323 -17.002  -1.127  0.00  0.00    -0.350 OA
BRANCH  13  14
ATOM     14  C   UNL d   1      28.052 -16.737   0.070  0.00  0.00     0.175 C 
BRANCH  14  15
ATOM     15  C   UNL d   1      27.366 -15.510   0.686  0.00  0.00     0.027 C 
BRANCH  15  16
ATOM     16  C   UNL d   1      28.415 -14.665   1.400  0.00  0.00     0.002 C 
BRANCH  16  17
ATOM     17  C   UNL d   1      27.940 -13.819   2.618  0.00  0.00    -0.000 C 
BRANCH  17  18
ATOM     18  C   UNL d   1      27.780 -14.448   4.075  0.00  0.00    -0.005 C 
ATOM     19  C   UNL d   1      29.119 -14.824   4.731  0.00  0.00     0.005 C 
ENDBRANCH  17  18
ENDBRANCH  16  17
ENDBRANCH  15  16
ENDBRANCH  14  15
ENDBRANCH  13  14
ENDBRANCH  12  13
ENDBRANCH   4   7
ENDBRANCH   1   3
BRANCH   1  20
ATOM     20  N   UNL d   1      27.189 -12.690  -4.193  0.00  0.00    -0.343 N 
ATOM     21  C   UNL d   1      25.836 -12.588  -4.909  0.00  0.00     0.146 C 
ATOM     22  C   UNL d   1      25.809 -11.436  -5.824  0.00  0.00     0.142 C 
ATOM     23  N   UNL d   1      26.942 -11.688  -6.772  0.00  0.00    -0.358 N 
ATOM     24  C   UNL d   1      28.238 -11.906  -6.383  0.00  0.00     0.241 C 
ATOM     25  H   UNL d   1      26.898 -11.379  -7.729  0.00  0.00     0.162 HD
ATOM     26  O   UNL d   1      29.182 -11.717  -7.157  0.00  0.00    -0.271 OA
ATOM     27  C   UNL d   1      28.364 -12.742  -5.127  0.00  0.00     0.188 C 
BRANCH  27  28
ATOM     28  C   UNL d   1      28.560 -14.055  -5.859  0.00  0.00     0.146 C 
BRANCH  28  29
ATOM     29  C   UNL d   1      27.695 -15.187  -5.348  0.00  0.00     0.261 C 
ATOM     30  O   UNL d   1      26.619 -15.548  -5.697  0.00  0.00    -0.265 OA
BRANCH  29  31
ATOM     31  O   UNL d   1      28.236 -15.950  -4.412  0.00  0.00    -0.316 OA
BRANCH  31  32
ATOM     32  C   UNL d   1      29.621 -15.957  -4.230  0.00  0.00     0.127 C 
ATOM     33  C   UNL d   1      30.030 -17.045  -5.181  0.00  0.00     0.040 C 
BRANCH  32  34
ATOM     34  C   UNL d   1      29.746 -16.217  -2.752  0.00  0.00     0.027 C 
ATOM     35  C   UNL d   1      30.192 -14.953  -2.002  0.00  0.00     0.007 C 
ENDBRANCH  32  34
ENDBRANCH  31  32
ENDBRANCH  29  31
ENDBRANCH  28  29
ENDBRANCH  27  28
ENDBRANCH   1  20
TORSDOF 14
ENDMDL
MODEL 7
REMARK VINA RESULT:    -5.742      2.819      5.001
REMARK INTER + INTRA:         -14.170
REMARK INTER:                  -9.919
REMARK INTRA:                  -4.251
REMARK CONF_INDEPENDENT:        4.176
REMARK UNBOUND:                -4.251
REMARK  14 active torsions:
REMARK  status: ('A' for Active; 'I' for Inactive)
REMARK    1  A    between atoms: C_2  and  C_3 
REMARK    2  A    between atoms: C_3  and  C_4 
REMARK    3  A    between atoms: C_4  and  C_5 
REMARK    4  A    between atoms: C_5  and  C_6 
REMARK    5  A    between atoms: C_6  and  O_7 
REMARK    6  A    between atoms: O_7  and  C_8 
REMARK    7  A    between atoms: C_13  and  C_14 
REMARK       I    between atoms: C_14  and  N_16 
REMARK    8  A    between atoms: N_16  and  C_17 
REMARK    9  A    between atoms: C_17  and  N_19 
REMARK   10  A    between atoms: C_25  and  C_26 
REMARK   11  A    between atoms: C_26  and  C_27 
REMARK   12  A    between atoms: C_27  and  O_29 
REMARK   13  A    between atoms: C_30  and  O_29 
REMARK   14  A    between atoms: C_30  and  C_32 
ROOT
ATOM      1  C   UNL d   1      29.318 -12.328  -3.761  0.00  0.00     0.177 C 
ATOM      2  S   UNL d   1      30.551 -11.189  -3.506  0.00  0.00    -0.041 SA
ENDROOT
BRANCH   1   3
ATOM      3  N   UNL d   1      28.344 -12.615  -2.779  0.00  0.00    -0.299 N 
ATOM      4  C   UNL d   1      28.175 -11.810  -1.628  0.00  0.00     0.260 C 
ATOM      5  O   UNL d   1      28.378 -10.597  -1.613  0.00  0.00    -0.267 OA
ATOM      6  H   UNL d   1      28.011 -13.565  -2.695  0.00  0.00     0.171 HD
BRANCH   4   7
ATOM      7  C   UNL d   1      27.693 -12.355  -0.316  0.00  0.00     0.065 A 
ATOM      8  C   UNL d   1      27.525 -11.389   0.713  0.00  0.00     0.020 A 
ATOM      9  C   UNL d   1      27.016 -11.714   1.972  0.00  0.00     0.001 A 
ATOM     10  C   UNL d   1      26.661 -13.026   2.236  0.00  0.00     0.003 A 
ATOM     11  C   UNL d   1      26.910 -14.011   1.275  0.00  0.00     0.038 A 
ATOM     12  C   UNL d   1      27.430 -13.686   0.003  0.00  0.00     0.084 A 
BRANCH  12  13
ATOM     13  O   UNL d   1      27.480 -14.721  -0.879  0.00  0.00    -0.350 OA
BRANCH  13  14
ATOM     14  C   UNL d   1      28.375 -15.782  -0.552  0.00  0.00     0.175 C 
BRANCH  14  15
ATOM     15  C   UNL d   1      27.593 -17.066  -0.858  0.00  0.00     0.027 C 
BRANCH  15  16
ATOM     16  C   UNL d   1      26.547 -17.278   0.232  0.00  0.00     0.002 C 
BRANCH  16  17
ATOM     17  C   UNL d   1      25.425 -18.320  -0.051  0.00  0.00    -0.000 C 
BRANCH  17  18
ATOM     18  C   UNL d   1      23.883 -17.989   0.185  0.00  0.00    -0.005 C 
ATOM     19  C   UNL d   1      22.957 -18.576  -0.894  0.00  0.00     0.005 C 
ENDBRANCH  17  18
ENDBRANCH  16  17
ENDBRANCH  15  16
ENDBRANCH  14  15
ENDBRANCH  13  14
ENDBRANCH  12  13
ENDBRANCH   4   7
ENDBRANCH   1   3
BRANCH   1  20
ATOM     20  N   UNL d   1      29.295 -13.146  -4.928  0.00  0.00    -0.343 N 
ATOM     21  C   UNL d   1      28.318 -12.793  -6.057  0.00  0.00     0.146 C 
ATOM     22  C   UNL d   1      28.875 -13.156  -7.369  0.00  0.00     0.142 C 
ATOM     23  N   UNL d   1      29.130 -14.629  -7.270  0.00  0.00    -0.358 N 
ATOM     24  C   UNL d   1      29.893 -15.216  -6.294  0.00  0.00     0.241 C 
ATOM     25  H   UNL d   1      29.053 -15.226  -8.077  0.00  0.00     0.162 HD
ATOM     26  O   UNL d   1      30.400 -16.331  -6.456  0.00  0.00    -0.271 OA
ATOM     27  C   UNL d   1      29.725 -14.585  -4.928  0.00  0.00     0.188 C 
BRANCH  27  28
ATOM     28  C   UNL d   1      28.684 -15.578  -4.450  0.00  0.00     0.146 C 
BRANCH  28  29
ATOM     29  C   UNL d   1      27.258 -15.198  -4.790  0.00  0.00     0.261 C 
ATOM     30  O   UNL d   1      26.622 -15.413  -5.768  0.00  0.00    -0.265 OA
BRANCH  29  31
ATOM     31  O   UNL d   1      26.577 -14.593  -3.831  0.00  0.00    -0.316 OA
BRANCH  31  32
ATOM     32  C   UNL d   1      25.276 -14.145  -4.073  0.00  0.00     0.127 C 
ATOM     33  C   UNL d   1      25.530 -12.707  -4.425  0.00  0.00     0.040 C 
BRANCH  32  34
ATOM     34  C   UNL d   1      24.587 -14.450  -2.769  0.00  0.00     0.027 C 
ATOM     35  C   UNL d   1      24.836 -15.903  -2.337  0.00  0.00     0.007 C 
ENDBRANCH  32  34
ENDBRANCH  31  32
ENDBRANCH  29  31
ENDBRANCH  28  29
ENDBRANCH  27  28
ENDBRANCH   1  20
TORSDOF 14
ENDMDL
MODEL 8
REMARK VINA RESULT:    -5.317      3.539      6.973
REMARK INTER + INTRA:         -14.048
REMARK INTER:                  -9.494
REMARK INTRA:                  -4.554
REMARK CONF_INDEPENDENT:        4.176
REMARK UNBOUND:                -4.554
REMARK  14 active torsions:
REMARK  status: ('A' for Active; 'I' for Inactive)
REMARK    1  A    between atoms: C_2  and  C_3 
REMARK    2  A    between atoms: C_3  and  C_4 
REMARK    3  A    between atoms: C_4  and  C_5 
REMARK    4  A    between atoms: C_5  and  C_6 
REMARK    5  A    between atoms: C_6  and  O_7 
REMARK    6  A    between atoms: O_7  and  C_8 
REMARK    7  A    between atoms: C_13  and  C_14 
REMARK       I    between atoms: C_14  and  N_16 
REMARK    8  A    between atoms: N_16  and  C_17 
REMARK    9  A    between atoms: C_17  and  N_19 
REMARK   10  A    between atoms: C_25  and  C_26 
REMARK   11  A    between atoms: C_26  and  C_27 
REMARK   12  A    between atoms: C_27  and  O_29 
REMARK   13  A    between atoms: C_30  and  O_29 
REMARK   14  A    between atoms: C_30  and  C_32 
ROOT
ATOM      1  C   UNL d   1      27.731 -12.403  -1.568  0.00  0.00     0.177 C 
ATOM      2  S   UNL d   1      28.969 -11.275  -1.839  0.00  0.00    -0.041 SA
ENDROOT
BRANCH   1   3
ATOM      3  N   UNL d   1      27.596 -13.093  -0.342  0.00  0.00    -0.299 N 
ATOM      4  C   UNL d   1      27.389 -12.418   0.883  0.00  0.00     0.260 C 
ATOM      5  O   UNL d   1      26.771 -11.357   0.978  0.00  0.00    -0.267 OA
ATOM      6  H   UNL d   1      27.994 -14.018  -0.264  0.00  0.00     0.171 HD
BRANCH   4   7
ATOM      7  C   UNL d   1      27.874 -12.949   2.199  0.00  0.00     0.065 A 
ATOM      8  C   UNL d   1      27.474 -12.198   3.338  0.00  0.00     0.020 A 
ATOM      9  C   UNL d   1      27.778 -12.594   4.642  0.00  0.00     0.001 A 
ATOM     10  C   UNL d   1      28.498 -13.759   4.842  0.00  0.00     0.003 A 
ATOM     11  C   UNL d   1      28.988 -14.460   3.736  0.00  0.00     0.038 A 
ATOM     12  C   UNL d   1      28.687 -14.060   2.417  0.00  0.00     0.084 A 
BRANCH  12  13
ATOM     13  O   UNL d   1      29.104 -14.919   1.446  0.00  0.00    -0.350 OA
BRANCH  13  14
ATOM     14  C   UNL d   1      30.357 -14.617   0.836  0.00  0.00     0.175 C 
BRANCH  14  15
ATOM     15  C   UNL d   1      30.232 -15.138  -0.602  0.00  0.00     0.027 C 
BRANCH  15  16
ATOM     16  C   UNL d   1      29.219 -16.277  -0.627  0.00  0.00     0.002 C 
BRANCH  16  17
ATOM     17  C   UNL d   1      28.671 -16.712  -2.018  0.00  0.00    -0.000 C 
BRANCH  17  18
ATOM     18  C   UNL d   1      29.545 -16.594  -3.347  0.00  0.00    -0.005 C 
ATOM     19  C   UNL d   1      29.340 -15.270  -4.102  0.00  0.00     0.005 C 
ENDBRANCH  17  18
ENDBRANCH  16  17
ENDBRANCH  15  16
ENDBRANCH  14  15
ENDBRANCH  13  14
ENDBRANCH  12  13
ENDBRANCH   4   7
ENDBRANCH   1   3
BRANCH   1  20
ATOM     20  N   UNL d   1      26.854 -12.808  -2.616  0.00  0.00    -0.343 N 
ATOM     21  C   UNL d   1      25.839 -11.795  -3.160  0.00  0.00     0.146 C 
ATOM     22  C   UNL d   1      25.584 -12.020  -4.591  0.00  0.00     0.142 C 
ATOM     23  N   UNL d   1      25.082 -13.431  -4.662  0.00  0.00    -0.358 N 
ATOM     24  C   UNL d   1      25.756 -14.515  -4.163  0.00  0.00     0.241 C 
ATOM     25  H   UNL d   1      24.413 -13.711  -5.360  0.00  0.00     0.162 HD
ATOM     26  O   UNL d   1      25.528 -15.658  -4.570  0.00  0.00    -0.271 OA
ATOM     27  C   UNL d   1      26.467 -14.239  -2.854  0.00  0.00     0.188 C 
BRANCH  27  28
ATOM     28  C   UNL d   1      25.347 -14.768  -1.980  0.00  0.00     0.146 C 
BRANCH  28  29
ATOM     29  C   UNL d   1      25.808 -15.686  -0.867  0.00  0.00     0.261 C 
ATOM     30  O   UNL d   1      26.415 -15.443   0.123  0.00  0.00    -0.265 OA
BRANCH  29  31
ATOM     31  O   UNL d   1      25.420 -16.947  -0.960  0.00  0.00    -0.316 OA
BRANCH  31  32
ATOM     32  C   UNL d   1      25.276 -17.722   0.193  0.00  0.00     0.127 C 
ATOM     33  C   UNL d   1      26.612 -18.406   0.247  0.00  0.00     0.040 C 
BRANCH  32  34
ATOM     34  C   UNL d   1      24.061 -18.551  -0.130  0.00  0.00     0.027 C 
ATOM     35  C   UNL d   1      23.017 -17.729  -0.898  0.00  0.00     0.007 C 
ENDBRANCH  32  34
ENDBRANCH  31  32
ENDBRANCH  29  31
ENDBRANCH  28  29
ENDBRANCH  27  28
ENDBRANCH   1  20
TORSDOF 14
ENDMDL
MODEL 9
REMARK VINA RESULT:    -5.160      2.776      6.149
REMARK INTER + INTRA:         -14.338
REMARK INTER:                  -9.336
REMARK INTRA:                  -5.002
REMARK CONF_INDEPENDENT:        4.176
REMARK UNBOUND:                -5.002
REMARK  14 active torsions:
REMARK  status: ('A' for Active; 'I' for Inactive)
REMARK    1  A    between atoms: C_2  and  C_3 
REMARK    2  A    between atoms: C_3  and  C_4 
REMARK    3  A    between atoms: C_4  and  C_5 
REMARK    4  A    between atoms: C_5  and  C_6 
REMARK    5  A    between atoms: C_6  and  O_7 
REMARK    6  A    between atoms: O_7  and  C_8 
REMARK    7  A    between atoms: C_13  and  C_14 
REMARK       I    between atoms: C_14  and  N_16 
REMARK    8  A    between atoms: N_16  and  C_17 
REMARK    9  A    between atoms: C_17  and  N_19 
REMARK   10  A    between atoms: C_25  and  C_26 
REMARK   11  A    between atoms: C_26  and  C_27 
REMARK   12  A    between atoms: C_27  and  O_29 
REMARK   13  A    between atoms: C_30  and  O_29 
REMARK   14  A    between atoms: C_30  and  C_32 
ROOT
ATOM      1  C   UNL d   1      29.201 -16.873  -1.596  0.00  0.00     0.177 C 
ATOM      2  S   UNL d   1      30.368 -17.563  -0.575  0.00  0.00    -0.041 SA
ENDROOT
BRANCH   1   3
ATOM      3  N   UNL d   1      27.925 -16.487  -1.129  0.00  0.00    -0.299 N 
ATOM      4  C   UNL d   1      27.033 -17.407  -0.530  0.00  0.00     0.260 C 
ATOM      5  O   UNL d   1      27.402 -18.374   0.137  0.00  0.00    -0.267 OA
ATOM      6  H   UNL d   1      27.495 -15.665  -1.527  0.00  0.00     0.171 HD
BRANCH   4   7
ATOM      7  C   UNL d   1      25.542 -17.272  -0.617  0.00  0.00     0.065 A 
ATOM      8  C   UNL d   1      24.804 -18.233   0.127  0.00  0.00     0.020 A 
ATOM      9  C   UNL d   1      23.411 -18.206   0.213  0.00  0.00     0.001 A 
ATOM     10  C   UNL d   1      22.714 -17.211  -0.451  0.00  0.00     0.003 A 
ATOM     11  C   UNL d   1      23.410 -16.316  -1.269  0.00  0.00     0.038 A 
ATOM     12  C   UNL d   1      24.818 -16.344  -1.363  0.00  0.00     0.084 A 
BRANCH  12  13
ATOM     13  O   UNL d   1      25.367 -15.323  -2.076  0.00  0.00    -0.350 OA
BRANCH  13  14
ATOM     14  C   UNL d   1      25.719 -15.618  -3.426  0.00  0.00     0.175 C 
BRANCH  14  15
ATOM     15  C   UNL d   1      25.155 -14.450  -4.246  0.00  0.00     0.027 C 
BRANCH  15  16
ATOM     16  C   UNL d   1      25.366 -13.155  -3.468  0.00  0.00     0.002 C 
BRANCH  16  17
ATOM     17  C   UNL d   1      25.933 -11.936  -4.255  0.00  0.00    -0.000 C 
BRANCH  17  18
ATOM     18  C   UNL d   1      26.815 -12.114  -5.571  0.00  0.00    -0.005 C 
ATOM     19  C   UNL d   1      27.025 -10.806  -6.351  0.00  0.00     0.005 C 
ENDBRANCH  17  18
ENDBRANCH  16  17
ENDBRANCH  15  16
ENDBRANCH  14  15
ENDBRANCH  13  14
ENDBRANCH  12  13
ENDBRANCH   4   7
ENDBRANCH   1   3
BRANCH   1  20
ATOM     20  N   UNL d   1      29.410 -16.781  -3.003  0.00  0.00    -0.343 N 
ATOM     21  C   UNL d   1      30.679 -17.399  -3.603  0.00  0.00     0.146 C 
ATOM     22  C   UNL d   1      30.430 -17.901  -4.962  0.00  0.00     0.142 C 
ATOM     23  N   UNL d   1      29.963 -16.697  -5.723  0.00  0.00    -0.358 N 
ATOM     24  C   UNL d   1      28.906 -15.910  -5.348  0.00  0.00     0.241 C 
ATOM     25  H   UNL d   1      30.161 -16.593  -6.705  0.00  0.00     0.162 HD
ATOM     26  O   UNL d   1      28.312 -15.198  -6.164  0.00  0.00    -0.271 OA
ATOM     27  C   UNL d   1      28.805 -15.700  -3.852  0.00  0.00     0.188 C 
BRANCH  27  28
ATOM     28  C   UNL d   1      29.547 -14.377  -3.854  0.00  0.00     0.146 C 
BRANCH  28  29
ATOM     29  C   UNL d   1      28.916 -13.310  -2.984  0.00  0.00     0.261 C 
ATOM     30  O   UNL d   1      28.990 -12.127  -3.050  0.00  0.00    -0.265 OA
BRANCH  29  31
ATOM     31  O   UNL d   1      28.094 -13.742  -2.043  0.00  0.00    -0.316 OA
BRANCH  31  32
ATOM     32  C   UNL d   1      28.128 -13.171  -0.768  0.00  0.00     0.127 C 
ATOM     33  C   UNL d   1      29.424 -13.719  -0.243  0.00  0.00     0.040 C 
BRANCH  32  34
ATOM     34  C   UNL d   1      26.844 -13.671  -0.161  0.00  0.00     0.027 C 
ATOM     35  C   UNL d   1      27.030 -14.019   1.323  0.00  0.00     0.007 C 
ENDBRANCH  32  34
ENDBRANCH  31  32
ENDBRANCH  29  31
ENDBRANCH  28  29
ENDBRANCH  27  28
ENDBRANCH   1  20
TORSDOF 14
ENDMDL
