MODEL 1
REMARK VINA RESULT:    -7.505      0.000      0.000
REMARK INTER + INTRA:          -9.962
REMARK INTER:                  -8.698
REMARK INTRA:                  -1.264
REMARK CONF_INDEPENDENT:        1.193
REMARK UNBOUND:                -1.264
REMARK  4 active torsions:
REMARK  status: ('A' for Active; 'I' for Inactive)
REMARK    1  A    between atoms: C_3  and  C_4 
REMARK    2  A    between atoms: C_5  and  C_6 
REMARK       I    between atoms: C_6  and  N_8 
REMARK    3  A    between atoms: N_8  and  N_9 
REMARK       I    between atoms: N_9  and  C_10 
REMARK    4  A    between atoms: C_10  and  C_12 
ROOT
ATOM      1  N   UNL d   1      22.043 -18.915  -0.179  0.00  0.00    -0.263 N 
ATOM      2  C   UNL d   1      20.677 -18.781  -0.442  0.00  0.00     0.277 C 
ATOM      3  O   UNL d   1      20.284 -17.948  -1.270  0.00  0.00    -0.265 OA
ATOM      4  H   UNL d   1      22.417 -19.657   0.407  0.00  0.00     0.190 HD
ENDROOT
BRANCH   1   5
ATOM      5  N   UNL d   1      23.019 -18.093  -0.841  0.00  0.00    -0.264 N 
ATOM      6  C   UNL d   1      24.293 -17.983  -0.295  0.00  0.00     0.259 C 
ATOM      7  O   UNL d   1      24.619 -18.573   0.735  0.00  0.00    -0.267 OA
ATOM      8  H   UNL d   1      22.706 -17.620  -1.686  0.00  0.00     0.190 HD
BRANCH   6   9
ATOM      9  C   UNL d   1      25.257 -17.096  -1.039  0.00  0.00     0.075 C 
ATOM     10  C   UNL d   1      24.878 -16.383  -2.125  0.00  0.00     0.005 C 
BRANCH  10  11
ATOM     11  C   UNL d   1      25.757 -15.504  -2.892  0.00  0.00    -0.004 C 
ATOM     12  C   UNL d   1      25.337 -14.441  -3.603  0.00  0.00    -0.031 C 
ATOM     13  C   UNL d   1      26.256 -13.546  -4.387  0.00  0.00     0.036 C 
ENDBRANCH  10  11
ENDBRANCH   6   9
ENDBRANCH   1   5
BRANCH   2  14
ATOM     14  C   UNL d   1      19.770 -19.657   0.322  0.00  0.00     0.080 A 
ATOM     15  S   UNL d   1      18.464 -20.449  -0.482  0.00  0.00    -0.096 SA
ATOM     16  C   UNL d   1      17.893 -21.177   0.959  0.00  0.00     0.051 A 
ATOM     17  C   UNL d   1      18.652 -20.806   2.044  0.00  0.00     0.015 A 
ATOM     18  C   UNL d   1      19.733 -19.927   1.689  0.00  0.00    -0.039 A 
ATOM     19  C   UNL d   1      20.655 -19.337   2.697  0.00  0.00     0.050 C 
ENDBRANCH   2  14
TORSDOF 4
ENDMDL
MODEL 2
REMARK VINA RESULT:    -6.974      2.929      7.929
REMARK INTER + INTRA:          -8.967
REMARK INTER:                  -8.167
REMARK INTRA:                  -0.800
REMARK CONF_INDEPENDENT:        1.193
REMARK UNBOUND:                -0.800
REMARK  4 active torsions:
REMARK  status: ('A' for Active; 'I' for Inactive)
REMARK    1  A    between atoms: C_3  and  C_4 
REMARK    2  A    between atoms: C_5  and  C_6 
REMARK       I    between atoms: C_6  and  N_8 
REMARK    3  A    between atoms: N_8  and  N_9 
REMARK       I    between atoms: N_9  and  C_10 
REMARK    4  A    between atoms: C_10  and  C_12 
ROOT
ATOM      1  N   UNL d   1      24.875 -18.059  -0.311  0.00  0.00    -0.263 N 
ATOM      2  C   UNL d   1      24.849 -16.833  -0.982  0.00  0.00     0.277 C 
ATOM      3  O   UNL d   1      23.773 -16.246  -1.156  0.00  0.00    -0.265 OA
ATOM      4  H   UNL d   1      25.743 -18.521  -0.050  0.00  0.00     0.190 HD
ENDROOT
BRANCH   1   5
ATOM      5  N   UNL d   1      23.672 -18.674   0.177  0.00  0.00    -0.264 N 
ATOM      6  C   UNL d   1      22.697 -19.070  -0.732  0.00  0.00     0.259 C 
ATOM      7  O   UNL d   1      22.831 -18.918  -1.946  0.00  0.00    -0.267 OA
ATOM      8  H   UNL d   1      23.600 -18.775   1.188  0.00  0.00     0.190 HD
BRANCH   6   9
ATOM      9  C   UNL d   1      21.459 -19.697  -0.143  0.00  0.00     0.075 C 
ATOM     10  C   UNL d   1      20.233 -19.490  -0.673  0.00  0.00     0.005 C 
BRANCH  10  11
ATOM     11  C   UNL d   1      18.994 -20.065  -0.156  0.00  0.00    -0.004 C 
ATOM     12  C   UNL d   1      18.935 -21.001   0.811  0.00  0.00    -0.031 C 
ATOM     13  C   UNL d   1      17.650 -21.582   1.332  0.00  0.00     0.036 C 
ENDBRANCH  10  11
ENDBRANCH   6   9
ENDBRANCH   1   5
BRANCH   2  14
ATOM     14  C   UNL d   1      26.143 -16.318  -1.466  0.00  0.00     0.080 A 
ATOM     15  S   UNL d   1      27.589 -16.686  -0.598  0.00  0.00    -0.096 SA
ATOM     16  C   UNL d   1      28.572 -15.772  -1.663  0.00  0.00     0.051 A 
ATOM     17  C   UNL d   1      27.822 -15.166  -2.643  0.00  0.00     0.015 A 
ATOM     18  C   UNL d   1      26.421 -15.471  -2.537  0.00  0.00    -0.039 A 
ATOM     19  C   UNL d   1      25.398 -14.883  -3.443  0.00  0.00     0.050 C 
ENDBRANCH   2  14
TORSDOF 4
ENDMDL
MODEL 3
REMARK VINA RESULT:    -6.917      3.597      8.697
REMARK INTER + INTRA:          -9.545
REMARK INTER:                  -8.110
REMARK INTRA:                  -1.435
REMARK CONF_INDEPENDENT:        1.193
REMARK UNBOUND:                -1.435
REMARK  4 active torsions:
REMARK  status: ('A' for Active; 'I' for Inactive)
REMARK    1  A    between atoms: C_3  and  C_4 
REMARK    2  A    between atoms: C_5  and  C_6 
REMARK       I    between atoms: C_6  and  N_8 
REMARK    3  A    between atoms: N_8  and  N_9 
REMARK       I    between atoms: N_9  and  C_10 
REMARK    4  A    between atoms: C_10  and  C_12 
ROOT
ATOM      1  N   UNL d   1      25.433 -15.528  -2.867  0.00  0.00    -0.263 N 
ATOM      2  C   UNL d   1      25.155 -14.516  -3.790  0.00  0.00     0.277 C 
ATOM      3  O   UNL d   1      24.003 -14.074  -3.894  0.00  0.00    -0.265 OA
ATOM      4  H   UNL d   1      26.380 -15.843  -2.670  0.00  0.00     0.190 HD
ENDROOT
BRANCH   1   5
ATOM      5  N   UNL d   1      24.405 -16.088  -2.033  0.00  0.00    -0.264 N 
ATOM      6  C   UNL d   1      24.731 -17.116  -1.155  0.00  0.00     0.259 C 
ATOM      7  O   UNL d   1      25.876 -17.561  -1.061  0.00  0.00    -0.267 OA
ATOM      8  H   UNL d   1      23.474 -15.694  -2.147  0.00  0.00     0.190 HD
BRANCH   6   9
ATOM      9  C   UNL d   1      23.598 -17.659  -0.322  0.00  0.00     0.075 C 
ATOM     10  C   UNL d   1      22.628 -18.434  -0.856  0.00  0.00     0.005 C 
BRANCH  10  11
ATOM     11  C   UNL d   1      21.503 -18.993  -0.110  0.00  0.00    -0.004 C 
ATOM     12  C   UNL d   1      20.318 -19.325  -0.655  0.00  0.00    -0.031 C 
ATOM     13  C   UNL d   1      19.171 -19.900   0.128  0.00  0.00     0.036 C 
ENDBRANCH  10  11
ENDBRANCH   6   9
ENDBRANCH   1   5
BRANCH   2  14
ATOM     14  C   UNL d   1      26.284 -14.045  -4.612  0.00  0.00     0.080 A 
ATOM     15  S   UNL d   1      27.425 -15.182  -5.233  0.00  0.00    -0.096 SA
ATOM     16  C   UNL d   1      28.375 -13.966  -5.976  0.00  0.00     0.051 A 
ATOM     17  C   UNL d   1      27.864 -12.713  -5.734  0.00  0.00     0.015 A 
ATOM     18  C   UNL d   1      26.662 -12.746  -4.946  0.00  0.00    -0.039 A 
ATOM     19  C   UNL d   1      25.958 -11.514  -4.499  0.00  0.00     0.050 C 
ENDBRANCH   2  14
TORSDOF 4
ENDMDL
MODEL 4
REMARK VINA RESULT:    -6.814      3.576      8.354
REMARK INTER + INTRA:          -9.343
REMARK INTER:                  -8.007
REMARK INTRA:                  -1.336
REMARK CONF_INDEPENDENT:        1.193
REMARK UNBOUND:                -1.336
REMARK  4 active torsions:
REMARK  status: ('A' for Active; 'I' for Inactive)
REMARK    1  A    between atoms: C_3  and  C_4 
REMARK    2  A    between atoms: C_5  and  C_6 
REMARK       I    between atoms: C_6  and  N_8 
REMARK    3  A    between atoms: N_8  and  N_9 
REMARK       I    between atoms: N_9  and  C_10 
REMARK    4  A    between atoms: C_10  and  C_12 
ROOT
ATOM      1  N   UNL d   1      25.324 -16.510  -2.262  0.00  0.00    -0.263 N 
ATOM      2  C   UNL d   1      25.495 -15.438  -3.144  0.00  0.00     0.277 C 
ATOM      3  O   UNL d   1      24.533 -14.712  -3.429  0.00  0.00    -0.265 OA
ATOM      4  H   UNL d   1      26.105 -17.062  -1.916  0.00  0.00     0.190 HD
ENDROOT
BRANCH   1   5
ATOM      5  N   UNL d   1      24.045 -16.805  -1.678  0.00  0.00    -0.264 N 
ATOM      6  C   UNL d   1      23.935 -17.874  -0.795  0.00  0.00     0.259 C 
ATOM      7  O   UNL d   1      24.900 -18.575  -0.490  0.00  0.00    -0.267 OA
ATOM      8  H   UNL d   1      23.274 -16.204  -1.962  0.00  0.00     0.190 HD
BRANCH   6   9
ATOM      9  C   UNL d   1      22.560 -18.128  -0.232  0.00  0.00     0.075 C 
ATOM     10  C   UNL d   1      21.679 -18.950  -0.845  0.00  0.00     0.005 C 
BRANCH  10  11
ATOM     11  C   UNL d   1      20.333 -19.241  -0.357  0.00  0.00    -0.004 C 
ATOM     12  C   UNL d   1      19.972 -20.398   0.232  0.00  0.00    -0.031 C 
ATOM     13  C   UNL d   1      18.582 -20.681   0.730  0.00  0.00     0.036 C 
ENDBRANCH  10  11
ENDBRANCH   6   9
ENDBRANCH   1   5
BRANCH   2  14
ATOM     14  C   UNL d   1      26.846 -15.255  -3.705  0.00  0.00     0.080 A 
ATOM     15  S   UNL d   1      27.035 -14.895  -5.382  0.00  0.00    -0.096 SA
ATOM     16  C   UNL d   1      28.745 -14.879  -5.283  0.00  0.00     0.051 A 
ATOM     17  C   UNL d   1      29.176 -15.174  -4.011  0.00  0.00     0.015 A 
ATOM     18  C   UNL d   1      28.091 -15.396  -3.095  0.00  0.00    -0.039 A 
ATOM     19  C   UNL d   1      28.303 -15.794  -1.677  0.00  0.00     0.050 C 
ENDBRANCH   2  14
TORSDOF 4
ENDMDL
MODEL 5
REMARK VINA RESULT:    -6.565      3.127      8.118
REMARK INTER + INTRA:          -9.099
REMARK INTER:                  -7.758
REMARK INTRA:                  -1.341
REMARK CONF_INDEPENDENT:        1.193
REMARK UNBOUND:                -1.341
REMARK  4 active torsions:
REMARK  status: ('A' for Active; 'I' for Inactive)
REMARK    1  A    between atoms: C_3  and  C_4 
REMARK    2  A    between atoms: C_5  and  C_6 
REMARK       I    between atoms: C_6  and  N_8 
REMARK    3  A    between atoms: N_8  and  N_9 
REMARK       I    between atoms: N_9  and  C_10 
REMARK    4  A    between atoms: C_10  and  C_12 
ROOT
ATOM      1  N   UNL d   1      24.595 -17.191  -0.309  0.00  0.00    -0.263 N 
ATOM      2  C   UNL d   1      25.951 -17.441  -0.084  0.00  0.00     0.277 C 
ATOM      3  O   UNL d   1      26.318 -18.555   0.313  0.00  0.00    -0.265 OA
ATOM      4  H   UNL d   1      24.261 -16.332  -0.738  0.00  0.00     0.190 HD
ENDROOT
BRANCH   1   5
ATOM      5  N   UNL d   1      23.597 -18.199  -0.077  0.00  0.00    -0.264 N 
ATOM      6  C   UNL d   1      22.273 -17.928  -0.405  0.00  0.00     0.259 C 
ATOM      7  O   UNL d   1      21.924 -16.854  -0.894  0.00  0.00    -0.267 OA
ATOM      8  H   UNL d   1      23.928 -19.070   0.333  0.00  0.00     0.190 HD
BRANCH   6   9
ATOM      9  C   UNL d   1      21.284 -19.030  -0.123  0.00  0.00     0.075 C 
ATOM     10  C   UNL d   1      20.050 -19.040  -0.677  0.00  0.00     0.005 C 
BRANCH  10  11
ATOM     11  C   UNL d   1      19.044 -20.075  -0.450  0.00  0.00    -0.004 C 
ATOM     12  C   UNL d   1      18.695 -20.543   0.764  0.00  0.00    -0.031 C 
ATOM     13  C   UNL d   1      17.656 -21.607   0.980  0.00  0.00     0.036 C 
ENDBRANCH  10  11
ENDBRANCH   6   9
ENDBRANCH   1   5
BRANCH   2  14
ATOM     14  C   UNL d   1      26.877 -16.319  -0.325  0.00  0.00     0.080 A 
ATOM     15  S   UNL d   1      27.812 -15.684   0.979  0.00  0.00    -0.096 SA
ATOM     16  C   UNL d   1      28.536 -14.481  -0.000  0.00  0.00     0.051 A 
ATOM     17  C   UNL d   1      28.058 -14.528  -1.289  0.00  0.00     0.015 A 
ATOM     18  C   UNL d   1      27.099 -15.581  -1.486  0.00  0.00    -0.039 A 
ATOM     19  C   UNL d   1      26.392 -15.793  -2.777  0.00  0.00     0.050 C 
ENDBRANCH   2  14
TORSDOF 4
ENDMDL
MODEL 6
REMARK VINA RESULT:    -6.364      4.028      9.073
REMARK INTER + INTRA:          -8.925
REMARK INTER:                  -7.557
REMARK INTRA:                  -1.368
REMARK CONF_INDEPENDENT:        1.193
REMARK UNBOUND:                -1.368
REMARK  4 active torsions:
REMARK  status: ('A' for Active; 'I' for Inactive)
REMARK    1  A    between atoms: C_3  and  C_4 
REMARK    2  A    between atoms: C_5  and  C_6 
REMARK       I    between atoms: C_6  and  N_8 
REMARK    3  A    between atoms: N_8  and  N_9 
REMARK       I    between atoms: N_9  and  C_10 
REMARK    4  A    between atoms: C_10  and  C_12 
ROOT
ATOM      1  N   UNL d   1      25.904 -15.313  -3.231  0.00  0.00    -0.263 N 
ATOM      2  C   UNL d   1      26.056 -15.145  -4.610  0.00  0.00     0.277 C 
ATOM      3  O   UNL d   1      25.531 -15.948  -5.394  0.00  0.00    -0.265 OA
ATOM      4  H   UNL d   1      26.223 -14.621  -2.558  0.00  0.00     0.190 HD
ENDROOT
BRANCH   1   5
ATOM      5  N   UNL d   1      25.155 -16.413  -2.686  0.00  0.00    -0.264 N 
ATOM      6  C   UNL d   1      24.963 -16.485  -1.311  0.00  0.00     0.259 C 
ATOM      7  O   UNL d   1      25.408 -15.634  -0.540  0.00  0.00    -0.267 OA
ATOM      8  H   UNL d   1      24.811 -17.095  -3.358  0.00  0.00     0.190 HD
BRANCH   6   9
ATOM      9  C   UNL d   1      24.178 -17.672  -0.815  0.00  0.00     0.075 C 
ATOM     10  C   UNL d   1      22.826 -17.690  -0.831  0.00  0.00     0.005 C 
BRANCH  10  11
ATOM     11  C   UNL d   1      22.002 -18.804  -0.368  0.00  0.00    -0.004 C 
ATOM     12  C   UNL d   1      20.694 -18.951  -0.650  0.00  0.00    -0.031 C 
ATOM     13  C   UNL d   1      19.861 -20.105  -0.165  0.00  0.00     0.036 C 
ENDBRANCH  10  11
ENDBRANCH   6   9
ENDBRANCH   1   5
BRANCH   2  14
ATOM     14  C   UNL d   1      26.873 -13.999  -5.048  0.00  0.00     0.080 A 
ATOM     15  S   UNL d   1      26.275 -12.393  -4.843  0.00  0.00    -0.096 SA
ATOM     16  C   UNL d   1      27.653 -11.685  -5.575  0.00  0.00     0.051 A 
ATOM     17  C   UNL d   1      28.542 -12.643  -6.002  0.00  0.00     0.015 A 
ATOM     18  C   UNL d   1      28.101 -13.979  -5.708  0.00  0.00    -0.039 A 
ATOM     19  C   UNL d   1      28.859 -15.188  -6.128  0.00  0.00     0.050 C 
ENDBRANCH   2  14
TORSDOF 4
ENDMDL
MODEL 7
REMARK VINA RESULT:    -6.298      4.144      9.008
REMARK INTER + INTRA:          -8.862
REMARK INTER:                  -7.491
REMARK INTRA:                  -1.371
REMARK CONF_INDEPENDENT:        1.193
REMARK UNBOUND:                -1.371
REMARK  4 active torsions:
REMARK  status: ('A' for Active; 'I' for Inactive)
REMARK    1  A    between atoms: C_3  and  C_4 
REMARK    2  A    between atoms: C_5  and  C_6 
REMARK       I    between atoms: C_6  and  N_8 
REMARK    3  A    between atoms: N_8  and  N_9 
REMARK       I    between atoms: N_9  and  C_10 
REMARK    4  A    between atoms: C_10  and  C_12 
ROOT
ATOM      1  N   UNL d   1      26.052 -15.314  -3.337  0.00  0.00    -0.263 N 
ATOM      2  C   UNL d   1      26.154 -15.318  -4.731  0.00  0.00     0.277 C 
ATOM      3  O   UNL d   1      25.528 -16.155  -5.395  0.00  0.00    -0.265 OA
ATOM      4  H   UNL d   1      26.458 -14.580  -2.762  0.00  0.00     0.190 HD
ENDROOT
BRANCH   1   5
ATOM      5  N   UNL d   1      25.242 -16.275  -2.640  0.00  0.00    -0.264 N 
ATOM      6  C   UNL d   1      25.155 -16.208  -1.254  0.00  0.00     0.259 C 
ATOM      7  O   UNL d   1      25.745 -15.348  -0.600  0.00  0.00    -0.267 OA
ATOM      8  H   UNL d   1      24.777 -16.971  -3.219  0.00  0.00     0.190 HD
BRANCH   6   9
ATOM      9  C   UNL d   1      24.296 -17.256  -0.594  0.00  0.00     0.075 C 
ATOM     10  C   UNL d   1      23.272 -17.853  -1.246  0.00  0.00     0.005 C 
BRANCH  10  11
ATOM     11  C   UNL d   1      22.401 -18.874  -0.670  0.00  0.00    -0.004 C 
ATOM     12  C   UNL d   1      21.070 -18.938  -0.868  0.00  0.00    -0.031 C 
ATOM     13  C   UNL d   1      20.188 -19.997  -0.268  0.00  0.00     0.036 C 
ENDBRANCH  10  11
ENDBRANCH   6   9
ENDBRANCH   1   5
BRANCH   2  14
ATOM     14  C   UNL d   1      27.041 -14.304  -5.330  0.00  0.00     0.080 A 
ATOM     15  S   UNL d   1      28.474 -14.800  -6.154  0.00  0.00    -0.096 SA
ATOM     16  C   UNL d   1      28.950 -13.190  -6.493  0.00  0.00     0.051 A 
ATOM     17  C   UNL d   1      28.062 -12.283  -5.965  0.00  0.00     0.015 A 
ATOM     18  C   UNL d   1      26.961 -12.914  -5.290  0.00  0.00    -0.039 A 
ATOM     19  C   UNL d   1      25.904 -12.143  -4.581  0.00  0.00     0.050 C 
ENDBRANCH   2  14
TORSDOF 4
ENDMDL
MODEL 8
REMARK VINA RESULT:    -5.897     12.908     14.801
REMARK INTER + INTRA:          -8.462
REMARK INTER:                  -7.090
REMARK INTRA:                  -1.372
REMARK CONF_INDEPENDENT:        1.193
REMARK UNBOUND:                -1.372
REMARK  4 active torsions:
REMARK  status: ('A' for Active; 'I' for Inactive)
REMARK    1  A    between atoms: C_3  and  C_4 
REMARK    2  A    between atoms: C_5  and  C_6 
REMARK       I    between atoms: C_6  and  N_8 
REMARK    3  A    between atoms: N_8  and  N_9 
REMARK       I    between atoms: N_9  and  C_10 
REMARK    4  A    between atoms: C_10  and  C_12 
ROOT
ATOM      1  N   UNL d   1      33.453 -21.798   7.090  0.00  0.00    -0.263 N 
ATOM      2  C   UNL d   1      34.835 -21.994   7.160  0.00  0.00     0.277 C 
ATOM      3  O   UNL d   1      35.486 -22.184   6.124  0.00  0.00    -0.265 OA
ATOM      4  H   UNL d   1      32.898 -21.530   7.899  0.00  0.00     0.190 HD
ENDROOT
BRANCH   1   5
ATOM      5  N   UNL d   1      32.753 -21.824   5.836  0.00  0.00    -0.264 N 
ATOM      6  C   UNL d   1      31.397 -21.515   5.811  0.00  0.00     0.259 C 
ATOM      7  O   UNL d   1      30.774 -21.213   6.829  0.00  0.00    -0.267 OA
ATOM      8  H   UNL d   1      33.305 -22.084   5.021  0.00  0.00     0.190 HD
BRANCH   6   9
ATOM      9  C   UNL d   1      30.730 -21.575   4.461  0.00  0.00     0.075 C 
ATOM     10  C   UNL d   1      31.441 -21.522   3.311  0.00  0.00     0.005 C 
BRANCH  10  11
ATOM     11  C   UNL d   1      30.862 -21.575   1.971  0.00  0.00    -0.004 C 
ATOM     12  C   UNL d   1      31.251 -22.432   1.007  0.00  0.00    -0.031 C 
ATOM     13  C   UNL d   1      30.643 -22.473  -0.367  0.00  0.00     0.036 C 
ENDBRANCH  10  11
ENDBRANCH   6   9
ENDBRANCH   1   5
BRANCH   2  14
ATOM     14  C   UNL d   1      35.436 -21.978   8.506  0.00  0.00     0.080 A 
ATOM     15  S   UNL d   1      35.653 -23.459   9.365  0.00  0.00    -0.096 SA
ATOM     16  C   UNL d   1      36.303 -22.675  10.742  0.00  0.00     0.051 A 
ATOM     17  C   UNL d   1      36.328 -21.310  10.578  0.00  0.00     0.015 A 
ATOM     18  C   UNL d   1      35.827 -20.897   9.295  0.00  0.00    -0.039 A 
ATOM     19  C   UNL d   1      35.693 -19.468   8.905  0.00  0.00     0.050 C 
ENDBRANCH   2  14
TORSDOF 4
ENDMDL
MODEL 9
REMARK VINA RESULT:    -5.857      5.592      8.709
REMARK INTER + INTRA:          -8.330
REMARK INTER:                  -7.050
REMARK INTRA:                  -1.280
REMARK CONF_INDEPENDENT:        1.193
REMARK UNBOUND:                -1.280
REMARK  4 active torsions:
REMARK  status: ('A' for Active; 'I' for Inactive)
REMARK    1  A    between atoms: C_3  and  C_4 
REMARK    2  A    between atoms: C_5  and  C_6 
REMARK       I    between atoms: C_6  and  N_8 
REMARK    3  A    between atoms: N_8  and  N_9 
REMARK       I    between atoms: N_9  and  C_10 
REMARK    4  A    between atoms: C_10  and  C_12 
ROOT
ATOM      1  N   UNL d   1      27.436 -15.945   1.100  0.00  0.00    -0.263 N 
ATOM      2  C   UNL d   1      27.581 -14.641   1.582  0.00  0.00     0.277 C 
ATOM      3  O   UNL d   1      26.705 -13.796   1.354  0.00  0.00    -0.265 OA
ATOM      4  H   UNL d   1      28.073 -16.696   1.356  0.00  0.00     0.190 HD
ENDROOT
BRANCH   1   5
ATOM      5  N   UNL d   1      26.290 -16.337   0.327  0.00  0.00    -0.264 N 
ATOM      6  C   UNL d   1      25.973 -17.687   0.224  0.00  0.00     0.259 C 
ATOM      7  O   UNL d   1      26.637 -18.562   0.781  0.00  0.00    -0.267 OA
ATOM      8  H   UNL d   1      25.773 -15.583  -0.120  0.00  0.00     0.190 HD
BRANCH   6   9
ATOM      9  C   UNL d   1      24.765 -18.021  -0.612  0.00  0.00     0.075 C 
ATOM     10  C   UNL d   1      23.556 -18.261  -0.056  0.00  0.00     0.005 C 
BRANCH  10  11
ATOM     11  C   UNL d   1      22.345 -18.588  -0.804  0.00  0.00    -0.004 C 
ATOM     12  C   UNL d   1      21.190 -18.994  -0.242  0.00  0.00    -0.031 C 
ATOM     13  C   UNL d   1      19.952 -19.326  -1.028  0.00  0.00     0.036 C 
ENDBRANCH  10  11
ENDBRANCH   6   9
ENDBRANCH   1   5
BRANCH   2  14
ATOM     14  C   UNL d   1      28.815 -14.349   2.335  0.00  0.00     0.080 A 
ATOM     15  S   UNL d   1      30.298 -14.106   1.487  0.00  0.00    -0.096 SA
ATOM     16  C   UNL d   1      31.196 -13.886   2.929  0.00  0.00     0.051 A 
ATOM     17  C   UNL d   1      30.400 -14.027   4.042  0.00  0.00     0.015 A 
ATOM     18  C   UNL d   1      29.028 -14.298   3.711  0.00  0.00    -0.039 A 
ATOM     19  C   UNL d   1      27.987 -14.554   4.743  0.00  0.00     0.050 C 
ENDBRANCH   2  14
TORSDOF 4
ENDMDL
