MODEL 1
REMARK VINA RESULT:   -10.207      0.000      0.000
REMARK INTER + INTRA:         -13.899
REMARK INTER:                 -12.295
REMARK INTRA:                  -1.604
REMARK CONF_INDEPENDENT:        2.088
REMARK UNBOUND:                -1.604
REMARK  7 active torsions:
REMARK  status: ('A' for Active; 'I' for Inactive)
REMARK    1  A    between atoms: C_6  and  C_7 
REMARK    2  A    between atoms: C_10  and  C_11 
REMARK       I    between atoms: C_11  and  N_13 
REMARK    3  A    between atoms: N_13  and  N_14 
REMARK       I    between atoms: N_14  and  C_15 
REMARK    4  A    between atoms: C_15  and  C_17 
REMARK    5  A    between atoms: C_17  and  C_18 
REMARK    6  A    between atoms: C_18  and  C_19 
REMARK    7  A    between atoms: C_19  and  C_20 
ROOT
ATOM      1  C   UNL d   1      25.741 -16.071  -1.409  0.00  0.00     0.275 C 
ATOM      2  O   UNL d   1      26.448 -15.514  -0.567  0.00  0.00    -0.266 OA
ATOM      3  N   UNL d   1      26.031 -16.009  -2.760  0.00  0.00    -0.263 N 
ATOM      4  H   UNL d   1      25.460 -16.477  -3.473  0.00  0.00     0.190 HD
ENDROOT
BRANCH   1   5
ATOM      5  C   UNL d   1      24.518 -16.855  -1.015  0.00  0.00     0.101 A 
ATOM      6  C   UNL d   1      23.292 -16.332  -1.232  0.00  0.00     0.025 A 
ATOM      7  C   UNL d   1      22.073 -17.037  -0.875  0.00  0.00     0.031 A 
ATOM      8  C   UNL d   1      22.140 -18.251  -0.306  0.00  0.00     0.045 A 
ATOM      9  N   UNL d   1      23.376 -18.806  -0.068  0.00  0.00    -0.322 N 
ATOM     10  C   UNL d   1      24.573 -18.207  -0.384  0.00  0.00     0.261 A 
ATOM     11  H   UNL d   1      23.431 -19.729   0.345  0.00  0.00     0.169 HD
ATOM     12  O   UNL d   1      25.646 -18.769  -0.152  0.00  0.00    -0.267 OA
BRANCH   8  13
ATOM     13  C   UNL d   1      20.936 -19.014   0.081  0.00  0.00    -0.009 A 
ATOM     14  C   UNL d   1      19.994 -19.396  -0.885  0.00  0.00     0.014 A 
ATOM     15  C   UNL d   1      18.847 -20.106  -0.515  0.00  0.00     0.001 A 
ATOM     16  C   UNL d   1      18.630 -20.445   0.819  0.00  0.00     0.007 A 
ATOM     17  C   UNL d   1      19.559 -20.078   1.798  0.00  0.00    -0.061 A 
ATOM     18  C   UNL d   1      19.345 -20.448   3.237  0.00  0.00     0.048 C 
ATOM     19  C   UNL d   1      20.706 -19.361   1.421  0.00  0.00     0.020 A 
ENDBRANCH   8  13
ENDBRANCH   1   5
BRANCH   3  20
ATOM     20  N   UNL d   1      27.193 -15.339  -3.210  0.00  0.00    -0.267 N 
ATOM     21  C   UNL d   1      27.381 -15.176  -4.574  0.00  0.00     0.236 C 
ATOM     22  O   UNL d   1      26.562 -15.557  -5.406  0.00  0.00    -0.272 OA
ATOM     23  H   UNL d   1      27.825 -14.979  -2.499  0.00  0.00     0.190 HD
BRANCH  21  24
ATOM     24  C   UNL d   1      28.680 -14.477  -4.954  0.00  0.00     0.105 C 
BRANCH  24  25
ATOM     25  C   UNL d   1      29.489 -15.300  -5.990  0.00  0.00     0.014 C 
BRANCH  25  26
ATOM     26  C   UNL d   1      30.499 -16.280  -5.366  0.00  0.00     0.039 C 
BRANCH  26  27
ATOM     27  C   UNL d   1      30.572 -17.625  -6.057  0.00  0.00    -0.058 C 
ATOM     28  C   UNL d   1      30.396 -18.806  -5.330  0.00  0.00     0.007 C 
ATOM     29  C   UNL d   1      30.563 -20.046  -5.959  0.00  0.00     0.001 C 
ATOM     30  C   UNL d   1      30.950 -20.117  -7.299  0.00  0.00     0.000 C 
ATOM     31  C   UNL d   1      31.100 -18.955  -8.035  0.00  0.00     0.001 C 
ATOM     32  C   UNL d   1      30.838 -17.736  -7.432  0.00  0.00     0.007 C 
ENDBRANCH  26  27
ENDBRANCH  25  26
ENDBRANCH  24  25
ENDBRANCH  21  24
ENDBRANCH   3  20
TORSDOF 7
ENDMDL
MODEL 2
REMARK VINA RESULT:    -9.856      3.416     10.925
REMARK INTER + INTRA:         -14.069
REMARK INTER:                 -11.944
REMARK INTRA:                  -2.125
REMARK CONF_INDEPENDENT:        2.088
REMARK UNBOUND:                -2.125
REMARK  7 active torsions:
REMARK  status: ('A' for Active; 'I' for Inactive)
REMARK    1  A    between atoms: C_6  and  C_7 
REMARK    2  A    between atoms: C_10  and  C_11 
REMARK       I    between atoms: C_11  and  N_13 
REMARK    3  A    between atoms: N_13  and  N_14 
REMARK       I    between atoms: N_14  and  C_15 
REMARK    4  A    between atoms: C_15  and  C_17 
REMARK    5  A    between atoms: C_17  and  C_18 
REMARK    6  A    between atoms: C_18  and  C_19 
REMARK    7  A    between atoms: C_19  and  C_20 
ROOT
ATOM      1  C   UNL d   1      26.274 -15.590  -2.854  0.00  0.00     0.275 C 
ATOM      2  O   UNL d   1      27.280 -16.214  -2.513  0.00  0.00    -0.266 OA
ATOM      3  N   UNL d   1      25.014 -15.935  -2.403  0.00  0.00    -0.263 N 
ATOM      4  H   UNL d   1      24.168 -15.417  -2.668  0.00  0.00     0.190 HD
ENDROOT
BRANCH   1   5
ATOM      5  C   UNL d   1      26.360 -14.409  -3.784  0.00  0.00     0.101 A 
ATOM      6  C   UNL d   1      27.565 -14.001  -4.235  0.00  0.00     0.025 A 
ATOM      7  C   UNL d   1      27.716 -12.870  -5.134  0.00  0.00     0.031 A 
ATOM      8  C   UNL d   1      26.635 -12.186  -5.543  0.00  0.00     0.045 A 
ATOM      9  N   UNL d   1      25.395 -12.575  -5.094  0.00  0.00    -0.322 N 
ATOM     10  C   UNL d   1      25.169 -13.639  -4.251  0.00  0.00     0.261 A 
ATOM     11  H   UNL d   1      24.574 -12.075  -5.414  0.00  0.00     0.169 HD
ATOM     12  O   UNL d   1      24.026 -13.939  -3.898  0.00  0.00    -0.267 OA
BRANCH   8  13
ATOM     13  C   UNL d   1      26.726 -11.027  -6.452  0.00  0.00    -0.009 A 
ATOM     14  C   UNL d   1      27.364 -11.144  -7.695  0.00  0.00     0.014 A 
ATOM     15  C   UNL d   1      27.463 -10.042  -8.550  0.00  0.00     0.001 A 
ATOM     16  C   UNL d   1      26.923  -8.813  -8.176  0.00  0.00     0.007 A 
ATOM     17  C   UNL d   1      26.277  -8.674  -6.943  0.00  0.00    -0.061 A 
ATOM     18  C   UNL d   1      25.679  -7.360  -6.533  0.00  0.00     0.048 C 
ATOM     19  C   UNL d   1      26.187  -9.784  -6.088  0.00  0.00     0.020 A 
ENDBRANCH   8  13
ENDBRANCH   1   5
BRANCH   3  20
ATOM     20  N   UNL d   1      24.851 -16.996  -1.482  0.00  0.00    -0.267 N 
ATOM     21  C   UNL d   1      23.673 -17.074  -0.756  0.00  0.00     0.236 C 
ATOM     22  O   UNL d   1      22.749 -16.277  -0.904  0.00  0.00    -0.272 OA
ATOM     23  H   UNL d   1      25.606 -17.677  -1.422  0.00  0.00     0.190 HD
BRANCH  21  24
ATOM     24  C   UNL d   1      23.614 -18.230   0.234  0.00  0.00     0.105 C 
BRANCH  24  25
ATOM     25  C   UNL d   1      22.616 -19.325  -0.225  0.00  0.00     0.014 C 
BRANCH  25  26
ATOM     26  C   UNL d   1      21.206 -18.798  -0.548  0.00  0.00     0.039 C 
BRANCH  26  27
ATOM     27  C   UNL d   1      20.090 -19.519   0.178  0.00  0.00    -0.058 C 
ATOM     28  C   UNL d   1      20.143 -19.694   1.563  0.00  0.00     0.007 C 
ATOM     29  C   UNL d   1      19.156 -20.446   2.212  0.00  0.00     0.001 C 
ATOM     30  C   UNL d   1      18.141 -21.067   1.481  0.00  0.00     0.000 C 
ATOM     31  C   UNL d   1      18.064 -20.879   0.112  0.00  0.00     0.001 C 
ATOM     32  C   UNL d   1      18.987 -20.053  -0.508  0.00  0.00     0.007 C 
ENDBRANCH  26  27
ENDBRANCH  25  26
ENDBRANCH  24  25
ENDBRANCH  21  24
ENDBRANCH   3  20
TORSDOF 7
ENDMDL
MODEL 3
REMARK VINA RESULT:    -9.481      2.033     11.345
REMARK INTER + INTRA:         -13.702
REMARK INTER:                 -11.569
REMARK INTRA:                  -2.133
REMARK CONF_INDEPENDENT:        2.088
REMARK UNBOUND:                -2.133
REMARK  7 active torsions:
REMARK  status: ('A' for Active; 'I' for Inactive)
REMARK    1  A    between atoms: C_6  and  C_7 
REMARK    2  A    between atoms: C_10  and  C_11 
REMARK       I    between atoms: C_11  and  N_13 
REMARK    3  A    between atoms: N_13  and  N_14 
REMARK       I    between atoms: N_14  and  C_15 
REMARK    4  A    between atoms: C_15  and  C_17 
REMARK    5  A    between atoms: C_17  and  C_18 
REMARK    6  A    between atoms: C_18  and  C_19 
REMARK    7  A    between atoms: C_19  and  C_20 
ROOT
ATOM      1  C   UNL d   1      25.856 -15.247  -3.758  0.00  0.00     0.275 C 
ATOM      2  O   UNL d   1      24.900 -14.523  -4.038  0.00  0.00    -0.266 OA
ATOM      3  N   UNL d   1      25.811 -16.141  -2.704  0.00  0.00    -0.263 N 
ATOM      4  H   UNL d   1      26.594 -16.760  -2.466  0.00  0.00     0.190 HD
ENDROOT
BRANCH   1   5
ATOM      5  C   UNL d   1      27.135 -15.203  -4.552  0.00  0.00     0.101 A 
ATOM      6  C   UNL d   1      27.144 -14.618  -5.769  0.00  0.00     0.025 A 
ATOM      7  C   UNL d   1      28.343 -14.542  -6.584  0.00  0.00     0.031 A 
ATOM      8  C   UNL d   1      29.496 -15.067  -6.138  0.00  0.00     0.045 A 
ATOM      9  N   UNL d   1      29.514 -15.675  -4.904  0.00  0.00    -0.322 N 
ATOM     10  C   UNL d   1      28.425 -15.779  -4.070  0.00  0.00     0.261 A 
ATOM     11  H   UNL d   1      30.385 -16.057  -4.555  0.00  0.00     0.169 HD
ATOM     12  O   UNL d   1      28.517 -16.328  -2.970  0.00  0.00    -0.267 OA
BRANCH   8  13
ATOM     13  C   UNL d   1      30.745 -15.023  -6.923  0.00  0.00    -0.009 A 
ATOM     14  C   UNL d   1      31.530 -16.175  -7.080  0.00  0.00     0.014 A 
ATOM     15  C   UNL d   1      32.720 -16.129  -7.812  0.00  0.00     0.001 A 
ATOM     16  C   UNL d   1      33.139 -14.936  -8.399  0.00  0.00     0.007 A 
ATOM     17  C   UNL d   1      32.369 -13.776  -8.260  0.00  0.00    -0.061 A 
ATOM     18  C   UNL d   1      32.800 -12.487  -8.898  0.00  0.00     0.048 C 
ATOM     19  C   UNL d   1      31.177 -13.828  -7.519  0.00  0.00     0.020 A 
ENDBRANCH   8  13
ENDBRANCH   1   5
BRANCH   3  20
ATOM     20  N   UNL d   1      24.627 -16.286  -1.942  0.00  0.00    -0.267 N 
ATOM     21  C   UNL d   1      24.569 -17.288  -0.987  0.00  0.00     0.236 C 
ATOM     22  O   UNL d   1      25.516 -18.035  -0.751  0.00  0.00    -0.272 OA
ATOM     23  H   UNL d   1      23.881 -15.616  -2.114  0.00  0.00     0.190 HD
BRANCH  21  24
ATOM     24  C   UNL d   1      23.240 -17.384  -0.249  0.00  0.00     0.105 C 
BRANCH  24  25
ATOM     25  C   UNL d   1      22.517 -18.724  -0.544  0.00  0.00     0.014 C 
BRANCH  25  26
ATOM     26  C   UNL d   1      21.011 -18.579  -0.825  0.00  0.00     0.039 C 
BRANCH  26  27
ATOM     27  C   UNL d   1      20.130 -19.468   0.028  0.00  0.00    -0.058 C 
ATOM     28  C   UNL d   1      18.997 -20.077  -0.520  0.00  0.00     0.007 C 
ATOM     29  C   UNL d   1      18.135 -20.816   0.300  0.00  0.00     0.001 C 
ATOM     30  C   UNL d   1      18.370 -20.913   1.673  0.00  0.00     0.000 C 
ATOM     31  C   UNL d   1      19.501 -20.336   2.221  0.00  0.00     0.001 C 
ATOM     32  C   UNL d   1      20.400 -19.690   1.388  0.00  0.00     0.007 C 
ENDBRANCH  26  27
ENDBRANCH  25  26
ENDBRANCH  24  25
ENDBRANCH  21  24
ENDBRANCH   3  20
TORSDOF 7
ENDMDL
MODEL 4
REMARK VINA RESULT:    -9.409      2.613      4.950
REMARK INTER + INTRA:         -13.118
REMARK INTER:                 -11.497
REMARK INTRA:                  -1.621
REMARK CONF_INDEPENDENT:        2.088
REMARK UNBOUND:                -1.621
REMARK  7 active torsions:
REMARK  status: ('A' for Active; 'I' for Inactive)
REMARK    1  A    between atoms: C_6  and  C_7 
REMARK    2  A    between atoms: C_10  and  C_11 
REMARK       I    between atoms: C_11  and  N_13 
REMARK    3  A    between atoms: N_13  and  N_14 
REMARK       I    between atoms: N_14  and  C_15 
REMARK    4  A    between atoms: C_15  and  C_17 
REMARK    5  A    between atoms: C_17  and  C_18 
REMARK    6  A    between atoms: C_18  and  C_19 
REMARK    7  A    between atoms: C_19  and  C_20 
ROOT
ATOM      1  C   UNL d   1      25.670 -16.101  -1.420  0.00  0.00     0.275 C 
ATOM      2  O   UNL d   1      26.532 -15.795  -0.596  0.00  0.00    -0.266 OA
ATOM      3  N   UNL d   1      25.773 -15.744  -2.752  0.00  0.00    -0.263 N 
ATOM      4  H   UNL d   1      25.069 -16.002  -3.453  0.00  0.00     0.190 HD
ENDROOT
BRANCH   1   5
ATOM      5  C   UNL d   1      24.448 -16.888  -1.025  0.00  0.00     0.101 A 
ATOM      6  C   UNL d   1      23.221 -16.372  -1.250  0.00  0.00     0.025 A 
ATOM      7  C   UNL d   1      22.004 -17.079  -0.892  0.00  0.00     0.031 A 
ATOM      8  C   UNL d   1      22.074 -18.289  -0.313  0.00  0.00     0.045 A 
ATOM      9  N   UNL d   1      23.311 -18.836  -0.066  0.00  0.00    -0.322 N 
ATOM     10  C   UNL d   1      24.507 -18.235  -0.383  0.00  0.00     0.261 A 
ATOM     11  H   UNL d   1      23.369 -19.756   0.354  0.00  0.00     0.169 HD
ATOM     12  O   UNL d   1      25.581 -18.790  -0.143  0.00  0.00    -0.267 OA
BRANCH   8  13
ATOM     13  C   UNL d   1      20.872 -19.053   0.076  0.00  0.00    -0.009 A 
ATOM     14  C   UNL d   1      19.940 -19.457  -0.891  0.00  0.00     0.014 A 
ATOM     15  C   UNL d   1      18.795 -20.169  -0.521  0.00  0.00     0.001 A 
ATOM     16  C   UNL d   1      18.569 -20.489   0.817  0.00  0.00     0.007 A 
ATOM     17  C   UNL d   1      19.487 -20.100   1.798  0.00  0.00    -0.061 A 
ATOM     18  C   UNL d   1      19.264 -20.450   3.241  0.00  0.00     0.048 C 
ATOM     19  C   UNL d   1      20.633 -19.382   1.419  0.00  0.00     0.020 A 
ENDBRANCH   8  13
ENDBRANCH   1   5
BRANCH   3  20
ATOM     20  N   UNL d   1      26.916 -15.052  -3.219  0.00  0.00    -0.267 N 
ATOM     21  C   UNL d   1      27.183 -15.049  -4.578  0.00  0.00     0.236 C 
ATOM     22  O   UNL d   1      26.449 -15.592  -5.400  0.00  0.00    -0.272 OA
ATOM     23  H   UNL d   1      27.474 -14.559  -2.525  0.00  0.00     0.190 HD
BRANCH  21  24
ATOM     24  C   UNL d   1      28.455 -14.310  -4.972  0.00  0.00     0.105 C 
BRANCH  24  25
ATOM     25  C   UNL d   1      28.146 -12.896  -5.528  0.00  0.00     0.014 C 
BRANCH  25  26
ATOM     26  C   UNL d   1      26.644 -12.583  -5.656  0.00  0.00     0.039 C 
BRANCH  26  27
ATOM     27  C   UNL d   1      26.258 -11.189  -5.208  0.00  0.00    -0.058 C 
ATOM     28  C   UNL d   1      26.051 -10.912  -3.853  0.00  0.00     0.007 C 
ATOM     29  C   UNL d   1      25.599  -9.647  -3.459  0.00  0.00     0.001 C 
ATOM     30  C   UNL d   1      25.305  -8.668  -4.411  0.00  0.00     0.000 C 
ATOM     31  C   UNL d   1      25.531  -8.923  -5.752  0.00  0.00     0.001 C 
ATOM     32  C   UNL d   1      26.071 -10.142  -6.126  0.00  0.00     0.007 C 
ENDBRANCH  26  27
ENDBRANCH  25  26
ENDBRANCH  24  25
ENDBRANCH  21  24
ENDBRANCH   3  20
TORSDOF 7
ENDMDL
MODEL 5
REMARK VINA RESULT:    -9.267      7.060      9.791
REMARK INTER + INTRA:         -13.301
REMARK INTER:                 -11.355
REMARK INTRA:                  -1.946
REMARK CONF_INDEPENDENT:        2.088
REMARK UNBOUND:                -1.946
REMARK  7 active torsions:
REMARK  status: ('A' for Active; 'I' for Inactive)
REMARK    1  A    between atoms: C_6  and  C_7 
REMARK    2  A    between atoms: C_10  and  C_11 
REMARK       I    between atoms: C_11  and  N_13 
REMARK    3  A    between atoms: N_13  and  N_14 
REMARK       I    between atoms: N_14  and  C_15 
REMARK    4  A    between atoms: C_15  and  C_17 
REMARK    5  A    between atoms: C_17  and  C_18 
REMARK    6  A    between atoms: C_18  and  C_19 
REMARK    7  A    between atoms: C_19  and  C_20 
ROOT
ATOM      1  C   UNL d   1      27.853 -14.223   2.152  0.00  0.00     0.275 C 
ATOM      2  O   UNL d   1      26.959 -13.507   1.700  0.00  0.00    -0.266 OA
ATOM      3  N   UNL d   1      28.503 -15.160   1.370  0.00  0.00    -0.263 N 
ATOM      4  H   UNL d   1      29.259 -15.755   1.727  0.00  0.00     0.190 HD
ENDROOT
BRANCH   1   5
ATOM      5  C   UNL d   1      28.296 -14.118   3.588  0.00  0.00     0.101 A 
ATOM      6  C   UNL d   1      27.416 -13.711   4.528  0.00  0.00     0.025 A 
ATOM      7  C   UNL d   1      27.779 -13.589   5.929  0.00  0.00     0.031 A 
ATOM      8  C   UNL d   1      29.027 -13.881   6.329  0.00  0.00     0.045 A 
ATOM      9  N   UNL d   1      29.946 -14.291   5.392  0.00  0.00    -0.322 N 
ATOM     10  C   UNL d   1      29.678 -14.440   4.051  0.00  0.00     0.261 A 
ATOM     11  H   UNL d   1      30.884 -14.530   5.691  0.00  0.00     0.169 HD
ATOM     12  O   UNL d   1      30.549 -14.825   3.267  0.00  0.00    -0.267 OA
BRANCH   8  13
ATOM     13  C   UNL d   1      29.455 -13.772   7.738  0.00  0.00    -0.009 A 
ATOM     14  C   UNL d   1      30.781 -14.044   8.104  0.00  0.00     0.014 A 
ATOM     15  C   UNL d   1      31.182 -13.955   9.440  0.00  0.00     0.001 A 
ATOM     16  C   UNL d   1      30.266 -13.590  10.425  0.00  0.00     0.007 A 
ATOM     17  C   UNL d   1      28.939 -13.310  10.083  0.00  0.00    -0.061 A 
ATOM     18  C   UNL d   1      27.945 -12.902  11.132  0.00  0.00     0.048 C 
ATOM     19  C   UNL d   1      28.542 -13.406   8.739  0.00  0.00     0.020 A 
ENDBRANCH   8  13
ENDBRANCH   1   5
BRANCH   3  20
ATOM     20  N   UNL d   1      28.188 -15.284  -0.004  0.00  0.00    -0.267 N 
ATOM     21  C   UNL d   1      27.725 -16.503  -0.474  0.00  0.00     0.236 C 
ATOM     22  O   UNL d   1      27.544 -17.471   0.261  0.00  0.00    -0.272 OA
ATOM     23  H   UNL d   1      28.288 -14.450  -0.579  0.00  0.00     0.190 HD
BRANCH  21  24
ATOM     24  C   UNL d   1      27.451 -16.542  -1.971  0.00  0.00     0.105 C 
BRANCH  24  25
ATOM     25  C   UNL d   1      26.059 -15.951  -2.313  0.00  0.00     0.014 C 
BRANCH  25  26
ATOM     26  C   UNL d   1      25.146 -15.740  -1.092  0.00  0.00     0.039 C 
BRANCH  26  27
ATOM     27  C   UNL d   1      24.146 -16.853  -0.862  0.00  0.00    -0.058 C 
ATOM     28  C   UNL d   1      24.581 -18.161  -0.631  0.00  0.00     0.007 C 
ATOM     29  C   UNL d   1      23.649 -19.199  -0.517  0.00  0.00     0.001 C 
ATOM     30  C   UNL d   1      22.285 -18.950  -0.679  0.00  0.00     0.000 C 
ATOM     31  C   UNL d   1      21.840 -17.656  -0.881  0.00  0.00     0.001 C 
ATOM     32  C   UNL d   1      22.760 -16.621  -0.895  0.00  0.00     0.007 C 
ENDBRANCH  26  27
ENDBRANCH  25  26
ENDBRANCH  24  25
ENDBRANCH  21  24
ENDBRANCH   3  20
TORSDOF 7
ENDMDL
MODEL 6
REMARK VINA RESULT:    -9.120      3.001     10.970
REMARK INTER + INTRA:         -13.417
REMARK INTER:                 -11.208
REMARK INTRA:                  -2.210
REMARK CONF_INDEPENDENT:        2.088
REMARK UNBOUND:                -2.210
REMARK  7 active torsions:
REMARK  status: ('A' for Active; 'I' for Inactive)
REMARK    1  A    between atoms: C_6  and  C_7 
REMARK    2  A    between atoms: C_10  and  C_11 
REMARK       I    between atoms: C_11  and  N_13 
REMARK    3  A    between atoms: N_13  and  N_14 
REMARK       I    between atoms: N_14  and  C_15 
REMARK    4  A    between atoms: C_15  and  C_17 
REMARK    5  A    between atoms: C_17  and  C_18 
REMARK    6  A    between atoms: C_18  and  C_19 
REMARK    7  A    between atoms: C_19  and  C_20 
ROOT
ATOM      1  C   UNL d   1      25.471 -14.486  -3.495  0.00  0.00     0.275 C 
ATOM      2  O   UNL d   1      24.330 -14.084  -3.262  0.00  0.00    -0.266 OA
ATOM      3  N   UNL d   1      26.062 -15.483  -2.740  0.00  0.00    -0.263 N 
ATOM      4  H   UNL d   1      27.007 -15.837  -2.929  0.00  0.00     0.190 HD
ENDROOT
BRANCH   1   5
ATOM      5  C   UNL d   1      26.292 -13.915  -4.621  0.00  0.00     0.101 A 
ATOM      6  C   UNL d   1      26.080 -12.644  -5.022  0.00  0.00     0.025 A 
ATOM      7  C   UNL d   1      26.837 -12.034  -6.102  0.00  0.00     0.031 A 
ATOM      8  C   UNL d   1      27.783 -12.739  -6.742  0.00  0.00     0.045 A 
ATOM      9  N   UNL d   1      28.016 -14.039  -6.359  0.00  0.00    -0.322 N 
ATOM     10  C   UNL d   1      27.350 -14.683  -5.342  0.00  0.00     0.261 A 
ATOM     11  H   UNL d   1      28.741 -14.570  -6.826  0.00  0.00     0.169 HD
ATOM     12  O   UNL d   1      27.619 -15.849  -5.044  0.00  0.00    -0.267 OA
BRANCH   8  13
ATOM     13  C   UNL d   1      28.582 -12.174  -7.848  0.00  0.00    -0.009 A 
ATOM     14  C   UNL d   1      28.039 -11.193  -8.691  0.00  0.00     0.014 A 
ATOM     15  C   UNL d   1      28.791 -10.669  -9.747  0.00  0.00     0.001 A 
ATOM     16  C   UNL d   1      30.093 -11.114  -9.971  0.00  0.00     0.007 A 
ATOM     17  C   UNL d   1      30.656 -12.088  -9.140  0.00  0.00    -0.061 A 
ATOM     18  C   UNL d   1      32.062 -12.567  -9.361  0.00  0.00     0.048 C 
ATOM     19  C   UNL d   1      29.893 -12.613  -8.084  0.00  0.00     0.020 A 
ENDBRANCH   8  13
ENDBRANCH   1   5
BRANCH   3  20
ATOM     20  N   UNL d   1      25.340 -16.112  -1.698  0.00  0.00    -0.267 N 
ATOM     21  C   UNL d   1      25.972 -17.088  -0.945  0.00  0.00     0.236 C 
ATOM     22  O   UNL d   1      27.146 -17.406  -1.122  0.00  0.00    -0.272 OA
ATOM     23  H   UNL d   1      24.389 -15.788  -1.533  0.00  0.00     0.190 HD
BRANCH  21  24
ATOM     24  C   UNL d   1      25.097 -17.729   0.124  0.00  0.00     0.105 C 
BRANCH  24  25
ATOM     25  C   UNL d   1      24.027 -18.664  -0.497  0.00  0.00     0.014 C 
BRANCH  25  26
ATOM     26  C   UNL d   1      22.729 -17.949  -0.913  0.00  0.00     0.039 C 
BRANCH  26  27
ATOM     27  C   UNL d   1      21.464 -18.611  -0.408  0.00  0.00    -0.058 C 
ATOM     28  C   UNL d   1      21.332 -18.950   0.941  0.00  0.00     0.007 C 
ATOM     29  C   UNL d   1      20.201 -19.649   1.379  0.00  0.00     0.001 C 
ATOM     30  C   UNL d   1      19.220 -20.054   0.472  0.00  0.00     0.000 C 
ATOM     31  C   UNL d   1      19.327 -19.700  -0.861  0.00  0.00     0.001 C 
ATOM     32  C   UNL d   1      20.399 -18.925  -1.270  0.00  0.00     0.007 C 
ENDBRANCH  26  27
ENDBRANCH  25  26
ENDBRANCH  24  25
ENDBRANCH  21  24
ENDBRANCH   3  20
TORSDOF 7
ENDMDL
MODEL 7
REMARK VINA RESULT:    -8.830      7.586     10.107
REMARK INTER + INTRA:         -13.254
REMARK INTER:                 -10.918
REMARK INTRA:                  -2.336
REMARK CONF_INDEPENDENT:        2.088
REMARK UNBOUND:                -2.336
REMARK  7 active torsions:
REMARK  status: ('A' for Active; 'I' for Inactive)
REMARK    1  A    between atoms: C_6  and  C_7 
REMARK    2  A    between atoms: C_10  and  C_11 
REMARK       I    between atoms: C_11  and  N_13 
REMARK    3  A    between atoms: N_13  and  N_14 
REMARK       I    between atoms: N_14  and  C_15 
REMARK    4  A    between atoms: C_15  and  C_17 
REMARK    5  A    between atoms: C_17  and  C_18 
REMARK    6  A    between atoms: C_18  and  C_19 
REMARK    7  A    between atoms: C_19  and  C_20 
ROOT
ATOM      1  C   UNL d   1      27.811 -13.334   2.961  0.00  0.00     0.275 C 
ATOM      2  O   UNL d   1      27.486 -12.286   2.402  0.00  0.00    -0.266 OA
ATOM      3  N   UNL d   1      27.950 -14.520   2.263  0.00  0.00    -0.263 N 
ATOM      4  H   UNL d   1      28.232 -15.399   2.712  0.00  0.00     0.190 HD
ENDROOT
BRANCH   1   5
ATOM      5  C   UNL d   1      28.078 -13.386   4.442  0.00  0.00     0.101 A 
ATOM      6  C   UNL d   1      28.182 -12.236   5.141  0.00  0.00     0.025 A 
ATOM      7  C   UNL d   1      28.439 -12.217   6.571  0.00  0.00     0.031 A 
ATOM      8  C   UNL d   1      28.584 -13.370   7.244  0.00  0.00     0.045 A 
ATOM      9  N   UNL d   1      28.488 -14.557   6.556  0.00  0.00    -0.322 N 
ATOM     10  C   UNL d   1      28.239 -14.658   5.207  0.00  0.00     0.261 A 
ATOM     11  H   UNL d   1      28.579 -15.430   7.062  0.00  0.00     0.169 HD
ATOM     12  O   UNL d   1      28.154 -15.758   4.657  0.00  0.00    -0.267 OA
BRANCH   8  13
ATOM     13  C   UNL d   1      28.849 -13.413   8.695  0.00  0.00    -0.009 A 
ATOM     14  C   UNL d   1      28.354 -12.409   9.541  0.00  0.00     0.014 A 
ATOM     15  C   UNL d   1      28.618 -12.443  10.914  0.00  0.00     0.001 A 
ATOM     16  C   UNL d   1      29.373 -13.481  11.458  0.00  0.00     0.007 A 
ATOM     17  C   UNL d   1      29.872 -14.495  10.635  0.00  0.00    -0.061 A 
ATOM     18  C   UNL d   1      30.675 -15.626  11.210  0.00  0.00     0.048 C 
ATOM     19  C   UNL d   1      29.608 -14.452   9.256  0.00  0.00     0.020 A 
ENDBRANCH   8  13
ENDBRANCH   1   5
BRANCH   3  20
ATOM     20  N   UNL d   1      27.773 -14.547   0.860  0.00  0.00    -0.267 N 
ATOM     21  C   UNL d   1      27.718 -15.775   0.219  0.00  0.00     0.236 C 
ATOM     22  O   UNL d   1      27.782 -16.842   0.825  0.00  0.00    -0.272 OA
ATOM     23  H   UNL d   1      27.662 -13.652   0.390  0.00  0.00     0.190 HD
BRANCH  21  24
ATOM     24  C   UNL d   1      27.563 -15.693  -1.294  0.00  0.00     0.105 C 
BRANCH  24  25
ATOM     25  C   UNL d   1      26.076 -15.790  -1.722  0.00  0.00     0.014 C 
BRANCH  25  26
ATOM     26  C   UNL d   1      25.078 -15.746  -0.551  0.00  0.00     0.039 C 
BRANCH  26  27
ATOM     27  C   UNL d   1      24.069 -16.874  -0.549  0.00  0.00    -0.058 C 
ATOM     28  C   UNL d   1      24.490 -18.201  -0.423  0.00  0.00     0.007 C 
ATOM     29  C   UNL d   1      23.559 -19.243  -0.521  0.00  0.00     0.001 C 
ATOM     30  C   UNL d   1      22.216 -18.973  -0.792  0.00  0.00     0.000 C 
ATOM     31  C   UNL d   1      21.784 -17.663  -0.892  0.00  0.00     0.001 C 
ATOM     32  C   UNL d   1      22.692 -16.636  -0.697  0.00  0.00     0.007 C 
ENDBRANCH  26  27
ENDBRANCH  25  26
ENDBRANCH  24  25
ENDBRANCH  21  24
ENDBRANCH   3  20
TORSDOF 7
ENDMDL
MODEL 8
REMARK VINA RESULT:    -8.601      1.857      2.820
REMARK INTER + INTRA:         -13.050
REMARK INTER:                 -10.689
REMARK INTRA:                  -2.361
REMARK CONF_INDEPENDENT:        2.088
REMARK UNBOUND:                -2.361
REMARK  7 active torsions:
REMARK  status: ('A' for Active; 'I' for Inactive)
REMARK    1  A    between atoms: C_6  and  C_7 
REMARK    2  A    between atoms: C_10  and  C_11 
REMARK       I    between atoms: C_11  and  N_13 
REMARK    3  A    between atoms: N_13  and  N_14 
REMARK       I    between atoms: N_14  and  C_15 
REMARK    4  A    between atoms: C_15  and  C_17 
REMARK    5  A    between atoms: C_17  and  C_18 
REMARK    6  A    between atoms: C_18  and  C_19 
REMARK    7  A    between atoms: C_19  and  C_20 
ROOT
ATOM      1  C   UNL d   1      25.772 -16.139  -1.306  0.00  0.00     0.275 C 
ATOM      2  O   UNL d   1      26.582 -15.769  -0.455  0.00  0.00    -0.266 OA
ATOM      3  N   UNL d   1      25.954 -15.873  -2.651  0.00  0.00    -0.263 N 
ATOM      4  H   UNL d   1      25.295 -16.185  -3.373  0.00  0.00     0.190 HD
ENDROOT
BRANCH   1   5
ATOM      5  C   UNL d   1      24.532 -16.907  -0.931  0.00  0.00     0.101 A 
ATOM      6  C   UNL d   1      23.317 -16.398  -1.229  0.00  0.00     0.025 A 
ATOM      7  C   UNL d   1      22.084 -17.089  -0.894  0.00  0.00     0.031 A 
ATOM      8  C   UNL d   1      22.125 -18.273  -0.263  0.00  0.00     0.045 A 
ATOM      9  N   UNL d   1      23.349 -18.812   0.059  0.00  0.00    -0.322 N 
ATOM     10  C   UNL d   1      24.559 -18.226  -0.231  0.00  0.00     0.261 A 
ATOM     11  H   UNL d   1      23.386 -19.713   0.519  0.00  0.00     0.169 HD
ATOM     12  O   UNL d   1      25.620 -18.772   0.077  0.00  0.00    -0.267 OA
BRANCH   8  13
ATOM     13  C   UNL d   1      20.905 -19.019   0.105  0.00  0.00    -0.009 A 
ATOM     14  C   UNL d   1      19.967 -19.379  -0.873  0.00  0.00     0.014 A 
ATOM     15  C   UNL d   1      18.805 -20.073  -0.522  0.00  0.00     0.001 A 
ATOM     16  C   UNL d   1      18.568 -20.418   0.808  0.00  0.00     0.007 A 
ATOM     17  C   UNL d   1      19.493 -20.074   1.800  0.00  0.00    -0.061 A 
ATOM     18  C   UNL d   1      19.258 -20.451   3.234  0.00  0.00     0.048 C 
ATOM     19  C   UNL d   1      20.655 -19.372   1.440  0.00  0.00     0.020 A 
ENDBRANCH   8  13
ENDBRANCH   1   5
BRANCH   3  20
ATOM     20  N   UNL d   1      27.120 -15.206  -3.095  0.00  0.00    -0.267 N 
ATOM     21  C   UNL d   1      27.362 -15.123  -4.457  0.00  0.00     0.236 C 
ATOM     22  O   UNL d   1      26.587 -15.574  -5.297  0.00  0.00    -0.272 OA
ATOM     23  H   UNL d   1      27.714 -14.788  -2.382  0.00  0.00     0.190 HD
BRANCH  21  24
ATOM     24  C   UNL d   1      28.660 -14.419  -4.828  0.00  0.00     0.105 C 
BRANCH  24  25
ATOM     25  C   UNL d   1      29.720 -15.418  -5.362  0.00  0.00     0.014 C 
BRANCH  25  26
ATOM     26  C   UNL d   1      30.854 -15.725  -4.367  0.00  0.00     0.039 C 
BRANCH  26  27
ATOM     27  C   UNL d   1      30.389 -15.962  -2.946  0.00  0.00    -0.058 C 
ATOM     28  C   UNL d   1      30.810 -15.119  -1.913  0.00  0.00     0.007 C 
ATOM     29  C   UNL d   1      30.455 -15.403  -0.589  0.00  0.00     0.001 C 
ATOM     30  C   UNL d   1      29.721 -16.551  -0.281  0.00  0.00     0.000 C 
ATOM     31  C   UNL d   1      29.277 -17.378  -1.297  0.00  0.00     0.001 C 
ATOM     32  C   UNL d   1      29.549 -17.037  -2.612  0.00  0.00     0.007 C 
ENDBRANCH  26  27
ENDBRANCH  25  26
ENDBRANCH  24  25
ENDBRANCH  21  24
ENDBRANCH   3  20
TORSDOF 7
ENDMDL
MODEL 9
REMARK VINA RESULT:    -8.320      2.632      3.561
REMARK INTER + INTRA:         -13.460
REMARK INTER:                 -10.408
REMARK INTRA:                  -3.052
REMARK CONF_INDEPENDENT:        2.088
REMARK UNBOUND:                -3.052
REMARK  7 active torsions:
REMARK  status: ('A' for Active; 'I' for Inactive)
REMARK    1  A    between atoms: C_6  and  C_7 
REMARK    2  A    between atoms: C_10  and  C_11 
REMARK       I    between atoms: C_11  and  N_13 
REMARK    3  A    between atoms: N_13  and  N_14 
REMARK       I    between atoms: N_14  and  C_15 
REMARK    4  A    between atoms: C_15  and  C_17 
REMARK    5  A    between atoms: C_17  and  C_18 
REMARK    6  A    between atoms: C_18  and  C_19 
REMARK    7  A    between atoms: C_19  and  C_20 
ROOT
ATOM      1  C   UNL d   1      25.758 -15.966  -1.213  0.00  0.00     0.275 C 
ATOM      2  O   UNL d   1      25.694 -14.757  -1.442  0.00  0.00    -0.266 OA
ATOM      3  N   UNL d   1      26.955 -16.656  -1.263  0.00  0.00    -0.263 N 
ATOM      4  H   UNL d   1      27.027 -17.660  -1.062  0.00  0.00     0.190 HD
ENDROOT
BRANCH   1   5
ATOM      5  C   UNL d   1      24.531 -16.765  -0.860  0.00  0.00     0.101 A 
ATOM      6  C   UNL d   1      23.311 -16.300  -1.203  0.00  0.00     0.025 A 
ATOM      7  C   UNL d   1      22.090 -17.023  -0.893  0.00  0.00     0.031 A 
ATOM      8  C   UNL d   1      22.148 -18.195  -0.240  0.00  0.00     0.045 A 
ATOM      9  N   UNL d   1      23.378 -18.689   0.128  0.00  0.00    -0.322 N 
ATOM     10  C   UNL d   1      24.577 -18.071  -0.137  0.00  0.00     0.261 A 
ATOM     11  H   UNL d   1      23.429 -19.581   0.605  0.00  0.00     0.169 HD
ATOM     12  O   UNL d   1      25.646 -18.578   0.213  0.00  0.00    -0.267 OA
BRANCH   8  13
ATOM     13  C   UNL d   1      20.941 -18.972   0.106  0.00  0.00    -0.009 A 
ATOM     14  C   UNL d   1      20.030 -19.354  -0.889  0.00  0.00     0.014 A 
ATOM     15  C   UNL d   1      18.880 -20.078  -0.559  0.00  0.00     0.001 A 
ATOM     16  C   UNL d   1      18.629 -20.431   0.766  0.00  0.00     0.007 A 
ATOM     17  C   UNL d   1      19.526 -20.065   1.774  0.00  0.00    -0.061 A 
ATOM     18  C   UNL d   1      19.276 -20.451   3.203  0.00  0.00     0.048 C 
ATOM     19  C   UNL d   1      20.677 -19.334   1.436  0.00  0.00     0.020 A 
ENDBRANCH   8  13
ENDBRANCH   1   5
BRANCH   3  20
ATOM     20  N   UNL d   1      28.163 -15.969  -1.531  0.00  0.00    -0.267 N 
ATOM     21  C   UNL d   1      29.353 -16.679  -1.501  0.00  0.00     0.236 C 
ATOM     22  O   UNL d   1      29.398 -17.888  -1.285  0.00  0.00    -0.272 OA
ATOM     23  H   UNL d   1      28.092 -14.982  -1.768  0.00  0.00     0.190 HD
BRANCH  21  24
ATOM     24  C   UNL d   1      30.597 -15.841  -1.766  0.00  0.00     0.105 C 
BRANCH  24  25
ATOM     25  C   UNL d   1      30.603 -15.268  -3.207  0.00  0.00     0.014 C 
BRANCH  25  26
ATOM     26  C   UNL d   1      29.922 -13.894  -3.342  0.00  0.00     0.039 C 
BRANCH  26  27
ATOM     27  C   UNL d   1      28.503 -13.950  -3.867  0.00  0.00    -0.058 C 
ATOM     28  C   UNL d   1      27.647 -12.857  -3.713  0.00  0.00     0.007 C 
ATOM     29  C   UNL d   1      26.309 -12.954  -4.114  0.00  0.00     0.001 C 
ATOM     30  C   UNL d   1      25.805 -14.152  -4.625  0.00  0.00     0.000 C 
ATOM     31  C   UNL d   1      26.651 -15.232  -4.807  0.00  0.00     0.001 C 
ATOM     32  C   UNL d   1      27.994 -15.097  -4.500  0.00  0.00     0.007 C 
ENDBRANCH  26  27
ENDBRANCH  25  26
ENDBRANCH  24  25
ENDBRANCH  21  24
ENDBRANCH   3  20
TORSDOF 7
ENDMDL
