MODEL 1
REMARK VINA RESULT:   -33.198      0.000      0.000
REMARK INTER + INTRA:         -36.964
REMARK INTER:                 -35.584
REMARK INTRA:                  -1.380
REMARK CONF_INDEPENDENT:        2.386
REMARK UNBOUND:                -1.380
REMARK  8 active torsions:
REMARK  status: ('A' for Active; 'I' for Inactive)
REMARK    1  A    between atoms: C_5  and  N_6 
REMARK    2  A    between atoms: N_6  and  C_7 
REMARK    3  A    between atoms: C_7  and  C_8 
REMARK    4  A    between atoms: C_8  and  N_9 
REMARK       I    between atoms: N_9  and  C_10 
REMARK    5  A    between atoms: C_10  and  C_12 
REMARK    6  A    between atoms: C_12  and  N_13 
REMARK       I    between atoms: N_13  and  C_14 
REMARK    7  A    between atoms: C_14  and  C_16 
REMARK    8  A    between atoms: C_16  and  C_17 
ROOT
ATOM      1  N   UNL d   1      25.128 -17.114  -0.180  0.00  0.00    -0.358 N 
ATOM      2  C   UNL d   1      26.312 -17.873  -0.139  0.00  0.00     0.235 C 
ATOM      3  O   UNL d   1      26.265 -19.075   0.130  0.00  0.00    -0.272 OA
ATOM      4  H   UNL d   1      25.144 -16.123  -0.398  0.00  0.00     0.162 HD
ENDROOT
BRANCH   2   5
ATOM      5  C   UNL d   1      27.719 -17.173  -0.442  0.00  0.00     0.225 C 
BRANCH   5   6
ATOM      6  N   UNL d   1      28.354 -16.212   0.686  0.00  0.00    -0.352 N 
ATOM      7  C   UNL d   1      27.629 -14.915   1.180  0.00  0.00     0.222 C 
ATOM      8  O   UNL d   1      26.560 -14.765   0.575  0.00  0.00    -0.273 OA
ATOM      9  H   UNL d   1      29.251 -16.643   0.954  0.00  0.00     0.162 HD
BRANCH   7  10
ATOM     10  C   UNL d   1      28.133 -13.661   2.517  0.00  0.00     0.138 C 
BRANCH  10  11
ATOM     11  C   UNL d   1      28.749 -13.735   4.455  0.00  0.00    -0.051 C 
ATOM     12  C   UNL d   1      27.772 -13.004   4.140  0.00  0.00     0.050 C 
ATOM     13  C   UNL d   1      28.145 -13.576   5.136  0.00  0.00    -0.016 C 
ATOM     14  C   UNL d   1      27.791 -12.720   6.305  0.00  0.00     0.009 C 
ATOM     15  C   UNL d   1      28.478 -13.009   7.324  0.00  0.00    -0.026 C 
ATOM     16  C   UNL d   1      28.165 -12.356   8.815  0.00  0.00     0.012 C 
ATOM     17  C   UNL d   1      29.277 -13.761   6.537  0.00  0.00    -0.022 C 
ATOM     18  C   UNL d   1      28.871 -12.445   9.993  0.00  0.00     0.001 C 
ATOM     19  C   UNL d   1      29.782 -13.413   9.781  0.00  0.00     0.001 C 
ATOM     20  C   UNL d   1      29.903 -14.081   8.219  0.00  0.00     0.012 C 
ENDBRANCH  10  11
ENDBRANCH   7  10
ENDBRANCH   5   6
ENDBRANCH   2   5
BRANCH   1  21
ATOM     21  C   UNL d   1      23.805 -17.729   0.096  0.00  0.00     0.142 C 
BRANCH  21  22
ATOM     22  C   UNL d   1      23.069 -18.226  -1.165  0.00  0.00     0.141 C 
BRANCH  22  23
ATOM     23  N   UNL d   1      21.614 -18.013  -1.130  0.00  0.00    -0.372 N 
ATOM     24  H   UNL d   1      21.260 -17.121  -1.468  0.00  0.00     0.161 HD
BRANCH  23  25
ATOM     25  C   UNL d   1      20.733 -18.947  -0.594  0.00  0.00     0.143 C 
ATOM     26  C   UNL d   1      20.997 -19.551   0.623  0.00  0.00     0.054 C 
ATOM     27  C   UNL d   1      20.016 -20.275   1.276  0.00  0.00     0.030 C 
ATOM     28  C   UNL d   1      18.858 -20.581   0.589  0.00  0.00     0.024 C 
ATOM     29  C   UNL d   1      17.766 -21.364   1.263  0.00  0.00     0.070 C 
ATOM     30  N   UNL d   1      18.751 -20.171  -0.691  0.00  0.00    -0.281 N 
ATOM     31  N   UNL d   1      19.604 -19.289  -1.252  0.00  0.00    -0.157 NA
ATOM     32  H   UNL d   1      17.997 -20.541  -1.274  0.00  0.00     0.189 HD
ENDBRANCH  23  25
ENDBRANCH  22  23
ENDBRANCH  21  22
ENDBRANCH   1  21
TORSDOF 8
ENDMDL
MODEL 2
REMARK VINA RESULT:   -32.645      4.953      9.732
REMARK INTER + INTRA:         -36.395
REMARK INTER:                 -35.032
REMARK INTRA:                  -1.363
REMARK CONF_INDEPENDENT:        2.386
REMARK UNBOUND:                -1.363
REMARK  8 active torsions:
REMARK  status: ('A' for Active; 'I' for Inactive)
REMARK    1  A    between atoms: C_5  and  N_6 
REMARK    2  A    between atoms: N_6  and  C_7 
REMARK    3  A    between atoms: C_7  and  C_8 
REMARK    4  A    between atoms: C_8  and  N_9 
REMARK       I    between atoms: N_9  and  C_10 
REMARK    5  A    between atoms: C_10  and  C_12 
REMARK    6  A    between atoms: C_12  and  N_13 
REMARK       I    between atoms: N_13  and  C_14 
REMARK    7  A    between atoms: C_14  and  C_16 
REMARK    8  A    between atoms: C_16  and  C_17 
ROOT
ATOM      1  N   UNL d   1      25.285 -17.262  -1.104  0.00  0.00    -0.358 N 
ATOM      2  C   UNL d   1      25.860 -17.692   0.106  0.00  0.00     0.235 C 
ATOM      3  O   UNL d   1      25.270 -18.510   0.813  0.00  0.00    -0.272 OA
ATOM      4  H   UNL d   1      25.754 -16.588  -1.701  0.00  0.00     0.162 HD
ENDROOT
BRANCH   2   5
ATOM      5  C   UNL d   1      27.283 -17.117   0.561  0.00  0.00     0.225 C 
BRANCH   5   6
ATOM      6  N   UNL d   1      28.563 -17.415  -0.373  0.00  0.00    -0.352 N 
ATOM      7  C   UNL d   1      28.655 -16.900  -1.850  0.00  0.00     0.222 C 
ATOM      8  O   UNL d   1      27.628 -16.281  -2.152  0.00  0.00    -0.273 OA
ATOM      9  H   UNL d   1      29.216 -17.961   0.206  0.00  0.00     0.162 HD
BRANCH   7  10
ATOM     10  C   UNL d   1      30.057 -17.067  -3.121  0.00  0.00     0.138 C 
BRANCH  10  11
ATOM     11  C   UNL d   1      30.600 -18.403  -4.557  0.00  0.00    -0.051 C 
ATOM     12  C   UNL d   1      30.235 -17.244  -4.892  0.00  0.00     0.050 C 
ATOM     13  C   UNL d   1      30.946 -18.101  -5.359  0.00  0.00    -0.016 C 
ATOM     14  C   UNL d   1      30.785 -18.059  -6.841  0.00  0.00     0.009 C 
ATOM     15  C   UNL d   1      31.145 -19.140  -7.384  0.00  0.00    -0.026 C 
ATOM     16  C   UNL d   1      31.260 -19.308  -9.029  0.00  0.00     0.012 C 
ATOM     17  C   UNL d   1      31.191 -19.707  -6.159  0.00  0.00    -0.022 C 
ATOM     18  C   UNL d   1      31.502 -20.425  -9.796  0.00  0.00     0.001 C 
ATOM     19  C   UNL d   1      31.900 -21.369  -8.922  0.00  0.00     0.001 C 
ATOM     20  C   UNL d   1      31.844 -21.005  -7.259  0.00  0.00     0.012 C 
ENDBRANCH  10  11
ENDBRANCH   7  10
ENDBRANCH   5   6
ENDBRANCH   2   5
BRANCH   1  21
ATOM     21  C   UNL d   1      23.967 -17.772  -1.558  0.00  0.00     0.142 C 
BRANCH  21  22
ATOM     22  C   UNL d   1      22.880 -17.764  -0.464  0.00  0.00     0.141 C 
BRANCH  22  23
ATOM     23  N   UNL d   1      21.511 -17.912  -0.981  0.00  0.00    -0.372 N 
ATOM     24  H   UNL d   1      21.179 -17.215  -1.643  0.00  0.00     0.161 HD
BRANCH  23  25
ATOM     25  C   UNL d   1      20.651 -18.916  -0.547  0.00  0.00     0.143 C 
ATOM     26  C   UNL d   1      20.925 -19.632   0.605  0.00  0.00     0.054 C 
ATOM     27  C   UNL d   1      19.960 -20.441   1.177  0.00  0.00     0.030 C 
ATOM     28  C   UNL d   1      18.812 -20.705   0.456  0.00  0.00     0.024 C 
ATOM     29  C   UNL d   1      17.738 -21.578   1.041  0.00  0.00     0.070 C 
ATOM     30  N   UNL d   1      18.701 -20.172  -0.777  0.00  0.00    -0.281 N 
ATOM     31  N   UNL d   1      19.533 -19.217  -1.242  0.00  0.00    -0.157 NA
ATOM     32  H   UNL d   1      17.958 -20.499  -1.399  0.00  0.00     0.189 HD
ENDBRANCH  23  25
ENDBRANCH  22  23
ENDBRANCH  21  22
ENDBRANCH   1  21
TORSDOF 8
ENDMDL
MODEL 3
REMARK VINA RESULT:   -32.278      1.148      1.397
REMARK INTER + INTRA:         -35.617
REMARK INTER:                 -34.665
REMARK INTRA:                  -0.952
REMARK CONF_INDEPENDENT:        2.386
REMARK UNBOUND:                -0.952
REMARK  8 active torsions:
REMARK  status: ('A' for Active; 'I' for Inactive)
REMARK    1  A    between atoms: C_5  and  N_6 
REMARK    2  A    between atoms: N_6  and  C_7 
REMARK    3  A    between atoms: C_7  and  C_8 
REMARK    4  A    between atoms: C_8  and  N_9 
REMARK       I    between atoms: N_9  and  C_10 
REMARK    5  A    between atoms: C_10  and  C_12 
REMARK    6  A    between atoms: C_12  and  N_13 
REMARK       I    between atoms: N_13  and  C_14 
REMARK    7  A    between atoms: C_14  and  C_16 
REMARK    8  A    between atoms: C_16  and  C_17 
ROOT
ATOM      1  N   UNL d   1      25.048 -16.513  -1.396  0.00  0.00    -0.358 N 
ATOM      2  C   UNL d   1      25.858 -16.574  -0.247  0.00  0.00     0.235 C 
ATOM      3  O   UNL d   1      25.988 -17.638   0.359  0.00  0.00    -0.272 OA
ATOM      4  H   UNL d   1      24.927 -15.646  -1.910  0.00  0.00     0.162 HD
ENDROOT
BRANCH   2   5
ATOM      5  C   UNL d   1      26.610 -15.259   0.270  0.00  0.00     0.225 C 
BRANCH   5   6
ATOM      6  N   UNL d   1      27.583 -15.386   1.548  0.00  0.00    -0.352 N 
ATOM      7  C   UNL d   1      28.254 -14.136   2.213  0.00  0.00     0.222 C 
ATOM      8  O   UNL d   1      27.934 -13.106   1.607  0.00  0.00    -0.273 OA
ATOM      9  H   UNL d   1      27.626 -16.390   1.775  0.00  0.00     0.162 HD
BRANCH   7  10
ATOM     10  C   UNL d   1      29.380 -14.014   3.739  0.00  0.00     0.138 C 
BRANCH  10  11
ATOM     11  C   UNL d   1      29.176 -14.253   5.749  0.00  0.00    -0.051 C 
ATOM     12  C   UNL d   1      29.138 -13.095   5.253  0.00  0.00     0.050 C 
ATOM     13  C   UNL d   1      28.696 -13.634   6.240  0.00  0.00    -0.016 C 
ATOM     14  C   UNL d   1      28.728 -12.636   7.348  0.00  0.00     0.009 C 
ATOM     15  C   UNL d   1      28.683 -13.191   8.481  0.00  0.00    -0.026 C 
ATOM     16  C   UNL d   1      28.507 -12.325   9.883  0.00  0.00     0.012 C 
ATOM     17  C   UNL d   1      28.905 -14.378   7.877  0.00  0.00    -0.022 C 
ATOM     18  C   UNL d   1      28.569 -12.733  11.196  0.00  0.00     0.001 C 
ATOM     19  C   UNL d   1      28.548 -14.078  11.145  0.00  0.00     0.001 C 
ATOM     20  C   UNL d   1      28.609 -14.829   9.618  0.00  0.00     0.012 C 
ENDBRANCH  10  11
ENDBRANCH   7  10
ENDBRANCH   5   6
ENDBRANCH   2   5
BRANCH   1  21
ATOM     21  C   UNL d   1      24.335 -17.711  -1.905  0.00  0.00     0.142 C 
BRANCH  21  22
ATOM     22  C   UNL d   1      23.460 -18.415  -0.849  0.00  0.00     0.141 C 
BRANCH  22  23
ATOM     23  N   UNL d   1      22.042 -18.027  -0.892  0.00  0.00    -0.372 N 
ATOM     24  H   UNL d   1      21.824 -17.067  -1.147  0.00  0.00     0.161 HD
BRANCH  23  25
ATOM     25  C   UNL d   1      21.016 -18.896  -0.534  0.00  0.00     0.143 C 
ATOM     26  C   UNL d   1      21.277 -20.021   0.230  0.00  0.00     0.054 C 
ATOM     27  C   UNL d   1      20.241 -20.738   0.801  0.00  0.00     0.030 C 
ATOM     28  C   UNL d   1      18.949 -20.457   0.404  0.00  0.00     0.024 C 
ATOM     29  C   UNL d   1      17.795 -21.212   1.001  0.00  0.00     0.070 C 
ATOM     30  N   UNL d   1      18.766 -19.506  -0.534  0.00  0.00    -0.281 N 
ATOM     31  N   UNL d   1      19.745 -18.664  -0.927  0.00  0.00    -0.157 NA
ATOM     32  H   UNL d   1      17.850 -19.410  -0.977  0.00  0.00     0.189 HD
ENDBRANCH  23  25
ENDBRANCH  22  23
ENDBRANCH  21  22
ENDBRANCH   1  21
TORSDOF 8
ENDMDL
MODEL 4
REMARK VINA RESULT:   -31.374      5.267      8.349
REMARK INTER + INTRA:         -35.134
REMARK INTER:                 -33.761
REMARK INTRA:                  -1.373
REMARK CONF_INDEPENDENT:        2.386
REMARK UNBOUND:                -1.373
REMARK  8 active torsions:
REMARK  status: ('A' for Active; 'I' for Inactive)
REMARK    1  A    between atoms: C_5  and  N_6 
REMARK    2  A    between atoms: N_6  and  C_7 
REMARK    3  A    between atoms: C_7  and  C_8 
REMARK    4  A    between atoms: C_8  and  N_9 
REMARK       I    between atoms: N_9  and  C_10 
REMARK    5  A    between atoms: C_10  and  C_12 
REMARK    6  A    between atoms: C_12  and  N_13 
REMARK       I    between atoms: N_13  and  C_14 
REMARK    7  A    between atoms: C_14  and  C_16 
REMARK    8  A    between atoms: C_16  and  C_17 
ROOT
ATOM      1  N   UNL d   1      25.247 -17.554  -0.503  0.00  0.00    -0.358 N 
ATOM      2  C   UNL d   1      26.422 -17.812   0.228  0.00  0.00     0.235 C 
ATOM      3  O   UNL d   1      26.392 -18.577   1.193  0.00  0.00    -0.272 OA
ATOM      4  H   UNL d   1      25.251 -16.926  -1.300  0.00  0.00     0.162 HD
ENDROOT
BRANCH   2   5
ATOM      5  C   UNL d   1      27.796 -17.108  -0.195  0.00  0.00     0.225 C 
BRANCH   5   6
ATOM      6  N   UNL d   1      27.971 -16.631  -1.725  0.00  0.00    -0.352 N 
ATOM      7  C   UNL d   1      26.982 -15.622  -2.402  0.00  0.00     0.222 C 
ATOM      8  O   UNL d   1      26.093 -15.295  -1.606  0.00  0.00    -0.273 OA
ATOM      9  H   UNL d   1      28.811 -17.111  -2.078  0.00  0.00     0.162 HD
BRANCH   7  10
ATOM     10  C   UNL d   1      27.000 -14.869  -4.147  0.00  0.00     0.138 C 
BRANCH  10  11
ATOM     11  C   UNL d   1      27.175 -13.009  -4.953  0.00  0.00    -0.051 C 
ATOM     12  C   UNL d   1      26.044 -13.422  -4.579  0.00  0.00     0.050 C 
ATOM     13  C   UNL d   1      26.577 -12.346  -4.713  0.00  0.00    -0.016 C 
ATOM     14  C   UNL d   1      25.537 -11.385  -5.183  0.00  0.00     0.009 C 
ATOM     15  C   UNL d   1      26.049 -10.373  -5.735  0.00  0.00    -0.026 C 
ATOM     16  C   UNL d   1      25.144  -9.055  -6.176  0.00  0.00     0.012 C 
ATOM     17  C   UNL d   1      27.237 -11.014  -5.746  0.00  0.00    -0.022 C 
ATOM     18  C   UNL d   1      25.494  -7.935  -6.895  0.00  0.00     0.001 C 
ATOM     19  C   UNL d   1      26.837  -7.974  -6.972  0.00  0.00     0.001 C 
ATOM     20  C   UNL d   1      27.641  -9.346  -6.361  0.00  0.00     0.012 C 
ENDBRANCH  10  11
ENDBRANCH   7  10
ENDBRANCH   5   6
ENDBRANCH   2   5
BRANCH   1  21
ATOM     21  C   UNL d   1      23.956 -18.188  -0.140  0.00  0.00     0.142 C 
BRANCH  21  22
ATOM     22  C   UNL d   1      23.005 -18.404  -1.334  0.00  0.00     0.141 C 
BRANCH  22  23
ATOM     23  N   UNL d   1      21.600 -18.080  -1.045  0.00  0.00    -0.372 N 
ATOM     24  H   UNL d   1      21.306 -17.112  -1.152  0.00  0.00     0.161 HD
BRANCH  23  25
ATOM     25  C   UNL d   1      20.695 -19.026  -0.572  0.00  0.00     0.143 C 
ATOM     26  C   UNL d   1      20.924 -19.687   0.623  0.00  0.00     0.054 C 
ATOM     27  C   UNL d   1      19.920 -20.427   1.220  0.00  0.00     0.030 C 
ATOM     28  C   UNL d   1      18.775 -20.688   0.495  0.00  0.00     0.024 C 
ATOM     29  C   UNL d   1      17.659 -21.487   1.108  0.00  0.00     0.070 C 
ATOM     30  N   UNL d   1      18.703 -20.221  -0.768  0.00  0.00    -0.281 N 
ATOM     31  N   UNL d   1      19.578 -19.325  -1.270  0.00  0.00    -0.157 NA
ATOM     32  H   UNL d   1      17.958 -20.555  -1.384  0.00  0.00     0.189 HD
ENDBRANCH  23  25
ENDBRANCH  22  23
ENDBRANCH  21  22
ENDBRANCH   1  21
TORSDOF 8
ENDMDL
MODEL 5
REMARK VINA RESULT:   -31.339      6.474      9.032
REMARK INTER + INTRA:         -34.360
REMARK INTER:                 -33.725
REMARK INTRA:                  -0.634
REMARK CONF_INDEPENDENT:        2.386
REMARK UNBOUND:                -0.634
REMARK  8 active torsions:
REMARK  status: ('A' for Active; 'I' for Inactive)
REMARK    1  A    between atoms: C_5  and  N_6 
REMARK    2  A    between atoms: N_6  and  C_7 
REMARK    3  A    between atoms: C_7  and  C_8 
REMARK    4  A    between atoms: C_8  and  N_9 
REMARK       I    between atoms: N_9  and  C_10 
REMARK    5  A    between atoms: C_10  and  C_12 
REMARK    6  A    between atoms: C_12  and  N_13 
REMARK       I    between atoms: N_13  and  C_14 
REMARK    7  A    between atoms: C_14  and  C_16 
REMARK    8  A    between atoms: C_16  and  C_17 
ROOT
ATOM      1  N   UNL d   1      25.170 -16.646  -0.836  0.00  0.00    -0.358 N 
ATOM      2  C   UNL d   1      25.388 -15.892  -2.004  0.00  0.00     0.235 C 
ATOM      3  O   UNL d   1      24.430 -15.444  -2.637  0.00  0.00    -0.272 OA
ATOM      4  H   UNL d   1      25.945 -17.024  -0.301  0.00  0.00     0.162 HD
ENDROOT
BRANCH   2   5
ATOM      5  C   UNL d   1      26.882 -15.616  -2.508  0.00  0.00     0.225 C 
BRANCH   5   6
ATOM      6  N   UNL d   1      27.197 -14.212  -3.236  0.00  0.00    -0.352 N 
ATOM      7  C   UNL d   1      27.025 -14.018  -4.781  0.00  0.00     0.222 C 
ATOM      8  O   UNL d   1      26.644 -15.071  -5.305  0.00  0.00    -0.273 OA
ATOM      9  H   UNL d   1      27.499 -13.567  -2.492  0.00  0.00     0.162 HD
BRANCH   7  10
ATOM     10  C   UNL d   1      27.273 -12.472  -5.857  0.00  0.00     0.138 C 
BRANCH  10  11
ATOM     11  C   UNL d   1      26.263 -10.742  -6.215  0.00  0.00    -0.051 C 
ATOM     12  C   UNL d   1      26.653 -11.004  -5.046  0.00  0.00     0.050 C 
ATOM     13  C   UNL d   1      26.410 -10.004  -5.678  0.00  0.00    -0.016 C 
ATOM     14  C   UNL d   1      25.806  -9.015  -4.739  0.00  0.00     0.009 C 
ATOM     15  C   UNL d   1      25.154  -8.124  -5.351  0.00  0.00    -0.026 C 
ATOM     16  C   UNL d   1      24.542  -6.790  -4.579  0.00  0.00     0.012 C 
ATOM     17  C   UNL d   1      25.248  -8.866  -6.474  0.00  0.00    -0.022 C 
ATOM     18  C   UNL d   1      23.708  -5.798  -5.041  0.00  0.00     0.001 C 
ATOM     19  C   UNL d   1      23.670  -5.968  -6.377  0.00  0.00     0.001 C 
ATOM     20  C   UNL d   1      24.456  -7.325  -7.041  0.00  0.00     0.012 C 
ENDBRANCH  10  11
ENDBRANCH   7  10
ENDBRANCH   5   6
ENDBRANCH   2   5
BRANCH   1  21
ATOM     21  C   UNL d   1      23.799 -16.923  -0.339  0.00  0.00     0.142 C 
BRANCH  21  22
ATOM     22  C   UNL d   1      23.178 -18.218  -0.901  0.00  0.00     0.141 C 
BRANCH  22  23
ATOM     23  N   UNL d   1      21.734 -18.121  -1.164  0.00  0.00    -0.372 N 
ATOM     24  H   UNL d   1      21.409 -17.345  -1.736  0.00  0.00     0.161 HD
BRANCH  23  25
ATOM     25  C   UNL d   1      20.811 -19.002  -0.608  0.00  0.00     0.143 C 
ATOM     26  C   UNL d   1      21.036 -19.571   0.634  0.00  0.00     0.054 C 
ATOM     27  C   UNL d   1      20.020 -20.233   1.298  0.00  0.00     0.030 C 
ATOM     28  C   UNL d   1      18.860 -20.521   0.607  0.00  0.00     0.024 C 
ATOM     29  C   UNL d   1      17.731 -21.237   1.293  0.00  0.00     0.070 C 
ATOM     30  N   UNL d   1      18.785 -20.154  -0.688  0.00  0.00    -0.281 N 
ATOM     31  N   UNL d   1      19.678 -19.325  -1.269  0.00  0.00    -0.157 NA
ATOM     32  H   UNL d   1      18.025 -20.516  -1.268  0.00  0.00     0.189 HD
ENDBRANCH  23  25
ENDBRANCH  22  23
ENDBRANCH  21  22
ENDBRANCH   1  21
TORSDOF 8
ENDMDL
MODEL 6
REMARK VINA RESULT:   -31.331      5.430      9.317
REMARK INTER + INTRA:         -35.085
REMARK INTER:                 -33.717
REMARK INTRA:                  -1.368
REMARK CONF_INDEPENDENT:        2.386
REMARK UNBOUND:                -1.368
REMARK  8 active torsions:
REMARK  status: ('A' for Active; 'I' for Inactive)
REMARK    1  A    between atoms: C_5  and  N_6 
REMARK    2  A    between atoms: N_6  and  C_7 
REMARK    3  A    between atoms: C_7  and  C_8 
REMARK    4  A    between atoms: C_8  and  N_9 
REMARK       I    between atoms: N_9  and  C_10 
REMARK    5  A    between atoms: C_10  and  C_12 
REMARK    6  A    between atoms: C_12  and  N_13 
REMARK       I    between atoms: N_13  and  C_14 
REMARK    7  A    between atoms: C_14  and  C_16 
REMARK    8  A    between atoms: C_16  and  C_17 
ROOT
ATOM      1  N   UNL d   1      25.148 -17.353  -0.726  0.00  0.00    -0.358 N 
ATOM      2  C   UNL d   1      26.387 -17.569  -0.094  0.00  0.00     0.235 C 
ATOM      3  O   UNL d   1      26.544 -18.548   0.637  0.00  0.00    -0.272 OA
ATOM      4  H   UNL d   1      24.998 -16.553  -1.332  0.00  0.00     0.162 HD
ENDROOT
BRANCH   2   5
ATOM      5  C   UNL d   1      27.590 -16.540  -0.327  0.00  0.00     0.225 C 
BRANCH   5   6
ATOM      6  N   UNL d   1      28.040 -16.217  -1.841  0.00  0.00    -0.352 N 
ATOM      7  C   UNL d   1      27.044 -15.632  -2.899  0.00  0.00     0.222 C 
ATOM      8  O   UNL d   1      25.922 -15.490  -2.398  0.00  0.00    -0.273 OA
ATOM      9  H   UNL d   1      29.038 -16.467  -1.901  0.00  0.00     0.162 HD
BRANCH   7  10
ATOM     10  C   UNL d   1      27.335 -15.121  -4.706  0.00  0.00     0.138 C 
BRANCH  10  11
ATOM     11  C   UNL d   1      28.938 -14.907  -5.942  0.00  0.00    -0.051 C 
ATOM     12  C   UNL d   1      28.074 -13.992  -5.879  0.00  0.00     0.050 C 
ATOM     13  C   UNL d   1      29.249 -14.062  -6.150  0.00  0.00    -0.016 C 
ATOM     14  C   UNL d   1      29.521 -13.071  -7.231  0.00  0.00     0.009 C 
ATOM     15  C   UNL d   1      30.583 -13.340  -7.858  0.00  0.00    -0.026 C 
ATOM     16  C   UNL d   1      31.233 -12.306  -8.979  0.00  0.00     0.012 C 
ATOM     17  C   UNL d   1      30.604 -14.545  -7.248  0.00  0.00    -0.022 C 
ATOM     18  C   UNL d   1      32.289 -12.480  -9.844  0.00  0.00     0.001 C 
ATOM     19  C   UNL d   1      32.899 -13.606  -9.428  0.00  0.00     0.001 C 
ATOM     20  C   UNL d   1      32.174 -14.502  -8.175  0.00  0.00     0.012 C 
ENDBRANCH  10  11
ENDBRANCH   7  10
ENDBRANCH   5   6
ENDBRANCH   2   5
BRANCH   1  21
ATOM     21  C   UNL d   1      24.009 -18.285  -0.534  0.00  0.00     0.142 C 
BRANCH  21  22
ATOM     22  C   UNL d   1      22.695 -17.593  -0.122  0.00  0.00     0.141 C 
BRANCH  22  23
ATOM     23  N   UNL d   1      21.525 -18.016  -0.907  0.00  0.00    -0.372 N 
ATOM     24  H   UNL d   1      21.342 -17.528  -1.780  0.00  0.00     0.161 HD
BRANCH  23  25
ATOM     25  C   UNL d   1      20.640 -18.994  -0.464  0.00  0.00     0.143 C 
ATOM     26  C   UNL d   1      20.881 -19.687   0.710  0.00  0.00     0.054 C 
ATOM     27  C   UNL d   1      19.892 -20.465   1.283  0.00  0.00     0.030 C 
ATOM     28  C   UNL d   1      18.753 -20.728   0.547  0.00  0.00     0.024 C 
ATOM     29  C   UNL d   1      17.653 -21.568   1.134  0.00  0.00     0.070 C 
ATOM     30  N   UNL d   1      18.673 -20.223  -0.700  0.00  0.00    -0.281 N 
ATOM     31  N   UNL d   1      19.530 -19.294  -1.173  0.00  0.00    -0.157 NA
ATOM     32  H   UNL d   1      17.936 -20.553  -1.327  0.00  0.00     0.189 HD
ENDBRANCH  23  25
ENDBRANCH  22  23
ENDBRANCH  21  22
ENDBRANCH   1  21
TORSDOF 8
ENDMDL
MODEL 7
REMARK VINA RESULT:   -30.980      5.377      7.364
REMARK INTER + INTRA:         -34.753
REMARK INTER:                 -33.367
REMARK INTRA:                  -1.386
REMARK CONF_INDEPENDENT:        2.386
REMARK UNBOUND:                -1.386
REMARK  8 active torsions:
REMARK  status: ('A' for Active; 'I' for Inactive)
REMARK    1  A    between atoms: C_5  and  N_6 
REMARK    2  A    between atoms: N_6  and  C_7 
REMARK    3  A    between atoms: C_7  and  C_8 
REMARK    4  A    between atoms: C_8  and  N_9 
REMARK       I    between atoms: N_9  and  C_10 
REMARK    5  A    between atoms: C_10  and  C_12 
REMARK    6  A    between atoms: C_12  and  N_13 
REMARK       I    between atoms: N_13  and  C_14 
REMARK    7  A    between atoms: C_14  and  C_16 
REMARK    8  A    between atoms: C_16  and  C_17 
ROOT
ATOM      1  N   UNL d   1      25.325 -17.606  -0.355  0.00  0.00    -0.358 N 
ATOM      2  C   UNL d   1      26.572 -17.797   0.268  0.00  0.00     0.235 C 
ATOM      3  O   UNL d   1      26.649 -18.456   1.306  0.00  0.00    -0.272 OA
ATOM      4  H   UNL d   1      25.241 -17.066  -1.210  0.00  0.00     0.162 HD
ENDROOT
BRANCH   2   5
ATOM      5  C   UNL d   1      27.891 -17.156  -0.374  0.00  0.00     0.225 C 
BRANCH   5   6
ATOM      6  N   UNL d   1      27.761 -15.745  -1.143  0.00  0.00    -0.352 N 
ATOM      7  C   UNL d   1      26.787 -15.543  -2.353  0.00  0.00     0.222 C 
ATOM      8  O   UNL d   1      26.190 -16.597  -2.603  0.00  0.00    -0.273 OA
ATOM      9  H   UNL d   1      28.410 -15.102  -0.669  0.00  0.00     0.162 HD
BRANCH   7  10
ATOM     10  C   UNL d   1      26.412 -13.988  -3.379  0.00  0.00     0.138 C 
BRANCH  10  11
ATOM     11  C   UNL d   1      26.478 -11.975  -3.090  0.00  0.00    -0.051 C 
ATOM     12  C   UNL d   1      25.918 -12.437  -4.119  0.00  0.00     0.050 C 
ATOM     13  C   UNL d   1      25.819 -11.436  -3.450  0.00  0.00    -0.016 C 
ATOM     14  C   UNL d   1      25.509 -10.307  -4.375  0.00  0.00     0.009 C 
ATOM     15  C   UNL d   1      25.787  -9.189  -3.860  0.00  0.00    -0.026 C 
ATOM     16  C   UNL d   1      25.366  -7.756  -4.580  0.00  0.00     0.012 C 
ATOM     17  C   UNL d   1      26.444  -9.837  -2.875  0.00  0.00    -0.022 C 
ATOM     18  C   UNL d   1      25.692  -6.461  -4.246  0.00  0.00     0.001 C 
ATOM     19  C   UNL d   1      26.237  -6.545  -3.018  0.00  0.00     0.001 C 
ATOM     20  C   UNL d   1      26.496  -8.091  -2.352  0.00  0.00     0.012 C 
ENDBRANCH  10  11
ENDBRANCH   7  10
ENDBRANCH   5   6
ENDBRANCH   2   5
BRANCH   1  21
ATOM     21  C   UNL d   1      24.081 -18.184   0.211  0.00  0.00     0.142 C 
BRANCH  21  22
ATOM     22  C   UNL d   1      22.793 -17.472  -0.249  0.00  0.00     0.141 C 
BRANCH  22  23
ATOM     23  N   UNL d   1      21.939 -18.289  -1.124  0.00  0.00    -0.372 N 
ATOM     24  H   UNL d   1      22.065 -18.194  -2.129  0.00  0.00     0.161 HD
BRANCH  23  25
ATOM     25  C   UNL d   1      20.936 -19.118  -0.630  0.00  0.00     0.143 C 
ATOM     26  C   UNL d   1      21.133 -19.854   0.526  0.00  0.00     0.054 C 
ATOM     27  C   UNL d   1      20.068 -20.471   1.157  0.00  0.00     0.030 C 
ATOM     28  C   UNL d   1      18.860 -20.539   0.492  0.00  0.00     0.024 C 
ATOM     29  C   UNL d   1      17.676 -21.198   1.143  0.00  0.00     0.070 C 
ATOM     30  N   UNL d   1      18.787 -20.013  -0.748  0.00  0.00    -0.281 N 
ATOM     31  N   UNL d   1      19.752 -19.228  -1.270  0.00  0.00    -0.157 NA
ATOM     32  H   UNL d   1      17.970 -20.213  -1.329  0.00  0.00     0.189 HD
ENDBRANCH  23  25
ENDBRANCH  22  23
ENDBRANCH  21  22
ENDBRANCH   1  21
TORSDOF 8
ENDMDL
