MODEL 1
REMARK VINA RESULT:    -7.270      0.000      0.000
REMARK INTER + INTRA:         -10.206
REMARK INTER:                  -8.761
REMARK INTRA:                  -1.444
REMARK CONF_INDEPENDENT:        1.492
REMARK UNBOUND:                -1.444
REMARK  5 active torsions:
REMARK  status: ('A' for Active; 'I' for Inactive)
REMARK    1  A    between atoms: C_2  and  N_4 
REMARK       I    between atoms: N_4  and  C_5 
REMARK       I    between atoms: C_5  and  N_7 
REMARK    2  A    between atoms: N_7  and  N_8 
REMARK       I    between atoms: N_8  and  C_9 
REMARK    3  A    between atoms: C_9  and  C_11 
REMARK    4  A    between atoms: C_11  and  C_12 
REMARK    5  A    between atoms: C_15  and  N_16 
ROOT
ATOM      1  N   UNL d   1      26.951 -15.415   0.816  0.00  0.00    -0.266 N 
ATOM      2  C   UNL d   1      26.710 -16.579   0.107  0.00  0.00     0.240 C 
ATOM      3  O   UNL d   1      27.253 -17.630   0.460  0.00  0.00    -0.272 OA
ATOM      4  H   UNL d   1      26.515 -14.511   0.641  0.00  0.00     0.190 HD
ENDROOT
BRANCH   2   5
ATOM      5  C   UNL d   1      25.773 -16.472  -1.120  0.00  0.00     0.143 C 
BRANCH   5   6
ATOM      6  C   UNL d   1      24.431 -17.182  -0.934  0.00  0.00    -0.049 A 
ATOM      7  C   UNL d   1      23.242 -16.440  -1.032  0.00  0.00     0.010 A 
ATOM      8  C   UNL d   1      21.992 -17.040  -0.895  0.00  0.00     0.036 A 
ATOM      9  C   UNL d   1      21.911 -18.416  -0.686  0.00  0.00     0.102 A 
ATOM     10  C   UNL d   1      23.079 -19.176  -0.525  0.00  0.00     0.036 A 
ATOM     11  C   UNL d   1      24.336 -18.555  -0.638  0.00  0.00     0.010 A 
BRANCH   9  12
ATOM     12  N   UNL d   1      20.594 -19.065  -0.702  0.00  0.00    -0.116 N 
ATOM     13  O   UNL d   1      20.280 -19.708  -1.715  0.00  0.00    -0.532 OA
ATOM     14  O   UNL d   1      19.879 -18.950   0.304  0.00  0.00    -0.532 OA
ENDBRANCH   9  12
ENDBRANCH   5   6
ENDBRANCH   2   5
BRANCH   1  15
ATOM     15  N   UNL d   1      27.843 -15.480   1.934  0.00  0.00    -0.249 N 
ATOM     16  C   UNL d   1      27.796 -14.490   2.890  0.00  0.00     0.335 C 
ATOM     17  N   UNL d   1      28.725 -14.608   3.905  0.00  0.00    -0.338 N 
ATOM     18  O   UNL d   1      26.993 -13.556   2.801  0.00  0.00    -0.246 OA
ATOM     19  H   UNL d   1      29.307 -15.433   3.952  0.00  0.00     0.164 HD
ATOM     20  H   UNL d   1      28.436 -16.304   1.983  0.00  0.00     0.192 HD
BRANCH  17  21
ATOM     21  C   UNL d   1      28.831 -13.609   4.982  0.00  0.00     0.078 C 
ATOM     22  C   UNL d   1      27.481 -13.289   5.639  0.00  0.00     0.032 C 
ATOM     23  C   UNL d   1      29.794 -14.074   6.077  0.00  0.00     0.032 C 
ENDBRANCH  17  21
ENDBRANCH   1  15
TORSDOF 5
ENDMDL
MODEL 2
REMARK VINA RESULT:    -6.932      3.587      5.568
REMARK INTER + INTRA:         -10.025
REMARK INTER:                  -8.423
REMARK INTRA:                  -1.601
REMARK CONF_INDEPENDENT:        1.492
REMARK UNBOUND:                -1.601
REMARK  5 active torsions:
REMARK  status: ('A' for Active; 'I' for Inactive)
REMARK    1  A    between atoms: C_2  and  N_4 
REMARK       I    between atoms: N_4  and  C_5 
REMARK       I    between atoms: C_5  and  N_7 
REMARK    2  A    between atoms: N_7  and  N_8 
REMARK       I    between atoms: N_8  and  C_9 
REMARK    3  A    between atoms: C_9  and  C_11 
REMARK    4  A    between atoms: C_11  and  C_12 
REMARK    5  A    between atoms: C_15  and  N_16 
ROOT
ATOM      1  N   UNL d   1      25.948 -15.307  -1.789  0.00  0.00    -0.266 N 
ATOM      2  C   UNL d   1      26.055 -15.605  -0.442  0.00  0.00     0.240 C 
ATOM      3  O   UNL d   1      26.348 -14.712   0.359  0.00  0.00    -0.272 OA
ATOM      4  H   UNL d   1      25.662 -15.955  -2.520  0.00  0.00     0.190 HD
ENDROOT
BRANCH   2   5
ATOM      5  C   UNL d   1      25.816 -17.078  -0.028  0.00  0.00     0.143 C 
BRANCH   5   6
ATOM      6  C   UNL d   1      24.388 -17.565  -0.279  0.00  0.00    -0.049 A 
ATOM      7  C   UNL d   1      23.397 -16.634  -0.631  0.00  0.00     0.010 A 
ATOM      8  C   UNL d   1      22.086 -17.024  -0.894  0.00  0.00     0.036 A 
ATOM      9  C   UNL d   1      21.750 -18.377  -0.838  0.00  0.00     0.102 A 
ATOM     10  C   UNL d   1      22.700 -19.325  -0.432  0.00  0.00     0.036 A 
ATOM     11  C   UNL d   1      24.014 -18.915  -0.143  0.00  0.00     0.010 A 
BRANCH   9  12
ATOM     12  N   UNL d   1      20.411 -18.798  -1.270  0.00  0.00    -0.116 N 
ATOM     13  O   UNL d   1      20.326 -19.815  -1.974  0.00  0.00    -0.532 OA
ATOM     14  O   UNL d   1      19.442 -18.125  -0.891  0.00  0.00    -0.532 OA
ENDBRANCH   9  12
ENDBRANCH   5   6
ENDBRANCH   2   5
BRANCH   1  15
ATOM     15  N   UNL d   1      26.199 -13.960  -2.201  0.00  0.00    -0.249 N 
ATOM     16  C   UNL d   1      25.845 -13.569  -3.474  0.00  0.00     0.335 C 
ATOM     17  N   UNL d   1      26.170 -12.268  -3.802  0.00  0.00    -0.338 N 
ATOM     18  O   UNL d   1      25.309 -14.360  -4.256  0.00  0.00    -0.246 OA
ATOM     19  H   UNL d   1      26.547 -11.657  -3.091  0.00  0.00     0.164 HD
ATOM     20  H   UNL d   1      26.585 -13.341  -1.493  0.00  0.00     0.192 HD
BRANCH  17  21
ATOM     21  C   UNL d   1      25.895 -11.710  -5.137  0.00  0.00     0.078 C 
ATOM     22  C   UNL d   1      25.645 -10.195  -5.115  0.00  0.00     0.032 C 
ATOM     23  C   UNL d   1      27.048 -11.989  -6.103  0.00  0.00     0.032 C 
ENDBRANCH  17  21
ENDBRANCH   1  15
TORSDOF 5
ENDMDL
MODEL 3
REMARK VINA RESULT:    -6.873      3.852      7.634
REMARK INTER + INTRA:          -9.973
REMARK INTER:                  -8.365
REMARK INTRA:                  -1.609
REMARK CONF_INDEPENDENT:        1.492
REMARK UNBOUND:                -1.609
REMARK  5 active torsions:
REMARK  status: ('A' for Active; 'I' for Inactive)
REMARK    1  A    between atoms: C_2  and  N_4 
REMARK       I    between atoms: N_4  and  C_5 
REMARK       I    between atoms: C_5  and  N_7 
REMARK    2  A    between atoms: N_7  and  N_8 
REMARK       I    between atoms: N_8  and  C_9 
REMARK    3  A    between atoms: C_9  and  C_11 
REMARK    4  A    between atoms: C_11  and  C_12 
REMARK    5  A    between atoms: C_15  and  N_16 
ROOT
ATOM      1  N   UNL d   1      24.473 -17.503   0.082  0.00  0.00    -0.266 N 
ATOM      2  C   UNL d   1      25.825 -17.787   0.147  0.00  0.00     0.240 C 
ATOM      3  O   UNL d   1      26.195 -18.944   0.366  0.00  0.00    -0.272 OA
ATOM      4  H   UNL d   1      24.066 -16.597  -0.143  0.00  0.00     0.190 HD
ENDROOT
BRANCH   2   5
ATOM      5  C   UNL d   1      26.802 -16.601  -0.043  0.00  0.00     0.143 C 
BRANCH   5   6
ATOM      6  C   UNL d   1      26.944 -16.146  -1.497  0.00  0.00    -0.049 A 
ATOM      7  C   UNL d   1      25.796 -15.772  -2.215  0.00  0.00     0.010 A 
ATOM      8  C   UNL d   1      25.870 -15.327  -3.534  0.00  0.00     0.036 A 
ATOM      9  C   UNL d   1      27.116 -15.221  -4.152  0.00  0.00     0.102 A 
ATOM     10  C   UNL d   1      28.275 -15.642  -3.484  0.00  0.00     0.036 A 
ATOM     11  C   UNL d   1      28.184 -16.114  -2.162  0.00  0.00     0.010 A 
BRANCH   9  12
ATOM     12  N   UNL d   1      27.202 -14.604  -5.481  0.00  0.00    -0.116 N 
ATOM     13  O   UNL d   1      27.784 -15.237  -6.374  0.00  0.00    -0.532 OA
ATOM     14  O   UNL d   1      26.671 -13.495  -5.641  0.00  0.00    -0.532 OA
ENDBRANCH   9  12
ENDBRANCH   5   6
ENDBRANCH   2   5
BRANCH   1  15
ATOM     15  N   UNL d   1      23.549 -18.577   0.291  0.00  0.00    -0.249 N 
ATOM     16  C   UNL d   1      22.209 -18.365   0.055  0.00  0.00     0.335 C 
ATOM     17  N   UNL d   1      21.387 -19.440   0.329  0.00  0.00    -0.338 N 
ATOM     18  O   UNL d   1      21.796 -17.270  -0.339  0.00  0.00    -0.246 OA
ATOM     19  H   UNL d   1      21.798 -20.327   0.585  0.00  0.00     0.164 HD
ATOM     20  H   UNL d   1      23.956 -19.469   0.555  0.00  0.00     0.192 HD
BRANCH  17  21
ATOM     21  C   UNL d   1      19.925 -19.362   0.168  0.00  0.00     0.078 C 
ATOM     22  C   UNL d   1      19.463 -19.641  -1.270  0.00  0.00     0.032 C 
ATOM     23  C   UNL d   1      19.211 -20.349   1.096  0.00  0.00     0.032 C 
ENDBRANCH  17  21
ENDBRANCH   1  15
TORSDOF 5
ENDMDL
MODEL 4
REMARK VINA RESULT:    -6.797      4.369      8.169
REMARK INTER + INTRA:          -9.642
REMARK INTER:                  -8.288
REMARK INTRA:                  -1.354
REMARK CONF_INDEPENDENT:        1.492
REMARK UNBOUND:                -1.354
REMARK  5 active torsions:
REMARK  status: ('A' for Active; 'I' for Inactive)
REMARK    1  A    between atoms: C_2  and  N_4 
REMARK       I    between atoms: N_4  and  C_5 
REMARK       I    between atoms: C_5  and  N_7 
REMARK    2  A    between atoms: N_7  and  N_8 
REMARK       I    between atoms: N_8  and  C_9 
REMARK    3  A    between atoms: C_9  and  C_11 
REMARK    4  A    between atoms: C_11  and  C_12 
REMARK    5  A    between atoms: C_15  and  N_16 
ROOT
ATOM      1  N   UNL d   1      23.521 -17.000  -0.949  0.00  0.00    -0.266 N 
ATOM      2  C   UNL d   1      24.873 -16.715  -0.890  0.00  0.00     0.240 C 
ATOM      3  O   UNL d   1      25.647 -17.535  -0.387  0.00  0.00    -0.272 OA
ATOM      4  H   UNL d   1      22.809 -16.418  -1.388  0.00  0.00     0.190 HD
ENDROOT
BRANCH   2   5
ATOM      5  C   UNL d   1      25.328 -15.346  -1.452  0.00  0.00     0.143 C 
BRANCH   5   6
ATOM      6  C   UNL d   1      26.286 -15.455  -2.640  0.00  0.00    -0.049 A 
ATOM      7  C   UNL d   1      25.819 -15.145  -3.928  0.00  0.00     0.010 A 
ATOM      8  C   UNL d   1      26.654 -15.204  -5.042  0.00  0.00     0.036 A 
ATOM      9  C   UNL d   1      27.995 -15.548  -4.876  0.00  0.00     0.102 A 
ATOM     10  C   UNL d   1      28.478 -15.920  -3.613  0.00  0.00     0.036 A 
ATOM     11  C   UNL d   1      27.619 -15.882  -2.500  0.00  0.00     0.010 A 
BRANCH   9  12
ATOM     12  N   UNL d   1      28.904 -15.453  -6.025  0.00  0.00    -0.116 N 
ATOM     13  O   UNL d   1      29.978 -16.070  -5.964  0.00  0.00    -0.532 OA
ATOM     14  O   UNL d   1      28.538 -14.779  -6.999  0.00  0.00    -0.532 OA
ENDBRANCH   9  12
ENDBRANCH   5   6
ENDBRANCH   2   5
BRANCH   1  15
ATOM     15  N   UNL d   1      23.071 -18.245  -0.403  0.00  0.00    -0.249 N 
ATOM     16  C   UNL d   1      21.725 -18.536  -0.416  0.00  0.00     0.335 C 
ATOM     17  N   UNL d   1      21.377 -19.734   0.176  0.00  0.00    -0.338 N 
ATOM     18  O   UNL d   1      20.906 -17.746  -0.895  0.00  0.00    -0.246 OA
ATOM     19  H   UNL d   1      22.104 -20.362   0.489  0.00  0.00     0.164 HD
ATOM     20  H   UNL d   1      23.797 -18.878  -0.080  0.00  0.00     0.192 HD
BRANCH  17  21
ATOM     21  C   UNL d   1      19.975 -20.173   0.280  0.00  0.00     0.078 C 
ATOM     22  C   UNL d   1      19.282 -19.673   1.556  0.00  0.00     0.032 C 
ATOM     23  C   UNL d   1      19.155 -19.700  -0.923  0.00  0.00     0.032 C 
ENDBRANCH  17  21
ENDBRANCH   1  15
TORSDOF 5
ENDMDL
MODEL 5
REMARK VINA RESULT:    -6.584      3.495      4.823
REMARK INTER + INTRA:          -9.597
REMARK INTER:                  -8.076
REMARK INTRA:                  -1.521
REMARK CONF_INDEPENDENT:        1.492
REMARK UNBOUND:                -1.521
REMARK  5 active torsions:
REMARK  status: ('A' for Active; 'I' for Inactive)
REMARK    1  A    between atoms: C_2  and  N_4 
REMARK       I    between atoms: N_4  and  C_5 
REMARK       I    between atoms: C_5  and  N_7 
REMARK    2  A    between atoms: N_7  and  N_8 
REMARK       I    between atoms: N_8  and  C_9 
REMARK    3  A    between atoms: C_9  and  C_11 
REMARK    4  A    between atoms: C_11  and  C_12 
REMARK    5  A    between atoms: C_15  and  N_16 
ROOT
ATOM      1  N   UNL d   1      27.929 -17.100  -0.985  0.00  0.00    -0.266 N 
ATOM      2  C   UNL d   1      26.734 -17.133  -0.289  0.00  0.00     0.240 C 
ATOM      3  O   UNL d   1      26.658 -17.776   0.762  0.00  0.00    -0.272 OA
ATOM      4  H   UNL d   1      28.111 -16.561  -1.830  0.00  0.00     0.190 HD
ENDROOT
BRANCH   2   5
ATOM      5  C   UNL d   1      25.542 -16.361  -0.905  0.00  0.00     0.143 C 
BRANCH   5   6
ATOM      6  C   UNL d   1      24.221 -17.132  -0.863  0.00  0.00    -0.049 A 
ATOM      7  C   UNL d   1      23.010 -16.421  -0.906  0.00  0.00     0.010 A 
ATOM      8  C   UNL d   1      21.778 -17.072  -0.895  0.00  0.00     0.036 A 
ATOM      9  C   UNL d   1      21.740 -18.466  -0.871  0.00  0.00     0.102 A 
ATOM     10  C   UNL d   1      22.929 -19.204  -0.768  0.00  0.00     0.036 A 
ATOM     11  C   UNL d   1      24.166 -18.534  -0.754  0.00  0.00     0.010 A 
BRANCH   9  12
ATOM     12  N   UNL d   1      20.449 -19.147  -1.020  0.00  0.00    -0.116 N 
ATOM     13  O   UNL d   1      19.591 -18.956  -0.145  0.00  0.00    -0.532 OA
ATOM     14  O   UNL d   1      20.281 -19.859  -2.021  0.00  0.00    -0.532 OA
ENDBRANCH   9  12
ENDBRANCH   5   6
ENDBRANCH   2   5
BRANCH   1  15
ATOM     15  N   UNL d   1      29.037 -17.836  -0.455  0.00  0.00    -0.249 N 
ATOM     16  C   UNL d   1      30.192 -17.941  -1.198  0.00  0.00     0.335 C 
ATOM     17  N   UNL d   1      31.189 -18.709  -0.631  0.00  0.00    -0.338 N 
ATOM     18  O   UNL d   1      30.286 -17.405  -2.307  0.00  0.00    -0.246 OA
ATOM     19  H   UNL d   1      31.069 -19.062   0.308  0.00  0.00     0.164 HD
ATOM     20  H   UNL d   1      28.920 -18.200   0.486  0.00  0.00     0.192 HD
BRANCH  17  21
ATOM     21  C   UNL d   1      32.469 -18.953  -1.317  0.00  0.00     0.078 C 
ATOM     22  C   UNL d   1      33.613 -19.293  -0.351  0.00  0.00     0.032 C 
ATOM     23  C   UNL d   1      32.347 -20.093  -2.331  0.00  0.00     0.032 C 
ENDBRANCH  17  21
ENDBRANCH   1  15
TORSDOF 5
ENDMDL
MODEL 6
REMARK VINA RESULT:    -6.548      1.659      2.200
REMARK INTER + INTRA:          -9.477
REMARK INTER:                  -8.040
REMARK INTRA:                  -1.437
REMARK CONF_INDEPENDENT:        1.492
REMARK UNBOUND:                -1.437
REMARK  5 active torsions:
REMARK  status: ('A' for Active; 'I' for Inactive)
REMARK    1  A    between atoms: C_2  and  N_4 
REMARK       I    between atoms: N_4  and  C_5 
REMARK       I    between atoms: C_5  and  N_7 
REMARK    2  A    between atoms: N_7  and  N_8 
REMARK       I    between atoms: N_8  and  C_9 
REMARK    3  A    between atoms: C_9  and  C_11 
REMARK    4  A    between atoms: C_11  and  C_12 
REMARK    5  A    between atoms: C_15  and  N_16 
ROOT
ATOM      1  N   UNL d   1      27.798 -15.125   2.411  0.00  0.00    -0.266 N 
ATOM      2  C   UNL d   1      27.398 -14.987   1.093  0.00  0.00     0.240 C 
ATOM      3  O   UNL d   1      27.066 -13.876   0.670  0.00  0.00    -0.272 OA
ATOM      4  H   UNL d   1      28.139 -15.982   2.842  0.00  0.00     0.190 HD
ENDROOT
BRANCH   2   5
ATOM      5  C   UNL d   1      27.373 -16.272   0.229  0.00  0.00     0.143 C 
BRANCH   5   6
ATOM      6  C   UNL d   1      25.966 -16.806  -0.040  0.00  0.00    -0.049 A 
ATOM      7  C   UNL d   1      24.988 -15.937  -0.552  0.00  0.00     0.010 A 
ATOM      8  C   UNL d   1      23.697 -16.376  -0.839  0.00  0.00     0.036 A 
ATOM      9  C   UNL d   1      23.370 -17.718  -0.643  0.00  0.00     0.102 A 
ATOM     10  C   UNL d   1      24.304 -18.598  -0.079  0.00  0.00     0.036 A 
ATOM     11  C   UNL d   1      25.597 -18.137   0.231  0.00  0.00     0.010 A 
BRANCH   9  12
ATOM     12  N   UNL d   1      22.061 -18.206  -1.095  0.00  0.00    -0.116 N 
ATOM     13  O   UNL d   1      22.018 -19.320  -1.640  0.00  0.00    -0.532 OA
ATOM     14  O   UNL d   1      21.072 -17.489  -0.889  0.00  0.00    -0.532 OA
ENDBRANCH   9  12
ENDBRANCH   5   6
ENDBRANCH   2   5
BRANCH   1  15
ATOM     15  N   UNL d   1      27.795 -13.958   3.240  0.00  0.00    -0.249 N 
ATOM     16  C   UNL d   1      28.042 -14.092   4.589  0.00  0.00     0.335 C 
ATOM     17  N   UNL d   1      27.970 -12.922   5.318  0.00  0.00    -0.338 N 
ATOM     18  O   UNL d   1      28.271 -15.198   5.087  0.00  0.00    -0.246 OA
ATOM     19  H   UNL d   1      27.843 -12.043   4.835  0.00  0.00     0.164 HD
ATOM     20  H   UNL d   1      27.661 -13.072   2.762  0.00  0.00     0.192 HD
BRANCH  17  21
ATOM     21  C   UNL d   1      28.168 -12.901   6.777  0.00  0.00     0.078 C 
ATOM     22  C   UNL d   1      29.301 -13.828   7.243  0.00  0.00     0.032 C 
ATOM     23  C   UNL d   1      28.475 -11.487   7.276  0.00  0.00     0.032 C 
ENDBRANCH  17  21
ENDBRANCH   1  15
TORSDOF 5
ENDMDL
MODEL 7
REMARK VINA RESULT:    -6.534      3.765      6.106
REMARK INTER + INTRA:          -9.547
REMARK INTER:                  -8.026
REMARK INTRA:                  -1.522
REMARK CONF_INDEPENDENT:        1.492
REMARK UNBOUND:                -1.522
REMARK  5 active torsions:
REMARK  status: ('A' for Active; 'I' for Inactive)
REMARK    1  A    between atoms: C_2  and  N_4 
REMARK       I    between atoms: N_4  and  C_5 
REMARK       I    between atoms: C_5  and  N_7 
REMARK    2  A    between atoms: N_7  and  N_8 
REMARK       I    between atoms: N_8  and  C_9 
REMARK    3  A    between atoms: C_9  and  C_11 
REMARK    4  A    between atoms: C_11  and  C_12 
REMARK    5  A    between atoms: C_15  and  N_16 
ROOT
ATOM      1  N   UNL d   1      26.255 -15.549  -2.362  0.00  0.00    -0.266 N 
ATOM      2  C   UNL d   1      26.168 -15.457  -0.984  0.00  0.00     0.240 C 
ATOM      3  O   UNL d   1      26.411 -14.381  -0.429  0.00  0.00    -0.272 OA
ATOM      4  H   UNL d   1      26.026 -16.370  -2.919  0.00  0.00     0.190 HD
ENDROOT
BRANCH   2   5
ATOM      5  C   UNL d   1      25.785 -16.746  -0.218  0.00  0.00     0.143 C 
BRANCH   5   6
ATOM      6  C   UNL d   1      24.367 -17.240  -0.510  0.00  0.00    -0.049 A 
ATOM      7  C   UNL d   1      24.136 -18.618  -0.655  0.00  0.00     0.010 A 
ATOM      8  C   UNL d   1      22.861 -19.125  -0.898  0.00  0.00     0.036 A 
ATOM      9  C   UNL d   1      21.779 -18.249  -0.972  0.00  0.00     0.102 A 
ATOM     10  C   UNL d   1      21.983 -16.864  -0.891  0.00  0.00     0.036 A 
ATOM     11  C   UNL d   1      23.279 -16.362  -0.671  0.00  0.00     0.010 A 
BRANCH   9  12
ATOM     12  N   UNL d   1      20.421 -18.800  -1.069  0.00  0.00    -0.116 N 
ATOM     13  O   UNL d   1      19.470 -18.024  -0.895  0.00  0.00    -0.532 OA
ATOM     14  O   UNL d   1      20.302 -20.003  -1.340  0.00  0.00    -0.532 OA
ENDBRANCH   9  12
ENDBRANCH   5   6
ENDBRANCH   2   5
BRANCH   1  15
ATOM     15  N   UNL d   1      26.642 -14.379  -3.091  0.00  0.00    -0.249 N 
ATOM     16  C   UNL d   1      26.958 -14.494  -4.427  0.00  0.00     0.335 C 
ATOM     17  N   UNL d   1      27.368 -13.326  -5.037  0.00  0.00    -0.338 N 
ATOM     18  O   UNL d   1      26.904 -15.586  -5.003  0.00  0.00    -0.246 OA
ATOM     19  H   UNL d   1      27.324 -12.456  -4.524  0.00  0.00     0.164 HD
ATOM     20  H   UNL d   1      26.607 -13.503  -2.579  0.00  0.00     0.192 HD
BRANCH  17  21
ATOM     21  C   UNL d   1      27.779 -13.289  -6.451  0.00  0.00     0.078 C 
ATOM     22  C   UNL d   1      28.320 -11.918  -6.884  0.00  0.00     0.032 C 
ATOM     23  C   UNL d   1      28.853 -14.339  -6.744  0.00  0.00     0.032 C 
ENDBRANCH  17  21
ENDBRANCH   1  15
TORSDOF 5
ENDMDL
MODEL 8
REMARK VINA RESULT:    -6.470      3.123      8.158
REMARK INTER + INTRA:          -9.416
REMARK INTER:                  -7.962
REMARK INTRA:                  -1.454
REMARK CONF_INDEPENDENT:        1.492
REMARK UNBOUND:                -1.454
REMARK  5 active torsions:
REMARK  status: ('A' for Active; 'I' for Inactive)
REMARK    1  A    between atoms: C_2  and  N_4 
REMARK       I    between atoms: N_4  and  C_5 
REMARK       I    between atoms: C_5  and  N_7 
REMARK    2  A    between atoms: N_7  and  N_8 
REMARK       I    between atoms: N_8  and  C_9 
REMARK    3  A    between atoms: C_9  and  C_11 
REMARK    4  A    between atoms: C_11  and  C_12 
REMARK    5  A    between atoms: C_15  and  N_16 
ROOT
ATOM      1  N   UNL d   1      22.914 -18.213  -1.217  0.00  0.00    -0.266 N 
ATOM      2  C   UNL d   1      24.277 -17.999  -1.110  0.00  0.00     0.240 C 
ATOM      3  O   UNL d   1      24.907 -18.533  -0.193  0.00  0.00    -0.272 OA
ATOM      4  H   UNL d   1      22.314 -17.865  -1.962  0.00  0.00     0.190 HD
ENDROOT
BRANCH   2   5
ATOM      5  C   UNL d   1      24.925 -17.066  -2.161  0.00  0.00     0.143 C 
BRANCH   5   6
ATOM      6  C   UNL d   1      25.613 -15.841  -1.556  0.00  0.00    -0.049 A 
ATOM      7  C   UNL d   1      25.805 -14.699  -2.351  0.00  0.00     0.010 A 
ATOM      8  C   UNL d   1      26.404 -13.547  -1.846  0.00  0.00     0.036 A 
ATOM      9  C   UNL d   1      26.799 -13.511  -0.509  0.00  0.00     0.102 A 
ATOM     10  C   UNL d   1      26.677 -14.653   0.296  0.00  0.00     0.036 A 
ATOM     11  C   UNL d   1      26.094 -15.819  -0.234  0.00  0.00     0.010 A 
BRANCH   9  12
ATOM     12  N   UNL d   1      27.282 -12.246   0.059  0.00  0.00    -0.116 N 
ATOM     13  O   UNL d   1      26.728 -11.825   1.085  0.00  0.00    -0.532 OA
ATOM     14  O   UNL d   1      28.229 -11.681  -0.508  0.00  0.00    -0.532 OA
ENDBRANCH   9  12
ENDBRANCH   5   6
ENDBRANCH   2   5
BRANCH   1  15
ATOM     15  N   UNL d   1      22.285 -19.044  -0.236  0.00  0.00    -0.249 N 
ATOM     16  C   UNL d   1      20.910 -19.052  -0.143  0.00  0.00     0.335 C 
ATOM     17  N   UNL d   1      20.393 -19.843   0.863  0.00  0.00    -0.338 N 
ATOM     18  O   UNL d   1      20.218 -18.360  -0.895  0.00  0.00    -0.246 OA
ATOM     19  H   UNL d   1      21.014 -20.434   1.399  0.00  0.00     0.164 HD
ATOM     20  H   UNL d   1      22.904 -19.636   0.311  0.00  0.00     0.192 HD
BRANCH  17  21
ATOM     21  C   UNL d   1      18.945 -19.928   1.120  0.00  0.00     0.078 C 
ATOM     22  C   UNL d   1      18.210 -20.831   0.120  0.00  0.00     0.032 C 
ATOM     23  C   UNL d   1      18.662 -20.449   2.531  0.00  0.00     0.032 C 
ENDBRANCH  17  21
ENDBRANCH   1  15
TORSDOF 5
ENDMDL
MODEL 9
REMARK VINA RESULT:    -6.436      4.040      7.697
REMARK INTER + INTRA:          -9.544
REMARK INTER:                  -7.928
REMARK INTRA:                  -1.616
REMARK CONF_INDEPENDENT:        1.492
REMARK UNBOUND:                -1.616
REMARK  5 active torsions:
REMARK  status: ('A' for Active; 'I' for Inactive)
REMARK    1  A    between atoms: C_2  and  N_4 
REMARK       I    between atoms: N_4  and  C_5 
REMARK       I    between atoms: C_5  and  N_7 
REMARK    2  A    between atoms: N_7  and  N_8 
REMARK       I    between atoms: N_8  and  C_9 
REMARK    3  A    between atoms: C_9  and  C_11 
REMARK    4  A    between atoms: C_11  and  C_12 
REMARK    5  A    between atoms: C_15  and  N_16 
ROOT
ATOM      1  N   UNL d   1      24.370 -18.342  -0.595  0.00  0.00    -0.266 N 
ATOM      2  C   UNL d   1      25.573 -18.068   0.031  0.00  0.00     0.240 C 
ATOM      3  O   UNL d   1      25.693 -18.283   1.241  0.00  0.00    -0.272 OA
ATOM      4  H   UNL d   1      24.185 -18.251  -1.593  0.00  0.00     0.190 HD
ENDROOT
BRANCH   2   5
ATOM      5  C   UNL d   1      26.703 -17.478  -0.847  0.00  0.00     0.143 C 
BRANCH   5   6
ATOM      6  C   UNL d   1      26.338 -16.148  -1.510  0.00  0.00    -0.049 A 
ATOM      7  C   UNL d   1      26.860 -14.954  -0.987  0.00  0.00     0.010 A 
ATOM      8  C   UNL d   1      26.580 -13.717  -1.565  0.00  0.00     0.036 A 
ATOM      9  C   UNL d   1      25.786 -13.661  -2.710  0.00  0.00     0.102 A 
ATOM     10  C   UNL d   1      25.200 -14.828  -3.222  0.00  0.00     0.036 A 
ATOM     11  C   UNL d   1      25.469 -16.067  -2.614  0.00  0.00     0.010 A 
BRANCH   9  12
ATOM     12  N   UNL d   1      25.625 -12.377  -3.404  0.00  0.00    -0.116 N 
ATOM     13  O   UNL d   1      25.156 -12.397  -4.552  0.00  0.00    -0.532 OA
ATOM     14  O   UNL d   1      25.948 -11.346  -2.797  0.00  0.00    -0.532 OA
ENDBRANCH   9  12
ENDBRANCH   5   6
ENDBRANCH   2   5
BRANCH   1  15
ATOM     15  N   UNL d   1      23.298 -18.856   0.202  0.00  0.00    -0.249 N 
ATOM     16  C   UNL d   1      22.133 -19.255  -0.415  0.00  0.00     0.335 C 
ATOM     17  N   UNL d   1      21.136 -19.689   0.436  0.00  0.00    -0.338 N 
ATOM     18  O   UNL d   1      22.005 -19.182  -1.641  0.00  0.00    -0.246 OA
ATOM     19  H   UNL d   1      21.332 -19.785   1.422  0.00  0.00     0.164 HD
ATOM     20  H   UNL d   1      23.487 -18.948   1.196  0.00  0.00     0.192 HD
BRANCH  17  21
ATOM     21  C   UNL d   1      19.816 -20.111  -0.064  0.00  0.00     0.078 C 
ATOM     22  C   UNL d   1      18.846 -20.504   1.060  0.00  0.00     0.032 C 
ATOM     23  C   UNL d   1      19.158 -19.007  -0.895  0.00  0.00     0.032 C 
ENDBRANCH  17  21
ENDBRANCH   1  15
TORSDOF 5
ENDMDL
