MODEL 1
REMARK VINA RESULT:    -9.307      0.000      0.000
REMARK INTER + INTRA:         -13.272
REMARK INTER:                 -11.693
REMARK INTRA:                  -1.579
REMARK CONF_INDEPENDENT:        2.386
REMARK UNBOUND:                -1.579
REMARK  8 active torsions:
REMARK  status: ('A' for Active; 'I' for Inactive)
REMARK    1  A    between atoms: C_2  and  N_3 
REMARK       I    between atoms: N_3  and  C_4 
REMARK    2  A    between atoms: C_4  and  C_6 
REMARK    3  A    between atoms: C_6  and  O_7 
REMARK    4  A    between atoms: O_7  and  C_8 
REMARK    5  A    between atoms: C_12  and  N_13 
REMARK    6  A    between atoms: N_13  and  C_14 
REMARK    7  A    between atoms: C_14  and  C_16 
REMARK       I    between atoms: C_16  and  N_18 
REMARK       I    between atoms: N_18  and  C_19 
REMARK       I    between atoms: C_19  and  N_21 
REMARK    8  A    between atoms: N_21  and  C_22 
ROOT
ATOM      1  N   UNL d   1      27.480 -16.773  -0.926  0.00  0.00    -0.377 N 
ATOM      2  H   UNL d   1      27.920 -17.694  -0.997  0.00  0.00     0.160 HD
ENDROOT
BRANCH   1   3
ATOM      3  C   UNL d   1      26.103 -16.665  -0.978  0.00  0.00     0.031 A 
ATOM      4  C   UNL d   1      25.472 -15.621  -1.661  0.00  0.00     0.029 A 
ATOM      5  C   UNL d   1      24.076 -15.598  -1.794  0.00  0.00     0.005 A 
ATOM      6  C   UNL d   1      23.294 -16.606  -1.221  0.00  0.00     0.037 A 
ATOM      7  C   UNL d   1      23.900 -17.645  -0.524  0.00  0.00     0.071 A 
ATOM      8  C   UNL d   1      25.280 -17.630  -0.382  0.00  0.00     0.065 A 
BRANCH   7   9
ATOM      9  O   UNL d   1      23.103 -18.676  -0.111  0.00  0.00    -0.342 OA
BRANCH   9  10
ATOM     10  C   UNL d   1      22.280 -19.322  -1.088  0.00  0.00     0.278 C 
BRANCH  10  11
ATOM     11  C   UNL d   1      20.848 -19.480  -0.547  0.00  0.00     0.241 C 
ATOM     12  N   UNL d   1      20.712 -19.393   0.833  0.00  0.00    -0.360 N 
ATOM     13  H   UNL d   1      21.512 -19.215   1.424  0.00  0.00     0.162 HD
ATOM     14  O   UNL d   1      19.877 -19.690  -1.271  0.00  0.00    -0.271 OA
BRANCH  12  15
ATOM     15  C   UNL d   1      19.390 -19.502   1.434  0.00  0.00     0.118 C 
ATOM     16  C   UNL d   1      18.784 -20.887   1.296  0.00  0.00     0.026 C 
ENDBRANCH  12  15
ENDBRANCH  10  11
ENDBRANCH   9  10
ENDBRANCH   7   9
ENDBRANCH   1   3
BRANCH   1  17
ATOM     17  C   UNL d   1      28.406 -15.650  -0.634  0.00  0.00     0.170 C 
ATOM     18  C   UNL d   1      28.533 -14.719  -1.841  0.00  0.00     0.042 C 
BRANCH  17  19
ATOM     19  C   UNL d   1      27.875 -14.839   0.573  0.00  0.00     0.247 C 
ATOM     20  O   UNL d   1      27.041 -13.955   0.347  0.00  0.00    -0.271 OA
ATOM     21  N   UNL d   1      28.348 -15.186   1.846  0.00  0.00    -0.278 N 
ATOM     22  C   UNL d   1      27.983 -14.435   2.931  0.00  0.00     0.323 C 
ATOM     23  H   UNL d   1      29.014 -15.933   1.964  0.00  0.00     0.173 HD
ATOM     24  O   UNL d   1      27.301 -13.420   2.790  0.00  0.00    -0.247 OA
ATOM     25  N   UNL d   1      28.375 -14.871   4.187  0.00  0.00    -0.338 N 
ATOM     26  H   UNL d   1      29.111 -15.558   4.281  0.00  0.00     0.164 HD
BRANCH  25  27
ATOM     27  C   UNL d   1      28.005 -14.131   5.431  0.00  0.00     0.086 C 
ATOM     28  C   UNL d   1      28.906 -14.394   6.643  0.00  0.00     0.025 C 
ATOM     29  C   UNL d   1      28.723 -13.247   7.604  0.00  0.00     0.002 C 
ATOM     30  C   UNL d   1      28.362 -12.062   6.723  0.00  0.00     0.002 C 
ATOM     31  C   UNL d   1      28.139 -12.605   5.301  0.00  0.00     0.025 C 
ENDBRANCH  25  27
ENDBRANCH  17  19
ENDBRANCH   1  17
TORSDOF 8
ENDMDL
MODEL 2
REMARK VINA RESULT:    -9.063      4.309      7.307
REMARK INTER + INTRA:         -13.169
REMARK INTER:                 -11.450
REMARK INTRA:                  -1.720
REMARK CONF_INDEPENDENT:        2.386
REMARK UNBOUND:                -1.720
REMARK  8 active torsions:
REMARK  status: ('A' for Active; 'I' for Inactive)
REMARK    1  A    between atoms: C_2  and  N_3 
REMARK       I    between atoms: N_3  and  C_4 
REMARK    2  A    between atoms: C_4  and  C_6 
REMARK    3  A    between atoms: C_6  and  O_7 
REMARK    4  A    between atoms: O_7  and  C_8 
REMARK    5  A    between atoms: C_12  and  N_13 
REMARK    6  A    between atoms: N_13  and  C_14 
REMARK    7  A    between atoms: C_14  and  C_16 
REMARK       I    between atoms: C_16  and  N_18 
REMARK       I    between atoms: N_18  and  C_19 
REMARK       I    between atoms: C_19  and  N_21 
REMARK    8  A    between atoms: N_21  and  C_22 
ROOT
ATOM      1  N   UNL d   1      26.272 -15.392  -2.215  0.00  0.00    -0.377 N 
ATOM      2  H   UNL d   1      26.974 -14.694  -1.957  0.00  0.00     0.160 HD
ENDROOT
BRANCH   1   3
ATOM      3  C   UNL d   1      25.932 -16.386  -1.316  0.00  0.00     0.031 A 
ATOM      4  C   UNL d   1      26.854 -16.891  -0.395  0.00  0.00     0.029 A 
ATOM      5  C   UNL d   1      26.453 -17.817   0.580  0.00  0.00     0.005 A 
ATOM      6  C   UNL d   1      25.129 -18.268   0.625  0.00  0.00     0.037 A 
ATOM      7  C   UNL d   1      24.200 -17.791  -0.292  0.00  0.00     0.071 A 
ATOM      8  C   UNL d   1      24.628 -16.897  -1.264  0.00  0.00     0.065 A 
BRANCH   7   9
ATOM      9  O   UNL d   1      22.894 -18.152  -0.112  0.00  0.00    -0.342 OA
BRANCH   9  10
ATOM     10  C   UNL d   1      22.126 -18.492  -1.271  0.00  0.00     0.278 C 
BRANCH  10  11
ATOM     11  C   UNL d   1      20.936 -19.383  -0.870  0.00  0.00     0.241 C 
ATOM     12  N   UNL d   1      20.946 -19.849   0.439  0.00  0.00    -0.360 N 
ATOM     13  H   UNL d   1      21.687 -19.589   1.077  0.00  0.00     0.162 HD
ATOM     14  O   UNL d   1      20.036 -19.690  -1.649  0.00  0.00    -0.271 OA
BRANCH  12  15
ATOM     15  C   UNL d   1      19.848 -20.675   0.917  0.00  0.00     0.118 C 
ATOM     16  C   UNL d   1      18.778 -19.881   1.646  0.00  0.00     0.026 C 
ENDBRANCH  12  15
ENDBRANCH  10  11
ENDBRANCH   9  10
ENDBRANCH   7   9
ENDBRANCH   1   3
BRANCH   1  17
ATOM     17  C   UNL d   1      25.594 -15.159  -3.515  0.00  0.00     0.170 C 
ATOM     18  C   UNL d   1      24.934 -13.780  -3.547  0.00  0.00     0.042 C 
BRANCH  17  19
ATOM     19  C   UNL d   1      26.628 -15.250  -4.663  0.00  0.00     0.247 C 
ATOM     20  O   UNL d   1      26.214 -15.572  -5.782  0.00  0.00    -0.271 OA
ATOM     21  N   UNL d   1      27.959 -14.924  -4.365  0.00  0.00    -0.278 N 
ATOM     22  C   UNL d   1      28.925 -15.085  -5.323  0.00  0.00     0.323 C 
ATOM     23  H   UNL d   1      28.227 -14.648  -3.434  0.00  0.00     0.173 HD
ATOM     24  O   UNL d   1      28.648 -15.574  -6.417  0.00  0.00    -0.247 OA
ATOM     25  N   UNL d   1      30.208 -14.647  -5.032  0.00  0.00    -0.338 N 
ATOM     26  H   UNL d   1      30.479 -14.463  -4.076  0.00  0.00     0.164 HD
BRANCH  25  27
ATOM     27  C   UNL d   1      31.322 -14.758  -6.021  0.00  0.00     0.086 C 
ATOM     28  C   UNL d   1      31.456 -16.122  -6.708  0.00  0.00     0.025 C 
ATOM     29  C   UNL d   1      32.247 -15.918  -7.975  0.00  0.00     0.002 C 
ATOM     30  C   UNL d   1      31.943 -14.489  -8.391  0.00  0.00     0.002 C 
ATOM     31  C   UNL d   1      31.154 -13.839  -7.242  0.00  0.00     0.025 C 
ENDBRANCH  25  27
ENDBRANCH  17  19
ENDBRANCH   1  17
TORSDOF 8
ENDMDL
MODEL 3
REMARK VINA RESULT:    -9.023      4.364      7.700
REMARK INTER + INTRA:         -13.061
REMARK INTER:                 -11.409
REMARK INTRA:                  -1.652
REMARK CONF_INDEPENDENT:        2.386
REMARK UNBOUND:                -1.652
REMARK  8 active torsions:
REMARK  status: ('A' for Active; 'I' for Inactive)
REMARK    1  A    between atoms: C_2  and  N_3 
REMARK       I    between atoms: N_3  and  C_4 
REMARK    2  A    between atoms: C_4  and  C_6 
REMARK    3  A    between atoms: C_6  and  O_7 
REMARK    4  A    between atoms: O_7  and  C_8 
REMARK    5  A    between atoms: C_12  and  N_13 
REMARK    6  A    between atoms: N_13  and  C_14 
REMARK    7  A    between atoms: C_14  and  C_16 
REMARK       I    between atoms: C_16  and  N_18 
REMARK       I    between atoms: N_18  and  C_19 
REMARK       I    between atoms: C_19  and  N_21 
REMARK    8  A    between atoms: N_21  and  C_22 
ROOT
ATOM      1  N   UNL d   1      25.981 -14.875  -2.175  0.00  0.00    -0.377 N 
ATOM      2  H   UNL d   1      26.547 -14.099  -1.820  0.00  0.00     0.160 HD
ENDROOT
BRANCH   1   3
ATOM      3  C   UNL d   1      25.857 -16.031  -1.427  0.00  0.00     0.031 A 
ATOM      4  C   UNL d   1      26.938 -16.571  -0.724  0.00  0.00     0.029 A 
ATOM      5  C   UNL d   1      26.758 -17.680   0.116  0.00  0.00     0.005 A 
ATOM      6  C   UNL d   1      25.499 -18.276   0.242  0.00  0.00     0.037 A 
ATOM      7  C   UNL d   1      24.414 -17.764  -0.460  0.00  0.00     0.071 A 
ATOM      8  C   UNL d   1      24.623 -16.685  -1.307  0.00  0.00     0.065 A 
BRANCH   7   9
ATOM      9  O   UNL d   1      23.183 -18.292  -0.190  0.00  0.00    -0.342 OA
BRANCH   9  10
ATOM     10  C   UNL d   1      22.251 -18.411  -1.270  0.00  0.00     0.278 C 
BRANCH  10  11
ATOM     11  C   UNL d   1      21.074 -19.310  -0.853  0.00  0.00     0.241 C 
ATOM     12  N   UNL d   1      21.045 -19.682   0.486  0.00  0.00    -0.360 N 
ATOM     13  H   UNL d   1      21.751 -19.355   1.132  0.00  0.00     0.162 HD
ATOM     14  O   UNL d   1      20.215 -19.700  -1.641  0.00  0.00    -0.271 OA
BRANCH  12  15
ATOM     15  C   UNL d   1      19.954 -20.509   0.980  0.00  0.00     0.118 C 
ATOM     16  C   UNL d   1      18.812 -19.700   1.568  0.00  0.00     0.026 C 
ENDBRANCH  12  15
ENDBRANCH  10  11
ENDBRANCH   9  10
ENDBRANCH   7   9
ENDBRANCH   1   3
BRANCH   1  17
ATOM     17  C   UNL d   1      25.235 -14.593  -3.427  0.00  0.00     0.170 C 
ATOM     18  C   UNL d   1      24.780 -13.134  -3.476  0.00  0.00     0.042 C 
BRANCH  17  19
ATOM     19  C   UNL d   1      26.143 -14.878  -4.647  0.00  0.00     0.247 C 
ATOM     20  O   UNL d   1      25.984 -15.950  -5.242  0.00  0.00    -0.271 OA
ATOM     21  N   UNL d   1      27.063 -13.887  -5.018  0.00  0.00    -0.278 N 
ATOM     22  C   UNL d   1      27.953 -14.134  -6.028  0.00  0.00     0.323 C 
ATOM     23  H   UNL d   1      27.128 -13.024  -4.501  0.00  0.00     0.173 HD
ATOM     24  O   UNL d   1      28.000 -15.240  -6.566  0.00  0.00    -0.247 OA
ATOM     25  N   UNL d   1      28.770 -13.094  -6.445  0.00  0.00    -0.338 N 
ATOM     26  H   UNL d   1      28.889 -12.276  -5.863  0.00  0.00     0.164 HD
BRANCH  25  27
ATOM     27  C   UNL d   1      29.756 -13.261  -7.555  0.00  0.00     0.086 C 
ATOM     28  C   UNL d   1      29.660 -12.225  -8.680  0.00  0.00     0.025 C 
ATOM     29  C   UNL d   1      30.977 -12.223  -9.412  0.00  0.00     0.002 C 
ATOM     30  C   UNL d   1      31.998 -12.635  -8.365  0.00  0.00     0.002 C 
ATOM     31  C   UNL d   1      31.216 -13.068  -7.113  0.00  0.00     0.025 C 
ENDBRANCH  25  27
ENDBRANCH  17  19
ENDBRANCH   1  17
TORSDOF 8
ENDMDL
MODEL 4
REMARK VINA RESULT:    -8.908      4.339      8.891
REMARK INTER + INTRA:         -13.142
REMARK INTER:                 -11.294
REMARK INTRA:                  -1.848
REMARK CONF_INDEPENDENT:        2.386
REMARK UNBOUND:                -1.848
REMARK  8 active torsions:
REMARK  status: ('A' for Active; 'I' for Inactive)
REMARK    1  A    between atoms: C_2  and  N_3 
REMARK       I    between atoms: N_3  and  C_4 
REMARK    2  A    between atoms: C_4  and  C_6 
REMARK    3  A    between atoms: C_6  and  O_7 
REMARK    4  A    between atoms: O_7  and  C_8 
REMARK    5  A    between atoms: C_12  and  N_13 
REMARK    6  A    between atoms: N_13  and  C_14 
REMARK    7  A    between atoms: C_14  and  C_16 
REMARK       I    between atoms: C_16  and  N_18 
REMARK       I    between atoms: N_18  and  C_19 
REMARK       I    between atoms: C_19  and  N_21 
REMARK    8  A    between atoms: N_21  and  C_22 
ROOT
ATOM      1  N   UNL d   1      26.273 -15.861  -1.213  0.00  0.00    -0.377 N 
ATOM      2  H   UNL d   1      26.825 -15.502  -0.429  0.00  0.00     0.160 HD
ENDROOT
BRANCH   1   3
ATOM      3  C   UNL d   1      26.123 -15.095  -2.354  0.00  0.00     0.031 A 
ATOM      4  C   UNL d   1      25.615 -13.794  -2.305  0.00  0.00     0.029 A 
ATOM      5  C   UNL d   1      25.578 -12.999  -3.460  0.00  0.00     0.005 A 
ATOM      6  C   UNL d   1      26.026 -13.509  -4.683  0.00  0.00     0.037 A 
ATOM      7  C   UNL d   1      26.521 -14.806  -4.758  0.00  0.00     0.071 A 
ATOM      8  C   UNL d   1      26.519 -15.582  -3.607  0.00  0.00     0.065 A 
BRANCH   7   9
ATOM      9  O   UNL d   1      27.078 -15.202  -5.942  0.00  0.00    -0.342 OA
BRANCH   9  10
ATOM     10  C   UNL d   1      28.156 -14.423  -6.471  0.00  0.00     0.278 C 
BRANCH  10  11
ATOM     11  C   UNL d   1      29.501 -14.983  -5.976  0.00  0.00     0.241 C 
ATOM     12  N   UNL d   1      29.420 -16.031  -5.067  0.00  0.00    -0.360 N 
ATOM     13  H   UNL d   1      28.524 -16.401  -4.778  0.00  0.00     0.162 HD
ATOM     14  O   UNL d   1      30.587 -14.533  -6.334  0.00  0.00    -0.271 OA
BRANCH  12  15
ATOM     15  C   UNL d   1      30.641 -16.644  -4.564  0.00  0.00     0.118 C 
ATOM     16  C   UNL d   1      30.381 -17.824  -3.644  0.00  0.00     0.026 C 
ENDBRANCH  12  15
ENDBRANCH  10  11
ENDBRANCH   9  10
ENDBRANCH   7   9
ENDBRANCH   1   3
BRANCH   1  17
ATOM     17  C   UNL d   1      25.799 -17.260  -1.064  0.00  0.00     0.170 C 
ATOM     18  C   UNL d   1      26.345 -17.888   0.219  0.00  0.00     0.042 C 
BRANCH  17  19
ATOM     19  C   UNL d   1      24.252 -17.282  -1.017  0.00  0.00     0.247 C 
ATOM     20  O   UNL d   1      23.651 -16.320  -1.508  0.00  0.00    -0.271 OA
ATOM     21  N   UNL d   1      23.636 -18.408  -0.454  0.00  0.00    -0.278 N 
ATOM     22  C   UNL d   1      22.275 -18.429  -0.302  0.00  0.00     0.323 C 
ATOM     23  H   UNL d   1      24.186 -19.170  -0.090  0.00  0.00     0.173 HD
ATOM     24  O   UNL d   1      21.597 -17.444  -0.590  0.00  0.00    -0.247 OA
ATOM     25  N   UNL d   1      21.689 -19.601   0.152  0.00  0.00    -0.338 N 
ATOM     26  H   UNL d   1      22.252 -20.313   0.597  0.00  0.00     0.164 HD
BRANCH  25  27
ATOM     27  C   UNL d   1      20.211 -19.727   0.328  0.00  0.00     0.086 C 
ATOM     28  C   UNL d   1      19.658 -21.153   0.231  0.00  0.00     0.025 C 
ATOM     29  C   UNL d   1      18.311 -21.167   0.908  0.00  0.00     0.002 C 
ATOM     30  C   UNL d   1      18.402 -20.079   1.965  0.00  0.00     0.002 C 
ATOM     31  C   UNL d   1      19.723 -19.326   1.729  0.00  0.00     0.025 C 
ENDBRANCH  25  27
ENDBRANCH  17  19
ENDBRANCH   1  17
TORSDOF 8
ENDMDL
MODEL 5
REMARK VINA RESULT:    -8.810      1.455      2.162
REMARK INTER + INTRA:         -12.727
REMARK INTER:                 -11.197
REMARK INTRA:                  -1.530
REMARK CONF_INDEPENDENT:        2.386
REMARK UNBOUND:                -1.530
REMARK  8 active torsions:
REMARK  status: ('A' for Active; 'I' for Inactive)
REMARK    1  A    between atoms: C_2  and  N_3 
REMARK       I    between atoms: N_3  and  C_4 
REMARK    2  A    between atoms: C_4  and  C_6 
REMARK    3  A    between atoms: C_6  and  O_7 
REMARK    4  A    between atoms: O_7  and  C_8 
REMARK    5  A    between atoms: C_12  and  N_13 
REMARK    6  A    between atoms: N_13  and  C_14 
REMARK    7  A    between atoms: C_14  and  C_16 
REMARK       I    between atoms: C_16  and  N_18 
REMARK       I    between atoms: N_18  and  C_19 
REMARK       I    between atoms: C_19  and  N_21 
REMARK    8  A    between atoms: N_21  and  C_22 
ROOT
ATOM      1  N   UNL d   1      26.833 -14.459   0.555  0.00  0.00    -0.377 N 
ATOM      2  H   UNL d   1      26.724 -13.442   0.578  0.00  0.00     0.160 HD
ENDROOT
BRANCH   1   3
ATOM      3  C   UNL d   1      26.180 -15.196  -0.415  0.00  0.00     0.031 A 
ATOM      4  C   UNL d   1      26.388 -14.966  -1.778  0.00  0.00     0.029 A 
ATOM      5  C   UNL d   1      25.800 -15.802  -2.739  0.00  0.00     0.005 A 
ATOM      6  C   UNL d   1      24.975 -16.861  -2.346  0.00  0.00     0.037 A 
ATOM      7  C   UNL d   1      24.742 -17.098  -0.997  0.00  0.00     0.071 A 
ATOM      8  C   UNL d   1      25.311 -16.240  -0.066  0.00  0.00     0.065 A 
BRANCH   7   9
ATOM      9  O   UNL d   1      24.049 -18.228  -0.665  0.00  0.00    -0.342 OA
BRANCH   9  10
ATOM     10  C   UNL d   1      23.069 -18.710  -1.590  0.00  0.00     0.278 C 
BRANCH  10  11
ATOM     11  C   UNL d   1      21.672 -18.668  -0.944  0.00  0.00     0.241 C 
ATOM     12  N   UNL d   1      21.421 -19.643   0.014  0.00  0.00    -0.360 N 
ATOM     13  H   UNL d   1      22.133 -20.314   0.271  0.00  0.00     0.162 HD
ATOM     14  O   UNL d   1      20.813 -17.846  -1.258  0.00  0.00    -0.271 OA
BRANCH  12  15
ATOM     15  C   UNL d   1      20.137 -19.665   0.699  0.00  0.00     0.118 C 
ATOM     16  C   UNL d   1      18.994 -20.120  -0.190  0.00  0.00     0.026 C 
ENDBRANCH  12  15
ENDBRANCH  10  11
ENDBRANCH   9  10
ENDBRANCH   7   9
ENDBRANCH   1   3
BRANCH   1  17
ATOM     17  C   UNL d   1      27.816 -15.012   1.520  0.00  0.00     0.170 C 
ATOM     18  C   UNL d   1      29.201 -15.131   0.881  0.00  0.00     0.042 C 
BRANCH  17  19
ATOM     19  C   UNL d   1      27.909 -14.085   2.756  0.00  0.00     0.247 C 
ATOM     20  O   UNL d   1      27.498 -12.926   2.634  0.00  0.00    -0.271 OA
ATOM     21  N   UNL d   1      28.421 -14.633   3.941  0.00  0.00    -0.278 N 
ATOM     22  C   UNL d   1      28.614 -13.826   5.030  0.00  0.00     0.323 C 
ATOM     23  H   UNL d   1      28.720 -15.594   3.978  0.00  0.00     0.173 HD
ATOM     24  O   UNL d   1      28.408 -12.615   4.958  0.00  0.00    -0.247 OA
ATOM     25  N   UNL d   1      29.012 -14.420   6.218  0.00  0.00    -0.338 N 
ATOM     26  H   UNL d   1      29.395 -15.356   6.216  0.00  0.00     0.164 HD
BRANCH  25  27
ATOM     27  C   UNL d   1      29.225 -13.626   7.465  0.00  0.00     0.086 C 
ATOM     28  C   UNL d   1      28.199 -12.517   7.720  0.00  0.00     0.025 C 
ATOM     29  C   UNL d   1      28.250 -12.177   9.188  0.00  0.00     0.002 C 
ATOM     30  C   UNL d   1      28.686 -13.465   9.865  0.00  0.00     0.002 C 
ATOM     31  C   UNL d   1      29.078 -14.453   8.752  0.00  0.00     0.025 C 
ENDBRANCH  25  27
ENDBRANCH  17  19
ENDBRANCH   1  17
TORSDOF 8
ENDMDL
MODEL 6
REMARK VINA RESULT:    -8.752      1.410      2.138
REMARK INTER + INTRA:         -12.917
REMARK INTER:                 -11.138
REMARK INTRA:                  -1.779
REMARK CONF_INDEPENDENT:        2.386
REMARK UNBOUND:                -1.779
REMARK  8 active torsions:
REMARK  status: ('A' for Active; 'I' for Inactive)
REMARK    1  A    between atoms: C_2  and  N_3 
REMARK       I    between atoms: N_3  and  C_4 
REMARK    2  A    between atoms: C_4  and  C_6 
REMARK    3  A    between atoms: C_6  and  O_7 
REMARK    4  A    between atoms: O_7  and  C_8 
REMARK    5  A    between atoms: C_12  and  N_13 
REMARK    6  A    between atoms: N_13  and  C_14 
REMARK    7  A    between atoms: C_14  and  C_16 
REMARK       I    between atoms: C_16  and  N_18 
REMARK       I    between atoms: N_18  and  C_19 
REMARK       I    between atoms: C_19  and  N_21 
REMARK    8  A    between atoms: N_21  and  C_22 
ROOT
ATOM      1  N   UNL d   1      25.631 -15.746  -2.705  0.00  0.00    -0.377 N 
ATOM      2  H   UNL d   1      25.009 -15.646  -3.512  0.00  0.00     0.160 HD
ENDROOT
BRANCH   1   3
ATOM      3  C   UNL d   1      25.375 -16.720  -1.759  0.00  0.00     0.031 A 
ATOM      4  C   UNL d   1      26.397 -17.288  -0.992  0.00  0.00     0.029 A 
ATOM      5  C   UNL d   1      26.098 -18.192   0.038  0.00  0.00     0.005 A 
ATOM      6  C   UNL d   1      24.772 -18.558   0.294  0.00  0.00     0.037 A 
ATOM      7  C   UNL d   1      23.742 -18.018  -0.466  0.00  0.00     0.071 A 
ATOM      8  C   UNL d   1      24.066 -17.148  -1.498  0.00  0.00     0.065 A 
BRANCH   7   9
ATOM      9  O   UNL d   1      22.460 -18.296  -0.081  0.00  0.00    -0.342 OA
BRANCH   9  10
ATOM     10  C   UNL d   1      21.434 -18.252  -1.077  0.00  0.00     0.278 C 
BRANCH  10  11
ATOM     11  C   UNL d   1      20.426 -19.392  -0.844  0.00  0.00     0.241 C 
ATOM     12  N   UNL d   1      20.595 -20.115   0.330  0.00  0.00    -0.360 N 
ATOM     13  H   UNL d   1      21.326 -19.878   0.987  0.00  0.00     0.162 HD
ATOM     14  O   UNL d   1      19.535 -19.672  -1.643  0.00  0.00    -0.271 OA
BRANCH  12  15
ATOM     15  C   UNL d   1      19.671 -21.194   0.650  0.00  0.00     0.118 C 
ATOM     16  C   UNL d   1      18.399 -20.710   1.322  0.00  0.00     0.026 C 
ENDBRANCH  12  15
ENDBRANCH  10  11
ENDBRANCH   9  10
ENDBRANCH   7   9
ENDBRANCH   1   3
BRANCH   1  17
ATOM     17  C   UNL d   1      26.841 -14.886  -2.728  0.00  0.00     0.170 C 
ATOM     18  C   UNL d   1      26.797 -13.913  -3.908  0.00  0.00     0.042 C 
BRANCH  17  19
ATOM     19  C   UNL d   1      26.928 -14.077  -1.412  0.00  0.00     0.247 C 
ATOM     20  O   UNL d   1      26.388 -12.965  -1.386  0.00  0.00    -0.271 OA
ATOM     21  N   UNL d   1      27.581 -14.674  -0.325  0.00  0.00    -0.278 N 
ATOM     22  C   UNL d   1      27.769 -13.959   0.828  0.00  0.00     0.323 C 
ATOM     23  H   UNL d   1      27.983 -15.595  -0.406  0.00  0.00     0.173 HD
ATOM     24  O   UNL d   1      27.432 -12.777   0.894  0.00  0.00    -0.247 OA
ATOM     25  N   UNL d   1      28.316 -14.615   1.920  0.00  0.00    -0.338 N 
ATOM     26  H   UNL d   1      28.795 -15.498   1.796  0.00  0.00     0.164 HD
BRANCH  25  27
ATOM     27  C   UNL d   1      28.538 -13.925   3.226  0.00  0.00     0.086 C 
ATOM     28  C   UNL d   1      27.411 -14.087   4.253  0.00  0.00     0.025 C 
ATOM     29  C   UNL d   1      27.987 -13.787   5.613  0.00  0.00     0.002 C 
ATOM     30  C   UNL d   1      29.454 -14.170   5.501  0.00  0.00     0.002 C 
ATOM     31  C   UNL d   1      29.730 -14.482   4.020  0.00  0.00     0.025 C 
ENDBRANCH  25  27
ENDBRANCH  17  19
ENDBRANCH   1  17
TORSDOF 8
ENDMDL
MODEL 7
REMARK VINA RESULT:    -8.745      4.293      9.420
REMARK INTER + INTRA:         -12.880
REMARK INTER:                 -11.132
REMARK INTRA:                  -1.749
REMARK CONF_INDEPENDENT:        2.386
REMARK UNBOUND:                -1.749
REMARK  8 active torsions:
REMARK  status: ('A' for Active; 'I' for Inactive)
REMARK    1  A    between atoms: C_2  and  N_3 
REMARK       I    between atoms: N_3  and  C_4 
REMARK    2  A    between atoms: C_4  and  C_6 
REMARK    3  A    between atoms: C_6  and  O_7 
REMARK    4  A    between atoms: O_7  and  C_8 
REMARK    5  A    between atoms: C_12  and  N_13 
REMARK    6  A    between atoms: N_13  and  C_14 
REMARK    7  A    between atoms: C_14  and  C_16 
REMARK       I    between atoms: C_16  and  N_18 
REMARK       I    between atoms: N_18  and  C_19 
REMARK       I    between atoms: C_19  and  N_21 
REMARK    8  A    between atoms: N_21  and  C_22 
ROOT
ATOM      1  N   UNL d   1      26.444 -15.791  -1.406  0.00  0.00    -0.377 N 
ATOM      2  H   UNL d   1      27.038 -15.396  -0.673  0.00  0.00     0.160 HD
ENDROOT
BRANCH   1   3
ATOM      3  C   UNL d   1      26.270 -15.103  -2.593  0.00  0.00     0.031 A 
ATOM      4  C   UNL d   1      25.576 -13.890  -2.644  0.00  0.00     0.029 A 
ATOM      5  C   UNL d   1      25.511 -13.157  -3.839  0.00  0.00     0.005 A 
ATOM      6  C   UNL d   1      26.118 -13.644  -5.001  0.00  0.00     0.037 A 
ATOM      7  C   UNL d   1      26.799 -14.855  -4.975  0.00  0.00     0.071 A 
ATOM      8  C   UNL d   1      26.825 -15.575  -3.790  0.00  0.00     0.065 A 
BRANCH   7   9
ATOM      9  O   UNL d   1      27.494 -15.212  -6.097  0.00  0.00    -0.342 OA
BRANCH   9  10
ATOM     10  C   UNL d   1      28.913 -15.367  -5.988  0.00  0.00     0.278 C 
BRANCH  10  11
ATOM     11  C   UNL d   1      29.626 -14.280  -6.813  0.00  0.00     0.241 C 
ATOM     12  N   UNL d   1      28.798 -13.457  -7.567  0.00  0.00    -0.360 N 
ATOM     13  H   UNL d   1      27.794 -13.568  -7.544  0.00  0.00     0.162 HD
ATOM     14  O   UNL d   1      30.847 -14.146  -6.832  0.00  0.00    -0.271 OA
BRANCH  12  15
ATOM     15  C   UNL d   1      29.381 -12.382  -8.358  0.00  0.00     0.118 C 
ATOM     16  C   UNL d   1      28.559 -11.105  -8.326  0.00  0.00     0.026 C 
ENDBRANCH  12  15
ENDBRANCH  10  11
ENDBRANCH   9  10
ENDBRANCH   7   9
ENDBRANCH   1   3
BRANCH   1  17
ATOM     17  C   UNL d   1      25.935 -17.160  -1.140  0.00  0.00     0.170 C 
ATOM     18  C   UNL d   1      26.500 -17.708   0.172  0.00  0.00     0.042 C 
BRANCH  17  19
ATOM     19  C   UNL d   1      24.390 -17.131  -1.049  0.00  0.00     0.247 C 
ATOM     20  O   UNL d   1      23.809 -16.134  -1.493  0.00  0.00    -0.271 OA
ATOM     21  N   UNL d   1      23.750 -18.252  -0.502  0.00  0.00    -0.278 N 
ATOM     22  C   UNL d   1      22.395 -18.231  -0.310  0.00  0.00     0.323 C 
ATOM     23  H   UNL d   1      24.284 -19.043  -0.176  0.00  0.00     0.173 HD
ATOM     24  O   UNL d   1      21.743 -17.215  -0.549  0.00  0.00    -0.247 OA
ATOM     25  N   UNL d   1      21.781 -19.396   0.125  0.00  0.00    -0.338 N 
ATOM     26  H   UNL d   1      22.331 -20.140   0.533  0.00  0.00     0.164 HD
BRANCH  25  27
ATOM     27  C   UNL d   1      20.305 -19.477   0.340  0.00  0.00     0.086 C 
ATOM     28  C   UNL d   1      19.641 -20.770  -0.145  0.00  0.00     0.025 C 
ATOM     29  C   UNL d   1      18.323 -20.904   0.573  0.00  0.00     0.002 C 
ATOM     30  C   UNL d   1      18.535 -20.194   1.899  0.00  0.00     0.002 C 
ATOM     31  C   UNL d   1      19.900 -19.487   1.823  0.00  0.00     0.025 C 
ENDBRANCH  25  27
ENDBRANCH  17  19
ENDBRANCH   1  17
TORSDOF 8
ENDMDL
MODEL 8
REMARK VINA RESULT:    -8.328      4.555      7.748
REMARK INTER + INTRA:         -12.983
REMARK INTER:                 -10.715
REMARK INTRA:                  -2.268
REMARK CONF_INDEPENDENT:        2.386
REMARK UNBOUND:                -2.268
REMARK  8 active torsions:
REMARK  status: ('A' for Active; 'I' for Inactive)
REMARK    1  A    between atoms: C_2  and  N_3 
REMARK       I    between atoms: N_3  and  C_4 
REMARK    2  A    between atoms: C_4  and  C_6 
REMARK    3  A    between atoms: C_6  and  O_7 
REMARK    4  A    between atoms: O_7  and  C_8 
REMARK    5  A    between atoms: C_12  and  N_13 
REMARK    6  A    between atoms: N_13  and  C_14 
REMARK    7  A    between atoms: C_14  and  C_16 
REMARK       I    between atoms: C_16  and  N_18 
REMARK       I    between atoms: N_18  and  C_19 
REMARK       I    between atoms: C_19  and  N_21 
REMARK    8  A    between atoms: N_21  and  C_22 
ROOT
ATOM      1  N   UNL d   1      26.128 -15.886  -2.773  0.00  0.00    -0.377 N 
ATOM      2  H   UNL d   1      26.798 -16.204  -3.478  0.00  0.00     0.160 HD
ENDROOT
BRANCH   1   3
ATOM      3  C   UNL d   1      25.831 -16.698  -1.694  0.00  0.00     0.031 A 
ATOM      4  C   UNL d   1      26.784 -16.995  -0.714  0.00  0.00     0.029 A 
ATOM      5  C   UNL d   1      26.426 -17.727   0.428  0.00  0.00     0.005 A 
ATOM      6  C   UNL d   1      25.117 -18.193   0.588  0.00  0.00     0.037 A 
ATOM      7  C   UNL d   1      24.158 -17.922  -0.382  0.00  0.00     0.071 A 
ATOM      8  C   UNL d   1      24.544 -17.221  -1.515  0.00  0.00     0.065 A 
BRANCH   7   9
ATOM      9  O   UNL d   1      22.866 -18.274  -0.107  0.00  0.00    -0.342 OA
BRANCH   9  10
ATOM     10  C   UNL d   1      21.941 -18.337  -1.197  0.00  0.00     0.278 C 
BRANCH  10  11
ATOM     11  C   UNL d   1      20.821 -19.344  -0.879  0.00  0.00     0.241 C 
ATOM     12  N   UNL d   1      20.822 -19.858   0.412  0.00  0.00    -0.360 N 
ATOM     13  H   UNL d   1      21.511 -19.560   1.090  0.00  0.00     0.162 HD
ATOM     14  O   UNL d   1      19.983 -19.698  -1.705  0.00  0.00    -0.271 OA
BRANCH  12  15
ATOM     15  C   UNL d   1      19.784 -20.796   0.814  0.00  0.00     0.118 C 
ATOM     16  C   UNL d   1      18.781 -20.196   1.783  0.00  0.00     0.026 C 
ENDBRANCH  12  15
ENDBRANCH  10  11
ENDBRANCH   9  10
ENDBRANCH   7   9
ENDBRANCH   1   3
BRANCH   1  17
ATOM     17  C   UNL d   1      25.645 -14.493  -2.941  0.00  0.00     0.170 C 
ATOM     18  C   UNL d   1      25.943 -13.657  -1.696  0.00  0.00     0.042 C 
BRANCH  17  19
ATOM     19  C   UNL d   1      26.344 -13.845  -4.161  0.00  0.00     0.247 C 
ATOM     20  O   UNL d   1      27.370 -14.386  -4.587  0.00  0.00    -0.271 OA
ATOM     21  N   UNL d   1      25.746 -12.709  -4.724  0.00  0.00    -0.278 N 
ATOM     22  C   UNL d   1      26.379 -12.045  -5.741  0.00  0.00     0.323 C 
ATOM     23  H   UNL d   1      24.895 -12.329  -4.340  0.00  0.00     0.173 HD
ATOM     24  O   UNL d   1      27.497 -12.395  -6.117  0.00  0.00    -0.247 OA
ATOM     25  N   UNL d   1      25.709 -10.995  -6.350  0.00  0.00    -0.338 N 
ATOM     26  H   UNL d   1      24.909 -10.571  -5.898  0.00  0.00     0.164 HD
BRANCH  25  27
ATOM     27  C   UNL d   1      26.308 -10.227  -7.482  0.00  0.00     0.086 C 
ATOM     28  C   UNL d   1      27.767  -9.799  -7.285  0.00  0.00     0.025 C 
ATOM     29  C   UNL d   1      28.345  -9.508  -8.646  0.00  0.00     0.002 C 
ATOM     30  C   UNL d   1      27.568 -10.408  -9.593  0.00  0.00     0.002 C 
ATOM     31  C   UNL d   1      26.421 -11.038  -8.783  0.00  0.00     0.025 C 
ENDBRANCH  25  27
ENDBRANCH  17  19
ENDBRANCH   1  17
TORSDOF 8
ENDMDL
