MODEL 1
REMARK VINA RESULT:    -9.254      0.000      0.000
REMARK INTER + INTRA:         -12.714
REMARK INTER:                 -11.044
REMARK INTRA:                  -1.670
REMARK CONF_INDEPENDENT:        1.790
REMARK UNBOUND:                -1.670
REMARK  6 active torsions:
REMARK  status: ('A' for Active; 'I' for Inactive)
REMARK    1  A    between atoms: C_2  and  C_3 
REMARK    2  A    between atoms: C_3  and  N_5 
REMARK       I    between atoms: N_5  and  C_6 
REMARK    3  A    between atoms: C_6  and  C_8 
REMARK    4  A    between atoms: C_10  and  N_11 
REMARK       I    between atoms: N_11  and  C_12 
REMARK       I    between atoms: C_12  and  N_14 
REMARK    5  A    between atoms: N_14  and  C_15 
REMARK    6  A    between atoms: C_24  and  N_25 
ROOT
ATOM      1  C   UNL d   1      26.413 -15.448  -2.698  0.00  0.00     0.060 A 
ATOM      2  C   UNL d   1      25.841 -16.711  -2.254  0.00  0.00     0.049 A 
ATOM      3  C   UNL d   1      25.443 -16.887  -0.940  0.00  0.00     0.037 A 
ATOM      4  C   UNL d   1      25.757 -15.795  -0.107  0.00  0.00     0.032 A 
ATOM      5  C   UNL d   1      26.305 -14.504  -0.518  0.00  0.00     0.032 A 
ATOM      6  C   UNL d   1      26.678 -14.212  -1.823  0.00  0.00     0.046 A 
ENDROOT
BRANCH   3   7
ATOM      7  N   UNL d   1      24.726 -18.082  -0.486  0.00  0.00    -0.309 N 
ATOM      8  C   UNL d   1      23.335 -18.212  -0.557  0.00  0.00     0.325 C 
ATOM      9  O   UNL d   1      22.602 -17.303  -0.937  0.00  0.00    -0.247 OA
ATOM     10  N   UNL d   1      22.776 -19.416  -0.132  0.00  0.00    -0.309 N 
ATOM     11  H   UNL d   1      23.318 -20.125   0.338  0.00  0.00     0.170 HD
ATOM     12  H   UNL d   1      25.279 -18.893  -0.232  0.00  0.00     0.170 HD
BRANCH  10  13
ATOM     13  C   UNL d   1      21.349 -19.607  -0.179  0.00  0.00     0.036 A 
ATOM     14  C   UNL d   1      20.584 -19.193  -1.275  0.00  0.00     0.029 A 
ATOM     15  C   UNL d   1      19.181 -19.322  -1.258  0.00  0.00     0.003 A 
ATOM     16  C   UNL d   1      18.534 -19.926  -0.179  0.00  0.00     0.007 A 
ATOM     17  C   UNL d   1      19.277 -20.344   0.920  0.00  0.00    -0.060 A 
ATOM     18  C   UNL d   1      18.610 -20.897   2.143  0.00  0.00     0.048 C 
ATOM     19  C   UNL d   1      20.672 -20.189   0.905  0.00  0.00     0.036 A 
ENDBRANCH  10  13
ENDBRANCH   3   7
BRANCH   1  20
ATOM     20  C   UNL d   1      26.569 -15.509  -4.223  0.00  0.00     0.254 C 
ATOM     21  N   UNL d   1      27.880 -15.552  -4.735  0.00  0.00    -0.353 N 
ATOM     22  H   UNL d   1      28.617 -15.550  -4.032  0.00  0.00     0.163 HD
ATOM     23  O   UNL d   1      25.574 -15.351  -4.927  0.00  0.00    -0.268 OA
BRANCH  21  24
ATOM     24  C   UNL d   1      28.207 -14.863  -6.039  0.00  0.00     0.080 C 
ATOM     25  C   UNL d   1      29.560 -15.387  -6.321  0.00  0.00     0.032 C 
BRANCH  24  26
ATOM     26  C   UNL d   1      28.219 -13.290  -6.008  0.00  0.00     0.020 C 
ATOM     27  C   UNL d   1      28.768 -12.559  -7.266  0.00  0.00     0.007 C 
ENDBRANCH  24  26
ENDBRANCH  21  24
ENDBRANCH   1  20
BRANCH   6  28
ATOM     28  N   UNL d   1      27.191 -12.944  -2.307  0.00  0.00    -0.378 N 
ATOM     29  C   UNL d   1      26.231 -12.734  -3.315  0.00  0.00     0.127 C 
ATOM     30  C   UNL d   1      26.633 -11.496  -3.571  0.00  0.00     0.055 C 
ATOM     31  C   UNL d   1      26.751 -10.381  -4.373  0.00  0.00    -0.063 C 
ATOM     32  C   UNL d   1      25.524 -10.461  -5.240  0.00  0.00     0.004 C 
ATOM     33  C   UNL d   1      28.112 -10.138  -3.988  0.00  0.00     0.034 C 
ATOM     34  C   UNL d   1      25.605 -10.156  -6.527  0.00  0.00     0.000 C 
ATOM     35  C   UNL d   1      26.907  -9.757  -6.720  0.00  0.00    -0.003 C 
ATOM     36  C   UNL d   1      28.109  -9.848  -5.513  0.00  0.00    -0.009 C 
ATOM     37  C   UNL d   1      28.312 -11.406  -2.422  0.00  0.00     0.142 C 
ENDBRANCH   6  28
TORSDOF 6
ENDMDL
MODEL 2
REMARK VINA RESULT:    -9.197      1.952      2.933
REMARK INTER + INTRA:         -11.878
REMARK INTER:                 -10.987
REMARK INTRA:                  -0.891
REMARK CONF_INDEPENDENT:        1.790
REMARK UNBOUND:                -0.891
REMARK  6 active torsions:
REMARK  status: ('A' for Active; 'I' for Inactive)
REMARK    1  A    between atoms: C_2  and  C_3 
REMARK    2  A    between atoms: C_3  and  N_5 
REMARK       I    between atoms: N_5  and  C_6 
REMARK    3  A    between atoms: C_6  and  C_8 
REMARK    4  A    between atoms: C_10  and  N_11 
REMARK       I    between atoms: N_11  and  C_12 
REMARK       I    between atoms: C_12  and  N_14 
REMARK    5  A    between atoms: N_14  and  C_15 
REMARK    6  A    between atoms: C_24  and  N_25 
ROOT
ATOM      1  C   UNL d   1      27.549 -16.088  -2.419  0.00  0.00     0.060 A 
ATOM      2  C   UNL d   1      26.804 -16.703  -1.330  0.00  0.00     0.049 A 
ATOM      3  C   UNL d   1      25.424 -16.613  -1.274  0.00  0.00     0.037 A 
ATOM      4  C   UNL d   1      24.873 -15.794  -2.280  0.00  0.00     0.032 A 
ATOM      5  C   UNL d   1      25.582 -15.182  -3.402  0.00  0.00     0.032 A 
ATOM      6  C   UNL d   1      26.957 -15.268  -3.577  0.00  0.00     0.046 A 
ENDROOT
BRANCH   3   7
ATOM      7  N   UNL d   1      24.625 -17.341  -0.285  0.00  0.00    -0.309 N 
ATOM      8  C   UNL d   1      23.356 -17.863  -0.560  0.00  0.00     0.325 C 
ATOM      9  O   UNL d   1      22.784 -17.684  -1.632  0.00  0.00    -0.247 OA
ATOM     10  N   UNL d   1      22.716 -18.573   0.453  0.00  0.00    -0.309 N 
ATOM     11  H   UNL d   1      23.073 -18.606   1.396  0.00  0.00     0.170 HD
ATOM     12  H   UNL d   1      25.072 -17.585   0.592  0.00  0.00     0.170 HD
BRANCH  10  13
ATOM     13  C   UNL d   1      21.407 -19.132   0.229  0.00  0.00     0.036 A 
ATOM     14  C   UNL d   1      20.851 -19.221  -1.053  0.00  0.00     0.029 A 
ATOM     15  C   UNL d   1      19.538 -19.699  -1.231  0.00  0.00     0.003 A 
ATOM     16  C   UNL d   1      18.791 -20.154  -0.145  0.00  0.00     0.007 A 
ATOM     17  C   UNL d   1      19.326 -20.073   1.138  0.00  0.00    -0.060 A 
ATOM     18  C   UNL d   1      18.516 -20.450   2.341  0.00  0.00     0.048 C 
ATOM     19  C   UNL d   1      20.626 -19.573   1.309  0.00  0.00     0.036 A 
ENDBRANCH  10  13
ENDBRANCH   3   7
BRANCH   1  20
ATOM     20  C   UNL d   1      29.014 -16.525  -2.295  0.00  0.00     0.254 C 
ATOM     21  N   UNL d   1      29.801 -16.474  -3.463  0.00  0.00    -0.353 N 
ATOM     22  H   UNL d   1      29.319 -16.134  -4.292  0.00  0.00     0.163 HD
ATOM     23  O   UNL d   1      29.390 -17.051  -1.250  0.00  0.00    -0.268 OA
BRANCH  21  24
ATOM     24  C   UNL d   1      30.876 -17.510  -3.698  0.00  0.00     0.080 C 
ATOM     25  C   UNL d   1      31.965 -17.010  -2.834  0.00  0.00     0.032 C 
BRANCH  24  26
ATOM     26  C   UNL d   1      31.374 -17.666  -5.183  0.00  0.00     0.020 C 
ATOM     27  C   UNL d   1      30.405 -18.349  -6.188  0.00  0.00     0.007 C 
ENDBRANCH  24  26
ENDBRANCH  21  24
ENDBRANCH   1  20
BRANCH   6  28
ATOM     28  N   UNL d   1      27.718 -14.721  -4.684  0.00  0.00    -0.378 N 
ATOM     29  C   UNL d   1      26.896 -13.606  -4.935  0.00  0.00     0.127 C 
ATOM     30  C   UNL d   1      27.740 -13.060  -5.801  0.00  0.00     0.055 C 
ATOM     31  C   UNL d   1      28.057 -12.230  -6.855  0.00  0.00    -0.063 C 
ATOM     32  C   UNL d   1      27.027 -11.139  -6.743  0.00  0.00     0.004 C 
ATOM     33  C   UNL d   1      28.946 -13.184  -7.455  0.00  0.00     0.034 C 
ATOM     34  C   UNL d   1      26.464 -10.650  -7.838  0.00  0.00     0.000 C 
ATOM     35  C   UNL d   1      27.079 -11.301  -8.881  0.00  0.00    -0.003 C 
ATOM     36  C   UNL d   1      28.193 -12.576  -8.669  0.00  0.00    -0.009 C 
ATOM     37  C   UNL d   1      29.112 -14.555  -5.974  0.00  0.00     0.142 C 
ENDBRANCH   6  28
TORSDOF 6
ENDMDL
MODEL 3
REMARK VINA RESULT:    -9.182      2.188      4.025
REMARK INTER + INTRA:         -11.900
REMARK INTER:                 -10.972
REMARK INTRA:                  -0.928
REMARK CONF_INDEPENDENT:        1.790
REMARK UNBOUND:                -0.928
REMARK  6 active torsions:
REMARK  status: ('A' for Active; 'I' for Inactive)
REMARK    1  A    between atoms: C_2  and  C_3 
REMARK    2  A    between atoms: C_3  and  N_5 
REMARK       I    between atoms: N_5  and  C_6 
REMARK    3  A    between atoms: C_6  and  C_8 
REMARK    4  A    between atoms: C_10  and  N_11 
REMARK       I    between atoms: N_11  and  C_12 
REMARK       I    between atoms: C_12  and  N_14 
REMARK    5  A    between atoms: N_14  and  C_15 
REMARK    6  A    between atoms: C_24  and  N_25 
ROOT
ATOM      1  C   UNL d   1      26.570 -14.232  -0.789  0.00  0.00     0.060 A 
ATOM      2  C   UNL d   1      25.935 -15.387  -0.172  0.00  0.00     0.049 A 
ATOM      3  C   UNL d   1      24.983 -16.124  -0.855  0.00  0.00     0.037 A 
ATOM      4  C   UNL d   1      24.638 -15.574  -2.105  0.00  0.00     0.032 A 
ATOM      5  C   UNL d   1      25.269 -14.436  -2.770  0.00  0.00     0.032 A 
ATOM      6  C   UNL d   1      26.272 -13.671  -2.190  0.00  0.00     0.046 A 
ENDROOT
BRANCH   3   7
ATOM      7  N   UNL d   1      24.431 -17.377  -0.333  0.00  0.00    -0.309 N 
ATOM      8  C   UNL d   1      23.077 -17.717  -0.429  0.00  0.00     0.325 C 
ATOM      9  O   UNL d   1      22.234 -16.954  -0.894  0.00  0.00    -0.247 OA
ATOM     10  N   UNL d   1      22.685 -18.957   0.068  0.00  0.00    -0.309 N 
ATOM     11  H   UNL d   1      23.307 -19.545   0.602  0.00  0.00     0.170 HD
ATOM     12  H   UNL d   1      25.087 -18.079  -0.006  0.00  0.00     0.170 HD
BRANCH  10  13
ATOM     13  C   UNL d   1      21.303 -19.360  -0.001  0.00  0.00     0.036 A 
ATOM     14  C   UNL d   1      20.585 -19.331  -1.202  0.00  0.00     0.029 A 
ATOM     15  C   UNL d   1      19.214 -19.656  -1.222  0.00  0.00     0.003 A 
ATOM     16  C   UNL d   1      18.563 -20.076  -0.063  0.00  0.00     0.007 A 
ATOM     17  C   UNL d   1      19.260 -20.110   1.141  0.00  0.00    -0.060 A 
ATOM     18  C   UNL d   1      18.570 -20.451   2.428  0.00  0.00     0.048 C 
ATOM     19  C   UNL d   1      20.620 -19.762   1.157  0.00  0.00     0.036 A 
ENDBRANCH  10  13
ENDBRANCH   3   7
BRANCH   1  20
ATOM     20  C   UNL d   1      27.695 -13.758   0.139  0.00  0.00     0.254 C 
ATOM     21  N   UNL d   1      27.753 -14.331   1.424  0.00  0.00    -0.353 N 
ATOM     22  H   UNL d   1      27.037 -15.028   1.617  0.00  0.00     0.163 HD
ATOM     23  O   UNL d   1      28.382 -12.798  -0.204  0.00  0.00    -0.268 OA
BRANCH  21  24
ATOM     24  C   UNL d   1      28.206 -13.503   2.604  0.00  0.00     0.080 C 
ATOM     25  C   UNL d   1      29.609 -13.942   2.753  0.00  0.00     0.032 C 
BRANCH  24  26
ATOM     26  C   UNL d   1      27.414 -13.717   3.947  0.00  0.00     0.020 C 
ATOM     27  C   UNL d   1      27.930 -14.825   4.906  0.00  0.00     0.007 C 
ENDBRANCH  24  26
ENDBRANCH  21  24
ENDBRANCH   1  20
BRANCH   6  28
ATOM     28  N   UNL d   1      26.967 -12.556  -2.805  0.00  0.00    -0.378 N 
ATOM     29  C   UNL d   1      26.187 -12.479  -3.974  0.00  0.00     0.127 C 
ATOM     30  C   UNL d   1      26.738 -11.343  -4.380  0.00  0.00     0.055 C 
ATOM     31  C   UNL d   1      27.075 -10.412  -5.339  0.00  0.00    -0.063 C 
ATOM     32  C   UNL d   1      25.984 -10.575  -6.362  0.00  0.00     0.004 C 
ATOM     33  C   UNL d   1      28.384 -10.191  -4.792  0.00  0.00     0.034 C 
ATOM     34  C   UNL d   1      26.279 -10.528  -7.653  0.00  0.00     0.000 C 
ATOM     35  C   UNL d   1      27.626 -10.261  -7.705  0.00  0.00    -0.003 C 
ATOM     36  C   UNL d   1      28.628 -10.200  -6.325  0.00  0.00    -0.009 C 
ATOM     37  C   UNL d   1      28.235 -11.146  -3.013  0.00  0.00     0.142 C 
ENDBRANCH   6  28
TORSDOF 6
ENDMDL
MODEL 4
REMARK VINA RESULT:    -9.079      5.501      8.347
REMARK INTER + INTRA:         -11.849
REMARK INTER:                 -10.869
REMARK INTRA:                  -0.981
REMARK CONF_INDEPENDENT:        1.790
REMARK UNBOUND:                -0.981
REMARK  6 active torsions:
REMARK  status: ('A' for Active; 'I' for Inactive)
REMARK    1  A    between atoms: C_2  and  C_3 
REMARK    2  A    between atoms: C_3  and  N_5 
REMARK       I    between atoms: N_5  and  C_6 
REMARK    3  A    between atoms: C_6  and  C_8 
REMARK    4  A    between atoms: C_10  and  N_11 
REMARK       I    between atoms: N_11  and  C_12 
REMARK       I    between atoms: C_12  and  N_14 
REMARK    5  A    between atoms: N_14  and  C_15 
REMARK    6  A    between atoms: C_24  and  N_25 
ROOT
ATOM      1  C   UNL d   1      27.298 -15.119   0.346  0.00  0.00     0.060 A 
ATOM      2  C   UNL d   1      27.780 -15.491   1.669  0.00  0.00     0.049 A 
ATOM      3  C   UNL d   1      28.277 -14.534   2.538  0.00  0.00     0.037 A 
ATOM      4  C   UNL d   1      28.365 -13.249   1.967  0.00  0.00     0.032 A 
ATOM      5  C   UNL d   1      27.869 -12.831   0.658  0.00  0.00     0.032 A 
ATOM      6  C   UNL d   1      27.300 -13.706  -0.259  0.00  0.00     0.046 A 
ENDROOT
BRANCH   3   7
ATOM      7  N   UNL d   1      28.631 -14.838   3.927  0.00  0.00    -0.309 N 
ATOM      8  C   UNL d   1      28.584 -13.889   4.954  0.00  0.00     0.325 C 
ATOM      9  O   UNL d   1      28.314 -12.708   4.753  0.00  0.00    -0.247 OA
ATOM     10  N   UNL d   1      28.903 -14.314   6.241  0.00  0.00    -0.309 N 
ATOM     11  H   UNL d   1      29.287 -15.228   6.427  0.00  0.00     0.170 HD
ATOM     12  H   UNL d   1      28.790 -15.810   4.169  0.00  0.00     0.170 HD
BRANCH  10  13
ATOM     13  C   UNL d   1      28.875 -13.380   7.339  0.00  0.00     0.036 A 
ATOM     14  C   UNL d   1      29.212 -12.033   7.171  0.00  0.00     0.029 A 
ATOM     15  C   UNL d   1      29.251 -11.162   8.278  0.00  0.00     0.003 A 
ATOM     16  C   UNL d   1      28.891 -11.609   9.549  0.00  0.00     0.007 A 
ATOM     17  C   UNL d   1      28.553 -12.946   9.737  0.00  0.00    -0.060 A 
ATOM     18  C   UNL d   1      28.266 -13.489  11.104  0.00  0.00     0.048 C 
ATOM     19  C   UNL d   1      28.540 -13.812   8.632  0.00  0.00     0.036 A 
ENDBRANCH  10  13
ENDBRANCH   3   7
BRANCH   1  20
ATOM     20  C   UNL d   1      26.647 -16.357  -0.284  0.00  0.00     0.254 C 
ATOM     21  N   UNL d   1      25.685 -16.136  -1.290  0.00  0.00    -0.353 N 
ATOM     22  H   UNL d   1      25.517 -15.158  -1.518  0.00  0.00     0.163 HD
ATOM     23  O   UNL d   1      26.858 -17.458   0.217  0.00  0.00    -0.268 OA
BRANCH  21  24
ATOM     24  C   UNL d   1      24.497 -17.060  -1.418  0.00  0.00     0.080 C 
ATOM     25  C   UNL d   1      23.369 -16.117  -1.269  0.00  0.00     0.032 C 
BRANCH  24  26
ATOM     26  C   UNL d   1      24.398 -18.213  -0.350  0.00  0.00     0.020 C 
ATOM     27  C   UNL d   1      23.017 -18.907  -0.181  0.00  0.00     0.007 C 
ENDBRANCH  24  26
ENDBRANCH  21  24
ENDBRANCH   1  20
BRANCH   6  28
ATOM     28  N   UNL d   1      26.753 -13.355  -1.556  0.00  0.00    -0.378 N 
ATOM     29  C   UNL d   1      27.641 -14.117  -2.339  0.00  0.00     0.127 C 
ATOM     30  C   UNL d   1      26.972 -13.911  -3.466  0.00  0.00     0.055 C 
ATOM     31  C   UNL d   1      26.863 -13.847  -4.839  0.00  0.00    -0.063 C 
ATOM     32  C   UNL d   1      27.894 -14.840  -5.303  0.00  0.00     0.004 C 
ATOM     33  C   UNL d   1      26.057 -12.660  -4.809  0.00  0.00     0.034 C 
ATOM     34  C   UNL d   1      28.648 -14.562  -6.357  0.00  0.00     0.000 C 
ATOM     35  C   UNL d   1      28.196 -13.347  -6.813  0.00  0.00    -0.003 C 
ATOM     36  C   UNL d   1      27.021 -12.414  -6.000  0.00  0.00    -0.009 C 
ATOM     37  C   UNL d   1      25.601 -12.542  -2.840  0.00  0.00     0.142 C 
ENDBRANCH   6  28
TORSDOF 6
ENDMDL
MODEL 5
REMARK VINA RESULT:    -9.021      1.855      4.366
REMARK INTER + INTRA:         -12.310
REMARK INTER:                 -10.811
REMARK INTRA:                  -1.499
REMARK CONF_INDEPENDENT:        1.790
REMARK UNBOUND:                -1.499
REMARK  6 active torsions:
REMARK  status: ('A' for Active; 'I' for Inactive)
REMARK    1  A    between atoms: C_2  and  C_3 
REMARK    2  A    between atoms: C_3  and  N_5 
REMARK       I    between atoms: N_5  and  C_6 
REMARK    3  A    between atoms: C_6  and  C_8 
REMARK    4  A    between atoms: C_10  and  N_11 
REMARK       I    between atoms: N_11  and  C_12 
REMARK       I    between atoms: C_12  and  N_14 
REMARK    5  A    between atoms: N_14  and  C_15 
REMARK    6  A    between atoms: C_24  and  N_25 
ROOT
ATOM      1  C   UNL d   1      26.839 -15.580  -3.302  0.00  0.00     0.060 A 
ATOM      2  C   UNL d   1      25.631 -15.840  -2.532  0.00  0.00     0.049 A 
ATOM      3  C   UNL d   1      25.695 -16.480  -1.306  0.00  0.00     0.037 A 
ATOM      4  C   UNL d   1      26.988 -16.930  -0.974  0.00  0.00     0.032 A 
ATOM      5  C   UNL d   1      28.226 -16.667  -1.705  0.00  0.00     0.032 A 
ATOM      6  C   UNL d   1      28.271 -15.982  -2.913  0.00  0.00     0.046 A 
ENDROOT
BRANCH   3   7
ATOM      7  N   UNL d   1      24.529 -16.627  -0.431  0.00  0.00    -0.309 N 
ATOM      8  C   UNL d   1      23.513 -17.562  -0.659  0.00  0.00     0.325 C 
ATOM      9  O   UNL d   1      23.485 -18.281  -1.654  0.00  0.00    -0.247 OA
ATOM     10  N   UNL d   1      22.478 -17.632   0.271  0.00  0.00    -0.309 N 
ATOM     11  H   UNL d   1      22.373 -16.955   1.011  0.00  0.00     0.170 HD
ATOM     12  H   UNL d   1      24.532 -16.115   0.444  0.00  0.00     0.170 HD
BRANCH  10  13
ATOM     13  C   UNL d   1      21.403 -18.574   0.087  0.00  0.00     0.036 A 
ATOM     14  C   UNL d   1      20.859 -18.835  -1.175  0.00  0.00     0.029 A 
ATOM     15  C   UNL d   1      19.756 -19.701  -1.313  0.00  0.00     0.003 A 
ATOM     16  C   UNL d   1      19.229 -20.366  -0.205  0.00  0.00     0.007 A 
ATOM     17  C   UNL d   1      19.756 -20.118   1.059  0.00  0.00    -0.060 A 
ATOM     18  C   UNL d   1      19.149 -20.727   2.286  0.00  0.00     0.048 C 
ATOM     19  C   UNL d   1      20.839 -19.235   1.189  0.00  0.00     0.036 A 
ENDBRANCH  10  13
ENDBRANCH   3   7
BRANCH   1  20
ATOM     20  C   UNL d   1      26.455 -14.702  -4.500  0.00  0.00     0.254 C 
ATOM     21  N   UNL d   1      27.498 -14.019  -5.157  0.00  0.00    -0.353 N 
ATOM     22  H   UNL d   1      28.427 -14.184  -4.777  0.00  0.00     0.163 HD
ATOM     23  O   UNL d   1      25.266 -14.498  -4.729  0.00  0.00    -0.268 OA
BRANCH  21  24
ATOM     24  C   UNL d   1      27.255 -12.647  -5.741  0.00  0.00     0.080 C 
ATOM     25  C   UNL d   1      28.626 -12.230  -6.101  0.00  0.00     0.032 C 
BRANCH  24  26
ATOM     26  C   UNL d   1      26.590 -11.592  -4.780  0.00  0.00     0.020 C 
ATOM     27  C   UNL d   1      27.079 -11.570  -3.305  0.00  0.00     0.007 C 
ENDBRANCH  24  26
ENDBRANCH  21  24
ENDBRANCH   1  20
BRANCH   6  28
ATOM     28  N   UNL d   1      29.463 -15.652  -3.670  0.00  0.00    -0.378 N 
ATOM     29  C   UNL d   1      29.333 -16.649  -4.655  0.00  0.00     0.127 C 
ATOM     30  C   UNL d   1      30.319 -16.170  -5.403  0.00  0.00     0.055 C 
ATOM     31  C   UNL d   1      31.303 -16.283  -6.362  0.00  0.00    -0.063 C 
ATOM     32  C   UNL d   1      30.773 -17.368  -7.259  0.00  0.00     0.004 C 
ATOM     33  C   UNL d   1      32.242 -15.490  -5.620  0.00  0.00     0.034 C 
ATOM     34  C   UNL d   1      31.600 -18.283  -7.744  0.00  0.00     0.000 C 
ATOM     35  C   UNL d   1      32.846 -17.918  -7.294  0.00  0.00    -0.003 C 
ATOM     36  C   UNL d   1      33.114 -16.634  -6.202  0.00  0.00    -0.009 C 
ATOM     37  C   UNL d   1      31.053 -14.725  -4.170  0.00  0.00     0.142 C 
ENDBRANCH   6  28
TORSDOF 6
ENDMDL
MODEL 6
REMARK VINA RESULT:    -8.795      3.317      5.277
REMARK INTER + INTRA:         -11.856
REMARK INTER:                 -10.585
REMARK INTRA:                  -1.271
REMARK CONF_INDEPENDENT:        1.790
REMARK UNBOUND:                -1.271
REMARK  6 active torsions:
REMARK  status: ('A' for Active; 'I' for Inactive)
REMARK    1  A    between atoms: C_2  and  C_3 
REMARK    2  A    between atoms: C_3  and  N_5 
REMARK       I    between atoms: N_5  and  C_6 
REMARK    3  A    between atoms: C_6  and  C_8 
REMARK    4  A    between atoms: C_10  and  N_11 
REMARK       I    between atoms: N_11  and  C_12 
REMARK       I    between atoms: C_12  and  N_14 
REMARK    5  A    between atoms: N_14  and  C_15 
REMARK    6  A    between atoms: C_24  and  N_25 
ROOT
ATOM      1  C   UNL d   1      26.076 -16.310  -2.097  0.00  0.00     0.060 A 
ATOM      2  C   UNL d   1      24.663 -16.632  -2.224  0.00  0.00     0.049 A 
ATOM      3  C   UNL d   1      23.958 -17.168  -1.160  0.00  0.00     0.037 A 
ATOM      4  C   UNL d   1      24.764 -17.459  -0.042  0.00  0.00     0.032 A 
ATOM      5  C   UNL d   1      26.177 -17.127   0.134  0.00  0.00     0.032 A 
ATOM      6  C   UNL d   1      26.952 -16.534  -0.854  0.00  0.00     0.046 A 
ENDROOT
BRANCH   3   7
ATOM      7  N   UNL d   1      22.506 -17.366  -1.194  0.00  0.00    -0.309 N 
ATOM      8  C   UNL d   1      21.856 -18.385  -0.490  0.00  0.00     0.325 C 
ATOM      9  O   UNL d   1      22.461 -19.238   0.152  0.00  0.00    -0.247 OA
ATOM     10  N   UNL d   1      20.466 -18.441  -0.570  0.00  0.00    -0.309 N 
ATOM     11  H   UNL d   1      19.940 -17.866  -1.212  0.00  0.00     0.170 HD
ATOM     12  H   UNL d   1      21.946 -16.651  -1.645  0.00  0.00     0.170 HD
BRANCH  10  13
ATOM     13  C   UNL d   1      19.741 -19.470   0.131  0.00  0.00     0.036 A 
ATOM     14  C   UNL d   1      18.747 -20.230  -0.495  0.00  0.00     0.029 A 
ATOM     15  C   UNL d   1      18.002 -21.174   0.238  0.00  0.00     0.003 A 
ATOM     16  C   UNL d   1      18.284 -21.418   1.582  0.00  0.00     0.007 A 
ATOM     17  C   UNL d   1      19.268 -20.671   2.223  0.00  0.00    -0.060 A 
ATOM     18  C   UNL d   1      19.527 -20.826   3.691  0.00  0.00     0.048 C 
ATOM     19  C   UNL d   1      19.990 -19.715   1.490  0.00  0.00     0.036 A 
ENDBRANCH  10  13
ENDBRANCH   3   7
BRANCH   1  20
ATOM     20  C   UNL d   1      26.508 -15.568  -3.368  0.00  0.00     0.254 C 
ATOM     21  N   UNL d   1      27.878 -15.268  -3.504  0.00  0.00    -0.353 N 
ATOM     22  H   UNL d   1      28.467 -15.589  -2.738  0.00  0.00     0.163 HD
ATOM     23  O   UNL d   1      25.643 -15.124  -4.119  0.00  0.00    -0.268 OA
BRANCH  21  24
ATOM     24  C   UNL d   1      28.310 -13.989  -4.182  0.00  0.00     0.080 C 
ATOM     25  C   UNL d   1      27.493 -12.985  -3.470  0.00  0.00     0.032 C 
BRANCH  24  26
ATOM     26  C   UNL d   1      28.058 -13.908  -5.734  0.00  0.00     0.020 C 
ATOM     27  C   UNL d   1      29.148 -14.511  -6.663  0.00  0.00     0.007 C 
ENDBRANCH  24  26
ENDBRANCH  21  24
ENDBRANCH   1  20
BRANCH   6  28
ATOM     28  N   UNL d   1      28.344 -16.143  -0.734  0.00  0.00    -0.378 N 
ATOM     29  C   UNL d   1      28.876 -17.429  -0.521  0.00  0.00     0.127 C 
ATOM     30  C   UNL d   1      30.136 -17.027  -0.619  0.00  0.00     0.055 C 
ATOM     31  C   UNL d   1      31.489 -17.153  -0.390  0.00  0.00    -0.063 C 
ATOM     32  C   UNL d   1      31.677 -18.643  -0.302  0.00  0.00     0.004 C 
ATOM     33  C   UNL d   1      31.662 -15.756  -0.105  0.00  0.00     0.034 C 
ATOM     34  C   UNL d   1      32.497 -19.151   0.606  0.00  0.00     0.000 C 
ATOM     35  C   UNL d   1      33.047 -18.064   1.243  0.00  0.00    -0.003 C 
ATOM     36  C   UNL d   1      32.560 -16.455   0.950  0.00  0.00    -0.009 C 
ATOM     37  C   UNL d   1      29.877 -15.009  -0.703  0.00  0.00     0.142 C 
ENDBRANCH   6  28
TORSDOF 6
ENDMDL
MODEL 7
REMARK VINA RESULT:    -8.760      2.929      4.847
REMARK INTER + INTRA:         -11.744
REMARK INTER:                 -10.549
REMARK INTRA:                  -1.195
REMARK CONF_INDEPENDENT:        1.790
REMARK UNBOUND:                -1.195
REMARK  6 active torsions:
REMARK  status: ('A' for Active; 'I' for Inactive)
REMARK    1  A    between atoms: C_2  and  C_3 
REMARK    2  A    between atoms: C_3  and  N_5 
REMARK       I    between atoms: N_5  and  C_6 
REMARK    3  A    between atoms: C_6  and  C_8 
REMARK    4  A    between atoms: C_10  and  N_11 
REMARK       I    between atoms: N_11  and  C_12 
REMARK       I    between atoms: C_12  and  N_14 
REMARK    5  A    between atoms: N_14  and  C_15 
REMARK    6  A    between atoms: C_24  and  N_25 
ROOT
ATOM      1  C   UNL d   1      26.606 -16.095  -1.852  0.00  0.00     0.060 A 
ATOM      2  C   UNL d   1      25.195 -16.366  -2.086  0.00  0.00     0.049 A 
ATOM      3  C   UNL d   1      24.440 -17.057  -1.153  0.00  0.00     0.037 A 
ATOM      4  C   UNL d   1      25.196 -17.541  -0.067  0.00  0.00     0.032 A 
ATOM      5  C   UNL d   1      26.604 -17.269   0.216  0.00  0.00     0.032 A 
ATOM      6  C   UNL d   1      27.426 -16.537  -0.629  0.00  0.00     0.046 A 
ENDROOT
BRANCH   3   7
ATOM      7  N   UNL d   1      22.989 -17.219  -1.276  0.00  0.00    -0.309 N 
ATOM      8  C   UNL d   1      22.266 -18.194  -0.581  0.00  0.00     0.325 C 
ATOM      9  O   UNL d   1      22.805 -19.038   0.130  0.00  0.00    -0.247 OA
ATOM     10  N   UNL d   1      20.884 -18.218  -0.750  0.00  0.00    -0.309 N 
ATOM     11  H   UNL d   1      20.417 -17.656  -1.446  0.00  0.00     0.170 HD
ATOM     12  H   UNL d   1      22.479 -16.508  -1.788  0.00  0.00     0.170 HD
BRANCH  10  13
ATOM     13  C   UNL d   1      20.087 -19.202  -0.062  0.00  0.00     0.036 A 
ATOM     14  C   UNL d   1      19.083 -19.927  -0.714  0.00  0.00     0.029 A 
ATOM     15  C   UNL d   1      18.269 -20.825   0.004  0.00  0.00     0.003 A 
ATOM     16  C   UNL d   1      18.489 -21.058   1.361  0.00  0.00     0.007 A 
ATOM     17  C   UNL d   1      19.482 -20.346   2.028  0.00  0.00    -0.060 A 
ATOM     18  C   UNL d   1      19.678 -20.488   3.507  0.00  0.00     0.048 C 
ATOM     19  C   UNL d   1      20.273 -19.436   1.309  0.00  0.00     0.036 A 
ENDBRANCH  10  13
ENDBRANCH   3   7
BRANCH   1  20
ATOM     20  C   UNL d   1      27.099 -15.162  -2.966  0.00  0.00     0.254 C 
ATOM     21  N   UNL d   1      27.154 -13.785  -2.674  0.00  0.00    -0.353 N 
ATOM     22  H   UNL d   1      26.868 -13.534  -1.730  0.00  0.00     0.163 HD
ATOM     23  O   UNL d   1      27.260 -15.620  -4.094  0.00  0.00    -0.268 OA
BRANCH  21  24
ATOM     24  C   UNL d   1      26.852 -12.770  -3.752  0.00  0.00     0.080 C 
ATOM     25  C   UNL d   1      26.725 -11.528  -2.962  0.00  0.00     0.032 C 
BRANCH  24  26
ATOM     26  C   UNL d   1      25.548 -13.024  -4.597  0.00  0.00     0.020 C 
ATOM     27  C   UNL d   1      24.355 -13.707  -3.872  0.00  0.00     0.007 C 
ENDBRANCH  24  26
ENDBRANCH  21  24
ENDBRANCH   1  20
BRANCH   6  28
ATOM     28  N   UNL d   1      28.816 -16.197  -0.393  0.00  0.00    -0.378 N 
ATOM     29  C   UNL d   1      28.606 -15.312   0.682  0.00  0.00     0.127 C 
ATOM     30  C   UNL d   1      29.897 -15.202   0.967  0.00  0.00     0.055 C 
ATOM     31  C   UNL d   1      30.985 -14.559   1.516  0.00  0.00    -0.063 C 
ATOM     32  C   UNL d   1      30.380 -13.795   2.663  0.00  0.00     0.004 C 
ATOM     33  C   UNL d   1      31.838 -14.859   0.401  0.00  0.00     0.034 C 
ATOM     34  C   UNL d   1      30.790 -12.562   2.923  0.00  0.00     0.000 C 
ATOM     35  C   UNL d   1      31.795 -12.319   2.017  0.00  0.00    -0.003 C 
ATOM     36  C   UNL d   1      32.212 -13.396   0.761  0.00  0.00    -0.009 C 
ATOM     37  C   UNL d   1      30.712 -16.207  -0.605  0.00  0.00     0.142 C 
ENDBRANCH   6  28
TORSDOF 6
ENDMDL
MODEL 8
REMARK VINA RESULT:    -8.698      3.267      9.533
REMARK INTER + INTRA:         -11.698
REMARK INTER:                 -10.488
REMARK INTRA:                  -1.210
REMARK CONF_INDEPENDENT:        1.790
REMARK UNBOUND:                -1.210
REMARK  6 active torsions:
REMARK  status: ('A' for Active; 'I' for Inactive)
REMARK    1  A    between atoms: C_2  and  C_3 
REMARK    2  A    between atoms: C_3  and  N_5 
REMARK       I    between atoms: N_5  and  C_6 
REMARK    3  A    between atoms: C_6  and  C_8 
REMARK    4  A    between atoms: C_10  and  N_11 
REMARK       I    between atoms: N_11  and  C_12 
REMARK       I    between atoms: C_12  and  N_14 
REMARK    5  A    between atoms: N_14  and  C_15 
REMARK    6  A    between atoms: C_24  and  N_25 
ROOT
ATOM      1  C   UNL d   1      26.896 -13.421  -4.600  0.00  0.00     0.060 A 
ATOM      2  C   UNL d   1      26.796 -12.208  -5.398  0.00  0.00     0.049 A 
ATOM      3  C   UNL d   1      26.150 -11.086  -4.907  0.00  0.00     0.037 A 
ATOM      4  C   UNL d   1      25.533 -11.295  -3.658  0.00  0.00     0.032 A 
ATOM      5  C   UNL d   1      25.632 -12.486  -2.815  0.00  0.00     0.032 A 
ATOM      6  C   UNL d   1      26.308 -13.638  -3.196  0.00  0.00     0.046 A 
ENDROOT
BRANCH   3   7
ATOM      7  N   UNL d   1      26.157  -9.800  -5.609  0.00  0.00    -0.309 N 
ATOM      8  C   UNL d   1      25.098  -8.888  -5.547  0.00  0.00     0.325 C 
ATOM      9  O   UNL d   1      24.049  -9.130  -4.957  0.00  0.00    -0.247 OA
ATOM     10  N   UNL d   1      25.244  -7.680  -6.226  0.00  0.00    -0.309 N 
ATOM     11  H   UNL d   1      26.013  -7.506  -6.855  0.00  0.00     0.170 HD
ATOM     12  H   UNL d   1      27.023  -9.511  -6.051  0.00  0.00     0.170 HD
BRANCH  10  13
ATOM     13  C   UNL d   1      24.185  -6.703  -6.200  0.00  0.00     0.036 A 
ATOM     14  C   UNL d   1      24.212  -5.609  -5.327  0.00  0.00     0.029 A 
ATOM     15  C   UNL d   1      23.125  -4.715  -5.270  0.00  0.00     0.003 A 
ATOM     16  C   UNL d   1      22.034  -4.862  -6.127  0.00  0.00     0.007 A 
ATOM     17  C   UNL d   1      21.989  -5.944  -7.001  0.00  0.00    -0.060 A 
ATOM     18  C   UNL d   1      20.787  -6.198  -7.860  0.00  0.00     0.048 C 
ATOM     19  C   UNL d   1      23.066  -6.844  -7.034  0.00  0.00     0.036 A 
ENDBRANCH  10  13
ENDBRANCH   3   7
BRANCH   1  20
ATOM     20  C   UNL d   1      27.819 -14.398  -5.339  0.00  0.00     0.254 C 
ATOM     21  N   UNL d   1      29.207 -14.189  -5.216  0.00  0.00    -0.353 N 
ATOM     22  H   UNL d   1      29.473 -13.403  -4.627  0.00  0.00     0.163 HD
ATOM     23  O   UNL d   1      27.325 -15.200  -6.128  0.00  0.00    -0.268 OA
BRANCH  21  24
ATOM     24  C   UNL d   1      30.124 -14.488  -6.379  0.00  0.00     0.080 C 
ATOM     25  C   UNL d   1      29.590 -13.583  -7.418  0.00  0.00     0.032 C 
BRANCH  24  26
ATOM     26  C   UNL d   1      30.131 -15.976  -6.892  0.00  0.00     0.020 C 
ATOM     27  C   UNL d   1      30.402 -17.087  -5.841  0.00  0.00     0.007 C 
ENDBRANCH  24  26
ENDBRANCH  21  24
ENDBRANCH   1  20
BRANCH   6  28
ATOM     28  N   UNL d   1      26.479 -14.837  -2.398  0.00  0.00    -0.378 N 
ATOM     29  C   UNL d   1      25.154 -15.304  -2.487  0.00  0.00     0.127 C 
ATOM     30  C   UNL d   1      25.428 -16.472  -1.920  0.00  0.00     0.055 C 
ATOM     31  C   UNL d   1      25.085 -17.619  -1.237  0.00  0.00    -0.063 C 
ATOM     32  C   UNL d   1      23.653 -17.836  -1.645  0.00  0.00     0.004 C 
ATOM     33  C   UNL d   1      26.258 -17.584  -0.410  0.00  0.00     0.034 C 
ATOM     34  C   UNL d   1      22.767 -18.241  -0.746  0.00  0.00     0.000 C 
ATOM     35  C   UNL d   1      23.485 -18.424   0.411  0.00  0.00    -0.003 C 
ATOM     36  C   UNL d   1      25.134 -18.011   0.571  0.00  0.00    -0.009 C 
ATOM     37  C   UNL d   1      27.355 -16.160  -1.341  0.00  0.00     0.142 C 
ENDBRANCH   6  28
TORSDOF 6
ENDMDL
MODEL 9
REMARK VINA RESULT:    -8.313      2.131      3.408
REMARK INTER + INTRA:         -11.934
REMARK INTER:                 -10.103
REMARK INTRA:                  -1.831
REMARK CONF_INDEPENDENT:        1.790
REMARK UNBOUND:                -1.831
REMARK  6 active torsions:
REMARK  status: ('A' for Active; 'I' for Inactive)
REMARK    1  A    between atoms: C_2  and  C_3 
REMARK    2  A    between atoms: C_3  and  N_5 
REMARK       I    between atoms: N_5  and  C_6 
REMARK    3  A    between atoms: C_6  and  C_8 
REMARK    4  A    between atoms: C_10  and  N_11 
REMARK       I    between atoms: N_11  and  C_12 
REMARK       I    between atoms: C_12  and  N_14 
REMARK    5  A    between atoms: N_14  and  C_15 
REMARK    6  A    between atoms: C_24  and  N_25 
ROOT
ATOM      1  C   UNL d   1      26.269 -14.728  -1.902  0.00  0.00     0.060 A 
ATOM      2  C   UNL d   1      25.641 -16.041  -1.897  0.00  0.00     0.049 A 
ATOM      3  C   UNL d   1      25.729 -16.866  -0.788  0.00  0.00     0.037 A 
ATOM      4  C   UNL d   1      26.558 -16.353   0.229  0.00  0.00     0.032 A 
ATOM      5  C   UNL d   1      27.183 -15.033   0.273  0.00  0.00     0.032 A 
ATOM      6  C   UNL d   1      27.101 -14.113  -0.764  0.00  0.00     0.046 A 
ENDROOT
BRANCH   3   7
ATOM      7  N   UNL d   1      24.989 -18.126  -0.682  0.00  0.00    -0.309 N 
ATOM      8  C   UNL d   1      23.597 -18.188  -0.561  0.00  0.00     0.325 C 
ATOM      9  O   UNL d   1      22.895 -17.186  -0.459  0.00  0.00    -0.247 OA
ATOM     10  N   UNL d   1      23.008 -19.450  -0.511  0.00  0.00    -0.309 N 
ATOM     11  H   UNL d   1      23.552 -20.295  -0.426  0.00  0.00     0.170 HD
ATOM     12  H   UNL d   1      25.503 -18.987  -0.834  0.00  0.00     0.170 HD
BRANCH  10  13
ATOM     13  C   UNL d   1      21.578 -19.576  -0.384  0.00  0.00     0.036 A 
ATOM     14  C   UNL d   1      20.714 -19.297  -1.449  0.00  0.00     0.029 A 
ATOM     15  C   UNL d   1      19.318 -19.354  -1.271  0.00  0.00     0.003 A 
ATOM     16  C   UNL d   1      18.770 -19.753  -0.051  0.00  0.00     0.007 A 
ATOM     17  C   UNL d   1      19.613 -20.033   1.020  0.00  0.00    -0.060 A 
ATOM     18  C   UNL d   1      19.062 -20.359   2.376  0.00  0.00     0.048 C 
ATOM     19  C   UNL d   1      21.003 -19.951   0.840  0.00  0.00     0.036 A 
ENDBRANCH  10  13
ENDBRANCH   3   7
BRANCH   1  20
ATOM     20  C   UNL d   1      25.833 -14.000  -3.180  0.00  0.00     0.254 C 
ATOM     21  N   UNL d   1      26.547 -12.839  -3.534  0.00  0.00    -0.353 N 
ATOM     22  H   UNL d   1      27.308 -12.593  -2.905  0.00  0.00     0.163 HD
ATOM     23  O   UNL d   1      24.796 -14.352  -3.738  0.00  0.00    -0.268 OA
BRANCH  21  24
ATOM     24  C   UNL d   1      25.833 -11.683  -4.196  0.00  0.00     0.080 C 
ATOM     25  C   UNL d   1      26.701 -11.427  -5.364  0.00  0.00     0.032 C 
BRANCH  24  26
ATOM     26  C   UNL d   1      25.676 -10.378  -3.329  0.00  0.00     0.020 C 
ATOM     27  C   UNL d   1      26.061  -9.030  -3.999  0.00  0.00     0.007 C 
ENDBRANCH  24  26
ENDBRANCH  21  24
ENDBRANCH   1  20
BRANCH   6  28
ATOM     28  N   UNL d   1      27.661 -12.775  -0.772  0.00  0.00    -0.378 N 
ATOM     29  C   UNL d   1      26.776 -12.203   0.161  0.00  0.00     0.127 C 
ATOM     30  C   UNL d   1      27.455 -11.067   0.251  0.00  0.00     0.055 C 
ATOM     31  C   UNL d   1      27.577  -9.725   0.539  0.00  0.00    -0.063 C 
ATOM     32  C   UNL d   1      26.544  -9.518   1.614  0.00  0.00     0.004 C 
ATOM     33  C   UNL d   1      28.390  -9.459  -0.614  0.00  0.00     0.034 C 
ATOM     34  C   UNL d   1      25.800  -8.421   1.610  0.00  0.00     0.000 C 
ATOM     35  C   UNL d   1      26.264  -7.675   0.553  0.00  0.00    -0.003 C 
ATOM     36  C   UNL d   1      27.437  -8.235  -0.553  0.00  0.00    -0.009 C 
ATOM     37  C   UNL d   1      28.829 -11.338  -1.228  0.00  0.00     0.142 C 
ENDBRANCH   6  28
TORSDOF 6
ENDMDL
