MODEL 1
REMARK VINA RESULT:    -8.519      0.000      0.000
REMARK INTER + INTRA:         -10.600
REMARK INTER:                  -9.713
REMARK INTRA:                  -0.887
REMARK CONF_INDEPENDENT:        1.193
REMARK UNBOUND:                -0.887
REMARK  4 active torsions:
REMARK  status: ('A' for Active; 'I' for Inactive)
REMARK    1  A    between atoms: C_7  and  N_8 
REMARK       I    between atoms: N_8  and  C_9 
REMARK    2  A    between atoms: C_11  and  C_9 
REMARK    3  A    between atoms: C_11  and  N_13 
REMARK       I    between atoms: N_13  and  C_14 
REMARK    4  A    between atoms: C_14  and  C_16 
ROOT
ATOM      1  C   UNL d   1      23.709 -17.465  -0.758  0.00  0.00     0.173 C 
ATOM      2  C   UNL d   1      24.513 -18.471   0.141  0.00  0.00     0.042 C 
ENDROOT
BRANCH   1   3
ATOM      3  N   UNL d   1      24.200 -16.091  -0.467  0.00  0.00    -0.344 N 
ATOM      4  C   UNL d   1      25.523 -15.663  -0.588  0.00  0.00     0.252 C 
ATOM      5  O   UNL d   1      26.143 -15.306   0.385  0.00  0.00    -0.268 OA
ATOM      6  H   UNL d   1      23.837 -15.750   0.416  0.00  0.00     0.163 HD
BRANCH   4   7
ATOM      7  C   UNL d   1      26.113 -15.489  -1.958  0.00  0.00     0.032 C 
ATOM      8  C   UNL d   1      25.323 -15.508  -3.115  0.00  0.00     0.018 C 
ATOM      9  C   UNL d   1      25.891 -15.283  -4.386  0.00  0.00     0.025 C 
ATOM     10  C   UNL d   1      27.259 -15.122  -4.520  0.00  0.00     0.034 C 
ATOM     11 CL   UNL d   1      27.953 -14.821  -6.066  0.00  0.00    -0.084 Cl
ATOM     12  C   UNL d   1      28.054 -15.246  -3.397  0.00  0.00     0.025 C 
ATOM     13  C   UNL d   1      27.487 -15.434  -2.130  0.00  0.00     0.018 C 
ENDBRANCH   4   7
ENDBRANCH   1   3
BRANCH   1  14
ATOM     14  C   UNL d   1      22.266 -17.673  -0.279  0.00  0.00     0.244 C 
ATOM     15  N   UNL d   1      21.937 -18.701   0.597  0.00  0.00    -0.325 N 
ATOM     16  H   UNL d   1      22.708 -19.262   0.945  0.00  0.00     0.169 HD
ATOM     17  O   UNL d   1      21.463 -16.929  -0.832  0.00  0.00    -0.271 OA
BRANCH  15  18
ATOM     18  C   UNL d   1      20.611 -19.284   0.810  0.00  0.00     0.040 A 
ATOM     19  C   UNL d   1      20.285 -19.686   2.133  0.00  0.00     0.030 A 
ATOM     20  C   UNL d   1      19.139 -20.468   2.417  0.00  0.00     0.002 A 
ATOM     21  C   UNL d   1      18.309 -20.910   1.396  0.00  0.00     0.001 A 
ATOM     22  C   UNL d   1      18.601 -20.541   0.098  0.00  0.00     0.009 A 
ATOM     23  C   UNL d   1      19.726 -19.742  -0.210  0.00  0.00    -0.035 A 
ATOM     24  C   UNL d   1      19.984 -19.695  -1.684  0.00  0.00     0.050 C 
ENDBRANCH  15  18
ENDBRANCH   1  14
TORSDOF 4
ENDMDL
MODEL 2
REMARK VINA RESULT:    -8.321      3.489      8.921
REMARK INTER + INTRA:         -10.448
REMARK INTER:                  -9.514
REMARK INTRA:                  -0.933
REMARK CONF_INDEPENDENT:        1.193
REMARK UNBOUND:                -0.933
REMARK  4 active torsions:
REMARK  status: ('A' for Active; 'I' for Inactive)
REMARK    1  A    between atoms: C_7  and  N_8 
REMARK       I    between atoms: N_8  and  C_9 
REMARK    2  A    between atoms: C_11  and  C_9 
REMARK    3  A    between atoms: C_11  and  N_13 
REMARK       I    between atoms: N_13  and  C_14 
REMARK    4  A    between atoms: C_14  and  C_16 
ROOT
ATOM      1  C   UNL d   1      25.512 -14.890  -2.416  0.00  0.00     0.173 C 
ATOM      2  C   UNL d   1      26.321 -13.733  -1.726  0.00  0.00     0.042 C 
ENDROOT
BRANCH   1   3
ATOM      3  N   UNL d   1      26.013 -16.186  -1.884  0.00  0.00    -0.344 N 
ATOM      4  C   UNL d   1      25.564 -16.809  -0.718  0.00  0.00     0.252 C 
ATOM      5  O   UNL d   1      26.309 -16.968   0.218  0.00  0.00    -0.268 OA
ATOM      6  H   UNL d   1      27.027 -16.218  -1.889  0.00  0.00     0.163 HD
BRANCH   4   7
ATOM      7  C   UNL d   1      24.198 -17.431  -0.702  0.00  0.00     0.032 C 
ATOM      8  C   UNL d   1      23.032 -16.669  -0.853  0.00  0.00     0.018 C 
ATOM      9  C   UNL d   1      21.763 -17.282  -0.895  0.00  0.00     0.025 C 
ATOM     10  C   UNL d   1      21.641 -18.647  -0.703  0.00  0.00     0.034 C 
ATOM     11 CL   UNL d   1      20.097 -19.403  -0.779  0.00  0.00    -0.084 Cl
ATOM     12  C   UNL d   1      22.776 -19.379  -0.412  0.00  0.00     0.025 C 
ATOM     13  C   UNL d   1      24.040 -18.775  -0.406  0.00  0.00     0.018 C 
ENDBRANCH   4   7
ENDBRANCH   1   3
BRANCH   1  14
ATOM     14  C   UNL d   1      25.865 -14.703  -3.899  0.00  0.00     0.244 C 
ATOM     15  N   UNL d   1      27.186 -14.698  -4.331  0.00  0.00    -0.325 N 
ATOM     16  H   UNL d   1      27.893 -14.885  -3.626  0.00  0.00     0.169 HD
ATOM     17  O   UNL d   1      24.889 -14.451  -4.597  0.00  0.00    -0.271 OA
BRANCH  15  18
ATOM     18  C   UNL d   1      27.701 -14.131  -5.578  0.00  0.00     0.040 A 
ATOM     19  C   UNL d   1      28.783 -14.810  -6.200  0.00  0.00     0.030 A 
ATOM     20  C   UNL d   1      29.511 -14.234  -7.270  0.00  0.00     0.002 A 
ATOM     21  C   UNL d   1      29.216 -12.957  -7.726  0.00  0.00     0.001 A 
ATOM     22  C   UNL d   1      28.174 -12.269  -7.139  0.00  0.00     0.009 A 
ATOM     23  C   UNL d   1      27.416 -12.829  -6.084  0.00  0.00    -0.035 A 
ATOM     24  C   UNL d   1      26.526 -11.811  -5.441  0.00  0.00     0.050 C 
ENDBRANCH  15  18
ENDBRANCH   1  14
TORSDOF 4
ENDMDL
MODEL 3
REMARK VINA RESULT:    -8.282      4.810      8.209
REMARK INTER + INTRA:         -10.426
REMARK INTER:                  -9.475
REMARK INTRA:                  -0.951
REMARK CONF_INDEPENDENT:        1.193
REMARK UNBOUND:                -0.951
REMARK  4 active torsions:
REMARK  status: ('A' for Active; 'I' for Inactive)
REMARK    1  A    between atoms: C_7  and  N_8 
REMARK       I    between atoms: N_8  and  C_9 
REMARK    2  A    between atoms: C_11  and  C_9 
REMARK    3  A    between atoms: C_11  and  N_13 
REMARK       I    between atoms: N_13  and  C_14 
REMARK    4  A    between atoms: C_14  and  C_16 
ROOT
ATOM      1  C   UNL d   1      27.338 -15.707   0.556  0.00  0.00     0.173 C 
ATOM      2  C   UNL d   1      28.804 -15.971   0.058  0.00  0.00     0.042 C 
ENDROOT
BRANCH   1   3
ATOM      3  N   UNL d   1      26.534 -15.233  -0.603  0.00  0.00    -0.344 N 
ATOM      4  C   UNL d   1      25.908 -16.055  -1.542  0.00  0.00     0.252 C 
ATOM      5  O   UNL d   1      26.249 -16.033  -2.700  0.00  0.00    -0.268 OA
ATOM      6  H   UNL d   1      27.010 -14.489  -1.102  0.00  0.00     0.163 HD
BRANCH   4   7
ATOM      7  C   UNL d   1      24.695 -16.839  -1.132  0.00  0.00     0.032 C 
ATOM      8  C   UNL d   1      23.402 -16.307  -1.220  0.00  0.00     0.018 C 
ATOM      9  C   UNL d   1      22.273 -17.084  -0.886  0.00  0.00     0.025 C 
ATOM     10  C   UNL d   1      22.431 -18.364  -0.384  0.00  0.00     0.034 C 
ATOM     11 CL   UNL d   1      21.055 -19.324  -0.000  0.00  0.00    -0.084 Cl
ATOM     12  C   UNL d   1      23.710 -18.836  -0.163  0.00  0.00     0.025 C 
ATOM     13  C   UNL d   1      24.830 -18.079  -0.528  0.00  0.00     0.018 C 
ENDBRANCH   4   7
ENDBRANCH   1   3
BRANCH   1  14
ATOM     14  C   UNL d   1      27.538 -14.603   1.605  0.00  0.00     0.244 C 
ATOM     15  N   UNL d   1      28.551 -14.685   2.554  0.00  0.00    -0.325 N 
ATOM     16  H   UNL d   1      29.182 -15.477   2.476  0.00  0.00     0.169 HD
ATOM     17  O   UNL d   1      26.662 -13.747   1.575  0.00  0.00    -0.271 OA
BRANCH  15  18
ATOM     18  C   UNL d   1      28.616 -13.975   3.833  0.00  0.00     0.040 A 
ATOM     19  C   UNL d   1      28.698 -14.767   5.009  0.00  0.00     0.030 A 
ATOM     20  C   UNL d   1      28.530 -14.209   6.301  0.00  0.00     0.002 A 
ATOM     21  C   UNL d   1      28.235 -12.862   6.461  0.00  0.00     0.001 A 
ATOM     22  C   UNL d   1      28.143 -12.066   5.337  0.00  0.00     0.009 A 
ATOM     23  C   UNL d   1      28.329 -12.594   4.038  0.00  0.00    -0.035 A 
ATOM     24  C   UNL d   1      27.925 -11.614   2.980  0.00  0.00     0.050 C 
ENDBRANCH  15  18
ENDBRANCH   1  14
TORSDOF 4
ENDMDL
MODEL 4
REMARK VINA RESULT:    -8.268      4.880      8.349
REMARK INTER + INTRA:         -10.546
REMARK INTER:                  -9.461
REMARK INTRA:                  -1.085
REMARK CONF_INDEPENDENT:        1.193
REMARK UNBOUND:                -1.085
REMARK  4 active torsions:
REMARK  status: ('A' for Active; 'I' for Inactive)
REMARK    1  A    between atoms: C_7  and  N_8 
REMARK       I    between atoms: N_8  and  C_9 
REMARK    2  A    between atoms: C_11  and  C_9 
REMARK    3  A    between atoms: C_11  and  N_13 
REMARK       I    between atoms: N_13  and  C_14 
REMARK    4  A    between atoms: C_14  and  C_16 
ROOT
ATOM      1  C   UNL d   1      27.151 -15.557   0.609  0.00  0.00     0.173 C 
ATOM      2  C   UNL d   1      28.614 -15.901   0.154  0.00  0.00     0.042 C 
ENDROOT
BRANCH   1   3
ATOM      3  N   UNL d   1      26.360 -15.209  -0.603  0.00  0.00    -0.344 N 
ATOM      4  C   UNL d   1      25.774 -16.126  -1.477  0.00  0.00     0.252 C 
ATOM      5  O   UNL d   1      26.139 -16.198  -2.625  0.00  0.00    -0.268 OA
ATOM      6  H   UNL d   1      26.828 -14.499  -1.157  0.00  0.00     0.163 HD
BRANCH   4   7
ATOM      7  C   UNL d   1      24.572 -16.903  -1.022  0.00  0.00     0.032 C 
ATOM      8  C   UNL d   1      23.305 -16.315  -0.913  0.00  0.00     0.018 C 
ATOM      9  C   UNL d   1      22.180 -17.079  -0.541  0.00  0.00     0.025 C 
ATOM     10  C   UNL d   1      22.324 -18.412  -0.196  0.00  0.00     0.034 C 
ATOM     11 CL   UNL d   1      20.949 -19.353   0.233  0.00  0.00    -0.084 Cl
ATOM     12  C   UNL d   1      23.594 -18.954  -0.165  0.00  0.00     0.025 C 
ATOM     13  C   UNL d   1      24.707 -18.206  -0.569  0.00  0.00     0.018 C 
ENDBRANCH   4   7
ENDBRANCH   1   3
BRANCH   1  14
ATOM     14  C   UNL d   1      27.365 -14.342   1.523  0.00  0.00     0.244 C 
ATOM     15  N   UNL d   1      27.968 -14.474   2.769  0.00  0.00    -0.325 N 
ATOM     16  H   UNL d   1      28.311 -15.399   3.009  0.00  0.00     0.169 HD
ATOM     17  O   UNL d   1      26.854 -13.317   1.088  0.00  0.00    -0.271 OA
BRANCH  15  18
ATOM     18  C   UNL d   1      27.868 -13.546   3.896  0.00  0.00     0.040 A 
ATOM     19  C   UNL d   1      27.781 -12.162   3.589  0.00  0.00     0.030 A 
ATOM     20  C   UNL d   1      27.916 -11.164   4.585  0.00  0.00     0.002 A 
ATOM     21  C   UNL d   1      28.183 -11.506   5.904  0.00  0.00     0.001 A 
ATOM     22  C   UNL d   1      28.280 -12.843   6.234  0.00  0.00     0.009 A 
ATOM     23  C   UNL d   1      28.126 -13.860   5.262  0.00  0.00    -0.035 A 
ATOM     24  C   UNL d   1      28.530 -15.200   5.796  0.00  0.00     0.050 C 
ENDBRANCH  15  18
ENDBRANCH   1  14
TORSDOF 4
ENDMDL
MODEL 5
REMARK VINA RESULT:    -8.111      3.762      9.293
REMARK INTER + INTRA:         -10.234
REMARK INTER:                  -9.304
REMARK INTRA:                  -0.930
REMARK CONF_INDEPENDENT:        1.193
REMARK UNBOUND:                -0.930
REMARK  4 active torsions:
REMARK  status: ('A' for Active; 'I' for Inactive)
REMARK    1  A    between atoms: C_7  and  N_8 
REMARK       I    between atoms: N_8  and  C_9 
REMARK    2  A    between atoms: C_11  and  C_9 
REMARK    3  A    between atoms: C_11  and  N_13 
REMARK       I    between atoms: N_13  and  C_14 
REMARK    4  A    between atoms: C_14  and  C_16 
ROOT
ATOM      1  C   UNL d   1      25.532 -15.145  -3.591  0.00  0.00     0.173 C 
ATOM      2  C   UNL d   1      25.172 -13.733  -3.006  0.00  0.00     0.042 C 
ENDROOT
BRANCH   1   3
ATOM      3  N   UNL d   1      26.221 -15.925  -2.527  0.00  0.00    -0.344 N 
ATOM      4  C   UNL d   1      25.789 -16.044  -1.205  0.00  0.00     0.252 C 
ATOM      5  O   UNL d   1      26.456 -15.603  -0.301  0.00  0.00    -0.268 OA
ATOM      6  H   UNL d   1      27.217 -15.735  -2.519  0.00  0.00     0.163 HD
BRANCH   4   7
ATOM      7  C   UNL d   1      24.575 -16.874  -0.906  0.00  0.00     0.032 C 
ATOM      8  C   UNL d   1      23.286 -16.324  -0.882  0.00  0.00     0.018 C 
ATOM      9  C   UNL d   1      22.155 -17.135  -0.657  0.00  0.00     0.025 C 
ATOM     10  C   UNL d   1      22.306 -18.481  -0.371  0.00  0.00     0.034 C 
ATOM     11 CL   UNL d   1      20.926 -19.478  -0.121  0.00  0.00    -0.084 Cl
ATOM     12  C   UNL d   1      23.584 -18.993  -0.252  0.00  0.00     0.025 C 
ATOM     13  C   UNL d   1      24.706 -18.196  -0.512  0.00  0.00     0.018 C 
ENDBRANCH   4   7
ENDBRANCH   1   3
BRANCH   1  14
ATOM     14  C   UNL d   1      26.478 -14.793  -4.748  0.00  0.00     0.244 C 
ATOM     15  N   UNL d   1      27.217 -13.615  -4.743  0.00  0.00    -0.325 N 
ATOM     16  H   UNL d   1      27.143 -13.038  -3.911  0.00  0.00     0.169 HD
ATOM     17  O   UNL d   1      26.410 -15.583  -5.683  0.00  0.00    -0.271 OA
BRANCH  15  18
ATOM     18  C   UNL d   1      27.810 -12.944  -5.902  0.00  0.00     0.040 A 
ATOM     19  C   UNL d   1      27.181 -11.753  -6.352  0.00  0.00     0.030 A 
ATOM     20  C   UNL d   1      27.516 -11.151  -7.590  0.00  0.00     0.002 A 
ATOM     21  C   UNL d   1      28.451 -11.734  -8.434  0.00  0.00     0.001 A 
ATOM     22  C   UNL d   1      29.077 -12.896  -8.028  0.00  0.00     0.009 A 
ATOM     23  C   UNL d   1      28.776 -13.505  -6.787  0.00  0.00    -0.035 A 
ATOM     24  C   UNL d   1      29.374 -14.874  -6.684  0.00  0.00     0.050 C 
ENDBRANCH  15  18
ENDBRANCH   1  14
TORSDOF 4
ENDMDL
MODEL 6
REMARK VINA RESULT:    -8.006      2.530      3.318
REMARK INTER + INTRA:         -10.724
REMARK INTER:                  -9.200
REMARK INTRA:                  -1.524
REMARK CONF_INDEPENDENT:        1.193
REMARK UNBOUND:                -1.524
REMARK  4 active torsions:
REMARK  status: ('A' for Active; 'I' for Inactive)
REMARK    1  A    between atoms: C_7  and  N_8 
REMARK       I    between atoms: N_8  and  C_9 
REMARK    2  A    between atoms: C_11  and  C_9 
REMARK    3  A    between atoms: C_11  and  N_13 
REMARK       I    between atoms: N_13  and  C_14 
REMARK    4  A    between atoms: C_14  and  C_16 
ROOT
ATOM      1  C   UNL d   1      23.307 -17.729  -0.277  0.00  0.00     0.173 C 
ATOM      2  C   UNL d   1      22.732 -16.287  -0.511  0.00  0.00     0.042 C 
ENDROOT
BRANCH   1   3
ATOM      3  N   UNL d   1      24.369 -17.973  -1.291  0.00  0.00    -0.344 N 
ATOM      4  C   UNL d   1      25.204 -16.998  -1.837  0.00  0.00     0.252 C 
ATOM      5  O   UNL d   1      25.155 -16.737  -3.015  0.00  0.00    -0.268 OA
ATOM      6  H   UNL d   1      24.028 -18.557  -2.048  0.00  0.00     0.163 HD
BRANCH   4   7
ATOM      7  C   UNL d   1      26.282 -16.397  -0.982  0.00  0.00     0.032 C 
ATOM      8  C   UNL d   1      27.534 -17.008  -0.825  0.00  0.00     0.018 C 
ATOM      9  C   UNL d   1      28.551 -16.395  -0.065  0.00  0.00     0.025 C 
ATOM     10  C   UNL d   1      28.301 -15.214   0.612  0.00  0.00     0.034 C 
ATOM     11 CL   UNL d   1      29.547 -14.450   1.520  0.00  0.00    -0.084 Cl
ATOM     12  C   UNL d   1      27.024 -14.687   0.575  0.00  0.00     0.025 C 
ATOM     13  C   UNL d   1      26.025 -15.276  -0.210  0.00  0.00     0.018 C 
ENDBRANCH   4   7
ENDBRANCH   1   3
BRANCH   1  14
ATOM     14  C   UNL d   1      22.078 -18.619  -0.508  0.00  0.00     0.244 C 
ATOM     15  N   UNL d   1      21.044 -18.677   0.421  0.00  0.00    -0.325 N 
ATOM     16  H   UNL d   1      21.121 -18.057   1.221  0.00  0.00     0.169 HD
ATOM     17  O   UNL d   1      22.175 -19.325  -1.505  0.00  0.00    -0.271 OA
BRANCH  15  18
ATOM     18  C   UNL d   1      20.050 -19.742   0.564  0.00  0.00     0.040 A 
ATOM     19  C   UNL d   1      19.172 -19.958  -0.531  0.00  0.00     0.030 A 
ATOM     20  C   UNL d   1      18.030 -20.790  -0.421  0.00  0.00     0.002 A 
ATOM     21  C   UNL d   1      17.704 -21.395   0.784  0.00  0.00     0.001 A 
ATOM     22  C   UNL d   1      18.534 -21.200   1.869  0.00  0.00     0.009 A 
ATOM     23  C   UNL d   1      19.692 -20.392   1.781  0.00  0.00    -0.035 A 
ATOM     24  C   UNL d   1      20.280 -20.118   3.131  0.00  0.00     0.050 C 
ENDBRANCH  15  18
ENDBRANCH   1  14
TORSDOF 4
ENDMDL
MODEL 7
REMARK VINA RESULT:    -7.943      3.685      9.212
REMARK INTER + INTRA:         -10.103
REMARK INTER:                  -9.137
REMARK INTRA:                  -0.967
REMARK CONF_INDEPENDENT:        1.193
REMARK UNBOUND:                -0.967
REMARK  4 active torsions:
REMARK  status: ('A' for Active; 'I' for Inactive)
REMARK    1  A    between atoms: C_7  and  N_8 
REMARK       I    between atoms: N_8  and  C_9 
REMARK    2  A    between atoms: C_11  and  C_9 
REMARK    3  A    between atoms: C_11  and  N_13 
REMARK       I    between atoms: N_13  and  C_14 
REMARK    4  A    between atoms: C_14  and  C_16 
ROOT
ATOM      1  C   UNL d   1      25.875 -15.478  -3.525  0.00  0.00     0.173 C 
ATOM      2  C   UNL d   1      25.670 -13.928  -3.376  0.00  0.00     0.042 C 
ENDROOT
BRANCH   1   3
ATOM      3  N   UNL d   1      26.410 -16.000  -2.238  0.00  0.00    -0.344 N 
ATOM      4  C   UNL d   1      25.754 -15.940  -1.007  0.00  0.00     0.252 C 
ATOM      5  O   UNL d   1      26.214 -15.293  -0.098  0.00  0.00    -0.268 OA
ATOM      6  H   UNL d   1      27.373 -15.715  -2.097  0.00  0.00     0.163 HD
BRANCH   4   7
ATOM      7  C   UNL d   1      24.563 -16.823  -0.770  0.00  0.00     0.032 C 
ATOM      8  C   UNL d   1      24.693 -18.198  -0.529  0.00  0.00     0.018 C 
ATOM      9  C   UNL d   1      23.564 -18.996  -0.250  0.00  0.00     0.025 C 
ATOM     10  C   UNL d   1      22.294 -18.448  -0.293  0.00  0.00     0.034 C 
ATOM     11 CL   UNL d   1      20.917 -19.413   0.072  0.00  0.00    -0.084 Cl
ATOM     12  C   UNL d   1      22.155 -17.127  -0.672  0.00  0.00     0.025 C 
ATOM     13  C   UNL d   1      23.278 -16.325  -0.913  0.00  0.00     0.018 C 
ENDBRANCH   4   7
ENDBRANCH   1   3
BRANCH   1  14
ATOM     14  C   UNL d   1      26.911 -15.568  -4.655  0.00  0.00     0.244 C 
ATOM     15  N   UNL d   1      28.267 -15.712  -4.381  0.00  0.00    -0.325 N 
ATOM     16  H   UNL d   1      28.522 -15.815  -3.404  0.00  0.00     0.169 HD
ATOM     17  O   UNL d   1      26.428 -15.385  -5.766  0.00  0.00    -0.271 OA
BRANCH  15  18
ATOM     18  C   UNL d   1      29.382 -15.396  -5.275  0.00  0.00     0.040 A 
ATOM     19  C   UNL d   1      29.350 -14.136  -5.929  0.00  0.00     0.030 A 
ATOM     20  C   UNL d   1      30.240 -13.818  -6.985  0.00  0.00     0.002 A 
ATOM     21  C   UNL d   1      31.155 -14.752  -7.450  0.00  0.00     0.001 A 
ATOM     22  C   UNL d   1      31.208 -15.989  -6.839  0.00  0.00     0.009 A 
ATOM     23  C   UNL d   1      30.346 -16.323  -5.768  0.00  0.00    -0.035 A 
ATOM     24  C   UNL d   1      30.405 -17.785  -5.447  0.00  0.00     0.050 C 
ENDBRANCH  15  18
ENDBRANCH   1  14
TORSDOF 4
ENDMDL
MODEL 8
REMARK VINA RESULT:    -7.504      3.492      9.212
REMARK INTER + INTRA:         -10.257
REMARK INTER:                  -8.697
REMARK INTRA:                  -1.559
REMARK CONF_INDEPENDENT:        1.193
REMARK UNBOUND:                -1.559
REMARK  4 active torsions:
REMARK  status: ('A' for Active; 'I' for Inactive)
REMARK    1  A    between atoms: C_7  and  N_8 
REMARK       I    between atoms: N_8  and  C_9 
REMARK    2  A    between atoms: C_11  and  C_9 
REMARK    3  A    between atoms: C_11  and  N_13 
REMARK       I    between atoms: N_13  and  C_14 
REMARK    4  A    between atoms: C_14  and  C_16 
ROOT
ATOM      1  C   UNL d   1      25.881 -15.690  -3.228  0.00  0.00     0.173 C 
ATOM      2  C   UNL d   1      25.100 -14.412  -2.757  0.00  0.00     0.042 C 
ENDROOT
BRANCH   1   3
ATOM      3  N   UNL d   1      26.255 -16.474  -2.019  0.00  0.00    -0.344 N 
ATOM      4  C   UNL d   1      25.535 -16.510  -0.824  0.00  0.00     0.252 C 
ATOM      5  O   UNL d   1      26.019 -16.082   0.196  0.00  0.00    -0.268 OA
ATOM      6  H   UNL d   1      27.237 -16.356  -1.794  0.00  0.00     0.163 HD
BRANCH   4   7
ATOM      7  C   UNL d   1      24.223 -17.239  -0.783  0.00  0.00     0.032 C 
ATOM      8  C   UNL d   1      22.997 -16.568  -0.876  0.00  0.00     0.018 C 
ATOM      9  C   UNL d   1      21.780 -17.279  -0.895  0.00  0.00     0.025 C 
ATOM     10  C   UNL d   1      21.772 -18.654  -0.737  0.00  0.00     0.034 C 
ATOM     11 CL   UNL d   1      20.290 -19.527  -0.786  0.00  0.00    -0.084 Cl
ATOM     12  C   UNL d   1      22.970 -19.300  -0.502  0.00  0.00     0.025 C 
ATOM     13  C   UNL d   1      24.182 -18.598  -0.520  0.00  0.00     0.018 C 
ENDBRANCH   4   7
ENDBRANCH   1   3
BRANCH   1  14
ATOM     14  C   UNL d   1      27.110 -15.090  -3.926  0.00  0.00     0.244 C 
ATOM     15  N   UNL d   1      27.103 -14.817  -5.289  0.00  0.00    -0.325 N 
ATOM     16  H   UNL d   1      26.228 -14.977  -5.778  0.00  0.00     0.169 HD
ATOM     17  O   UNL d   1      28.085 -15.001  -3.190  0.00  0.00    -0.271 OA
BRANCH  15  18
ATOM     18  C   UNL d   1      28.270 -14.656  -6.159  0.00  0.00     0.040 A 
ATOM     19  C   UNL d   1      29.292 -15.636  -6.057  0.00  0.00     0.030 A 
ATOM     20  C   UNL d   1      30.559 -15.462  -6.668  0.00  0.00     0.002 A 
ATOM     21  C   UNL d   1      30.862 -14.297  -7.358  0.00  0.00     0.001 A 
ATOM     22  C   UNL d   1      29.891 -13.322  -7.471  0.00  0.00     0.009 A 
ATOM     23  C   UNL d   1      28.611 -13.480  -6.890  0.00  0.00    -0.035 A 
ATOM     24  C   UNL d   1      27.831 -12.203  -6.915  0.00  0.00     0.050 C 
ENDBRANCH  15  18
ENDBRANCH   1  14
TORSDOF 4
ENDMDL
MODEL 9
REMARK VINA RESULT:    -7.169      5.410      8.571
REMARK INTER + INTRA:         -10.064
REMARK INTER:                  -8.363
REMARK INTRA:                  -1.702
REMARK CONF_INDEPENDENT:        1.193
REMARK UNBOUND:                -1.702
REMARK  4 active torsions:
REMARK  status: ('A' for Active; 'I' for Inactive)
REMARK    1  A    between atoms: C_7  and  N_8 
REMARK       I    between atoms: N_8  and  C_9 
REMARK    2  A    between atoms: C_11  and  C_9 
REMARK    3  A    between atoms: C_11  and  N_13 
REMARK       I    between atoms: N_13  and  C_14 
REMARK    4  A    between atoms: C_14  and  C_16 
ROOT
ATOM      1  C   UNL d   1      26.678 -12.979  -5.324  0.00  0.00     0.173 C 
ATOM      2  C   UNL d   1      27.815 -12.047  -4.771  0.00  0.00     0.042 C 
ENDROOT
BRANCH   1   3
ATOM      3  N   UNL d   1      25.490 -12.834  -4.439  0.00  0.00    -0.344 N 
ATOM      4  C   UNL d   1      24.758 -13.887  -3.890  0.00  0.00     0.252 C 
ATOM      5  O   UNL d   1      23.602 -14.055  -4.196  0.00  0.00    -0.268 OA
ATOM      6  H   UNL d   1      24.836 -12.153  -4.811  0.00  0.00     0.163 HD
BRANCH   4   7
ATOM      7  C   UNL d   1      25.368 -14.705  -2.789  0.00  0.00     0.032 C 
ATOM      8  C   UNL d   1      26.270 -14.157  -1.867  0.00  0.00     0.018 C 
ATOM      9  C   UNL d   1      26.783 -14.930  -0.806  0.00  0.00     0.025 C 
ATOM     10  C   UNL d   1      26.469 -16.274  -0.705  0.00  0.00     0.034 C 
ATOM     11 CL   UNL d   1      27.073 -17.213   0.603  0.00  0.00    -0.084 Cl
ATOM     12  C   UNL d   1      25.695 -16.849  -1.695  0.00  0.00     0.025 C 
ATOM     13  C   UNL d   1      25.155 -16.073  -2.728  0.00  0.00     0.018 C 
ENDBRANCH   4   7
ENDBRANCH   1   3
BRANCH   1  14
ATOM     14  C   UNL d   1      27.310 -14.374  -5.211  0.00  0.00     0.244 C 
ATOM     15  N   UNL d   1      28.565 -14.555  -4.640  0.00  0.00    -0.325 N 
ATOM     16  H   UNL d   1      29.007 -13.728  -4.250  0.00  0.00     0.169 HD
ATOM     17  O   UNL d   1      26.653 -15.246  -5.770  0.00  0.00    -0.271 OA
BRANCH  15  18
ATOM     18  C   UNL d   1      29.461 -15.696  -4.831  0.00  0.00     0.040 A 
ATOM     19  C   UNL d   1      29.833 -16.011  -6.165  0.00  0.00     0.030 A 
ATOM     20  C   UNL d   1      30.496 -17.220  -6.491  0.00  0.00     0.002 A 
ATOM     21  C   UNL d   1      30.772 -18.167  -5.514  0.00  0.00     0.001 A 
ATOM     22  C   UNL d   1      30.418 -17.893  -4.209  0.00  0.00     0.009 A 
ATOM     23  C   UNL d   1      29.775 -16.684  -3.853  0.00  0.00    -0.035 A 
ATOM     24  C   UNL d   1      29.260 -16.725  -2.447  0.00  0.00     0.050 C 
ENDBRANCH  15  18
ENDBRANCH   1  14
TORSDOF 4
ENDMDL
