MODEL 1
REMARK VINA RESULT:    -8.892      0.000      0.000
REMARK INTER + INTRA:         -12.470
REMARK INTER:                 -10.682
REMARK INTRA:                  -1.789
REMARK CONF_INDEPENDENT:        1.790
REMARK UNBOUND:                -1.789
REMARK  6 active torsions:
REMARK  status: ('A' for Active; 'I' for Inactive)
REMARK    1  A    between atoms: C_2  and  C_13 
REMARK    2  A    between atoms: C_2  and  N_3 
REMARK       I    between atoms: N_3  and  C_4 
REMARK    3  A    between atoms: C_4  and  C_6 
REMARK       I    between atoms: C_13  and  N_15 
REMARK    4  A    between atoms: N_15  and  N_16 
REMARK       I    between atoms: N_16  and  C_17 
REMARK    5  A    between atoms: C_17  and  C_19 
REMARK    6  A    between atoms: C_19  and  C_20 
ROOT
ATOM      1  C   UNL d   1      26.440 -15.800  -0.708  0.00  0.00     0.258 C 
ATOM      2  O   UNL d   1      25.996 -14.851  -1.360  0.00  0.00    -0.269 OA
ATOM      3  N   UNL d   1      25.621 -16.857  -0.317  0.00  0.00    -0.266 N 
ATOM      4  H   UNL d   1      25.933 -17.664   0.223  0.00  0.00     0.190 HD
ENDROOT
BRANCH   1   5
ATOM      5  C   UNL d   1      27.941 -15.880  -0.264  0.00  0.00     0.174 C 
ATOM      6  C   UNL d   1      28.450 -17.317  -0.330  0.00  0.00     0.042 C 
BRANCH   5   7
ATOM      7  N   UNL d   1      28.152 -15.366   1.113  0.00  0.00    -0.344 N 
ATOM      8  C   UNL d   1      27.572 -14.199   1.575  0.00  0.00     0.252 C 
ATOM      9  O   UNL d   1      26.870 -13.473   0.875  0.00  0.00    -0.268 OA
ATOM     10  H   UNL d   1      28.594 -15.995   1.775  0.00  0.00     0.163 HD
BRANCH   8  11
ATOM     11  C   UNL d   1      27.801 -13.824   3.006  0.00  0.00     0.032 A 
ATOM     12  C   UNL d   1      27.595 -12.519   3.472  0.00  0.00     0.018 A 
ATOM     13  C   UNL d   1      27.782 -12.218   4.832  0.00  0.00     0.025 A 
ATOM     14  C   UNL d   1      28.176 -13.216   5.724  0.00  0.00     0.034 A 
ATOM     15 CL   UNL d   1      28.436 -12.832   7.383  0.00  0.00    -0.084 Cl
ATOM     16  C   UNL d   1      28.357 -14.523   5.277  0.00  0.00     0.025 A 
ATOM     17  C   UNL d   1      28.161 -14.827   3.922  0.00  0.00     0.018 A 
ENDBRANCH   8  11
ENDBRANCH   5   7
ENDBRANCH   1   5
BRANCH   3  18
ATOM     18  N   UNL d   1      24.237 -16.857  -0.675  0.00  0.00    -0.267 N 
ATOM     19  C   UNL d   1      23.492 -18.001  -0.438  0.00  0.00     0.236 C 
ATOM     20  O   UNL d   1      24.002 -18.985   0.098  0.00  0.00    -0.272 OA
ATOM     21  H   UNL d   1      23.868 -16.001  -1.084  0.00  0.00     0.190 HD
BRANCH  19  22
ATOM     22  C   UNL d   1      22.017 -17.950  -0.875  0.00  0.00     0.109 C 
BRANCH  22  23
ATOM     23  C   UNL d   1      21.166 -19.089  -0.254  0.00  0.00    -0.006 C 
ATOM     24  C   UNL d   1      21.030 -18.950   1.278  0.00  0.00     0.005 C 
ATOM     25  C   UNL d   1      20.125 -20.034   1.878  0.00  0.00     0.000 C 
ATOM     26  C   UNL d   1      18.753 -20.057   1.212  0.00  0.00     0.000 C 
ATOM     27  C   UNL d   1      18.890 -20.226  -0.295  0.00  0.00     0.000 C 
ATOM     28  C   UNL d   1      19.765 -19.132  -0.894  0.00  0.00     0.005 C 
ENDBRANCH  22  23
ENDBRANCH  19  22
ENDBRANCH   3  18
TORSDOF 6
ENDMDL
MODEL 2
REMARK VINA RESULT:    -8.187      4.408      6.282
REMARK INTER + INTRA:         -11.852
REMARK INTER:                  -9.976
REMARK INTRA:                  -1.876
REMARK CONF_INDEPENDENT:        1.790
REMARK UNBOUND:                -1.876
REMARK  6 active torsions:
REMARK  status: ('A' for Active; 'I' for Inactive)
REMARK    1  A    between atoms: C_2  and  C_13 
REMARK    2  A    between atoms: C_2  and  N_3 
REMARK       I    between atoms: N_3  and  C_4 
REMARK    3  A    between atoms: C_4  and  C_6 
REMARK       I    between atoms: C_13  and  N_15 
REMARK    4  A    between atoms: N_15  and  N_16 
REMARK       I    between atoms: N_16  and  C_17 
REMARK    5  A    between atoms: C_17  and  C_19 
REMARK    6  A    between atoms: C_19  and  C_20 
ROOT
ATOM      1  C   UNL d   1      25.529 -16.347  -1.181  0.00  0.00     0.258 C 
ATOM      2  O   UNL d   1      25.151 -15.349  -0.562  0.00  0.00    -0.269 OA
ATOM      3  N   UNL d   1      24.652 -17.384  -1.489  0.00  0.00    -0.266 N 
ATOM      4  H   UNL d   1      24.909 -18.232  -1.994  0.00  0.00     0.190 HD
ENDROOT
BRANCH   1   5
ATOM      5  C   UNL d   1      27.014 -16.527  -1.650  0.00  0.00     0.174 C 
ATOM      6  C   UNL d   1      27.977 -16.349  -0.480  0.00  0.00     0.042 C 
BRANCH   5   7
ATOM      7  N   UNL d   1      27.389 -15.570  -2.722  0.00  0.00    -0.344 N 
ATOM      8  C   UNL d   1      26.591 -15.329  -3.824  0.00  0.00     0.252 C 
ATOM      9  O   UNL d   1      25.528 -15.912  -4.027  0.00  0.00    -0.268 OA
ATOM     10  H   UNL d   1      28.174 -14.956  -2.535  0.00  0.00     0.163 HD
BRANCH   8  11
ATOM     11  C   UNL d   1      27.043 -14.288  -4.800  0.00  0.00     0.032 A 
ATOM     12  C   UNL d   1      28.011 -14.557  -5.776  0.00  0.00     0.018 A 
ATOM     13  C   UNL d   1      28.377 -13.563  -6.699  0.00  0.00     0.025 A 
ATOM     14  C   UNL d   1      27.781 -12.302  -6.647  0.00  0.00     0.034 A 
ATOM     15 CL   UNL d   1      28.260 -11.078  -7.760  0.00  0.00    -0.084 Cl
ATOM     16  C   UNL d   1      26.799 -12.032  -5.698  0.00  0.00     0.025 A 
ATOM     17  C   UNL d   1      26.424 -13.026  -4.783  0.00  0.00     0.018 A 
ENDBRANCH   8  11
ENDBRANCH   5   7
ENDBRANCH   1   5
BRANCH   3  18
ATOM     18  N   UNL d   1      23.282 -17.301  -1.089  0.00  0.00    -0.267 N 
ATOM     19  C   UNL d   1      22.459 -18.393  -1.317  0.00  0.00     0.236 C 
ATOM     20  O   UNL d   1      22.905 -19.423  -1.823  0.00  0.00    -0.272 OA
ATOM     21  H   UNL d   1      22.983 -16.434  -0.647  0.00  0.00     0.190 HD
BRANCH  19  22
ATOM     22  C   UNL d   1      20.988 -18.230  -0.895  0.00  0.00     0.109 C 
BRANCH  22  23
ATOM     23  C   UNL d   1      20.446 -19.459  -0.117  0.00  0.00    -0.006 C 
ATOM     24  C   UNL d   1      20.525 -19.266   1.413  0.00  0.00     0.005 C 
ATOM     25  C   UNL d   1      19.919 -20.450   2.177  0.00  0.00     0.000 C 
ATOM     26  C   UNL d   1      18.484 -20.729   1.739  0.00  0.00     0.000 C 
ATOM     27  C   UNL d   1      18.415 -20.950   0.235  0.00  0.00     0.000 C 
ATOM     28  C   UNL d   1      18.991 -19.760  -0.524  0.00  0.00     0.005 C 
ENDBRANCH  22  23
ENDBRANCH  19  22
ENDBRANCH   3  18
TORSDOF 6
ENDMDL
MODEL 3
REMARK VINA RESULT:    -8.131      3.808      9.392
REMARK INTER + INTRA:         -11.770
REMARK INTER:                  -9.921
REMARK INTRA:                  -1.849
REMARK CONF_INDEPENDENT:        1.790
REMARK UNBOUND:                -1.849
REMARK  6 active torsions:
REMARK  status: ('A' for Active; 'I' for Inactive)
REMARK    1  A    between atoms: C_2  and  C_13 
REMARK    2  A    between atoms: C_2  and  N_3 
REMARK       I    between atoms: N_3  and  C_4 
REMARK    3  A    between atoms: C_4  and  C_6 
REMARK       I    between atoms: C_13  and  N_15 
REMARK    4  A    between atoms: N_15  and  N_16 
REMARK       I    between atoms: N_16  and  C_17 
REMARK    5  A    between atoms: C_17  and  C_19 
REMARK    6  A    between atoms: C_19  and  C_20 
ROOT
ATOM      1  C   UNL d   1      27.671 -14.127   2.057  0.00  0.00     0.258 C 
ATOM      2  O   UNL d   1      27.009 -13.086   2.020  0.00  0.00    -0.269 OA
ATOM      3  N   UNL d   1      28.404 -14.479   3.188  0.00  0.00    -0.266 N 
ATOM      4  H   UNL d   1      28.971 -15.323   3.273  0.00  0.00     0.190 HD
ENDROOT
BRANCH   1   5
ATOM      5  C   UNL d   1      27.748 -15.113   0.841  0.00  0.00     0.174 C 
ATOM      6  C   UNL d   1      28.342 -14.419  -0.382  0.00  0.00     0.042 C 
BRANCH   5   7
ATOM      7  N   UNL d   1      26.419 -15.663   0.473  0.00  0.00    -0.344 N 
ATOM      8  C   UNL d   1      26.235 -16.973   0.073  0.00  0.00     0.252 C 
ATOM      9  O   UNL d   1      27.158 -17.777  -0.048  0.00  0.00    -0.268 OA
ATOM     10  H   UNL d   1      25.609 -15.096   0.697  0.00  0.00     0.163 HD
BRANCH   8  11
ATOM     11  C   UNL d   1      24.836 -17.430  -0.201  0.00  0.00     0.032 A 
ATOM     12  C   UNL d   1      23.827 -16.539  -0.589  0.00  0.00     0.018 A 
ATOM     13  C   UNL d   1      22.538 -17.017  -0.877  0.00  0.00     0.025 A 
ATOM     14  C   UNL d   1      22.254 -18.379  -0.777  0.00  0.00     0.034 A 
ATOM     15 CL   UNL d   1      20.662 -18.952  -1.098  0.00  0.00    -0.084 Cl
ATOM     16  C   UNL d   1      23.256 -19.278  -0.419  0.00  0.00     0.025 A 
ATOM     17  C   UNL d   1      24.547 -18.804  -0.141  0.00  0.00     0.018 A 
ENDBRANCH   8  11
ENDBRANCH   5   7
ENDBRANCH   1   5
BRANCH   3  18
ATOM     18  N   UNL d   1      28.395 -13.630   4.337  0.00  0.00    -0.267 N 
ATOM     19  C   UNL d   1      29.069 -14.047   5.474  0.00  0.00     0.236 C 
ATOM     20  O   UNL d   1      29.690 -15.110   5.484  0.00  0.00    -0.272 OA
ATOM     21  H   UNL d   1      27.891 -12.749   4.254  0.00  0.00     0.190 HD
BRANCH  19  22
ATOM     22  C   UNL d   1      28.994 -13.104   6.689  0.00  0.00     0.109 C 
BRANCH  22  23
ATOM     23  C   UNL d   1      28.907 -13.868   8.037  0.00  0.00    -0.006 C 
ATOM     24  C   UNL d   1      30.298 -14.273   8.572  0.00  0.00     0.005 C 
ATOM     25  C   UNL d   1      30.212 -14.959   9.942  0.00  0.00     0.000 C 
ATOM     26  C   UNL d   1      29.470 -14.099  10.959  0.00  0.00     0.000 C 
ATOM     27  C   UNL d   1      28.087 -13.728  10.441  0.00  0.00     0.000 C 
ATOM     28  C   UNL d   1      28.174 -13.020   9.095  0.00  0.00     0.005 C 
ENDBRANCH  22  23
ENDBRANCH  19  22
ENDBRANCH   3  18
TORSDOF 6
ENDMDL
MODEL 4
REMARK VINA RESULT:    -8.124      3.359      8.979
REMARK INTER + INTRA:         -11.779
REMARK INTER:                  -9.914
REMARK INTRA:                  -1.865
REMARK CONF_INDEPENDENT:        1.790
REMARK UNBOUND:                -1.865
REMARK  6 active torsions:
REMARK  status: ('A' for Active; 'I' for Inactive)
REMARK    1  A    between atoms: C_2  and  C_13 
REMARK    2  A    between atoms: C_2  and  N_3 
REMARK       I    between atoms: N_3  and  C_4 
REMARK    3  A    between atoms: C_4  and  C_6 
REMARK       I    between atoms: C_13  and  N_15 
REMARK    4  A    between atoms: N_15  and  N_16 
REMARK       I    between atoms: N_16  and  C_17 
REMARK    5  A    between atoms: C_17  and  C_19 
REMARK    6  A    between atoms: C_19  and  C_20 
ROOT
ATOM      1  C   UNL d   1      28.174 -14.972   0.627  0.00  0.00     0.258 C 
ATOM      2  O   UNL d   1      29.192 -15.663   0.536  0.00  0.00    -0.269 OA
ATOM      3  N   UNL d   1      27.733 -14.491   1.858  0.00  0.00    -0.266 N 
ATOM      4  H   UNL d   1      26.899 -13.920   1.993  0.00  0.00     0.190 HD
ENDROOT
BRANCH   1   5
ATOM      5  C   UNL d   1      27.302 -14.599  -0.620  0.00  0.00     0.174 C 
ATOM      6  C   UNL d   1      27.024 -13.099  -0.659  0.00  0.00     0.042 C 
BRANCH   5   7
ATOM      7  N   UNL d   1      26.005 -15.320  -0.641  0.00  0.00    -0.344 N 
ATOM      8  C   UNL d   1      25.914 -16.700  -0.637  0.00  0.00     0.252 C 
ATOM      9  O   UNL d   1      26.896 -17.440  -0.655  0.00  0.00    -0.268 OA
ATOM     10  H   UNL d   1      25.170 -14.769  -0.475  0.00  0.00     0.163 HD
BRANCH   8  11
ATOM     11  C   UNL d   1      24.549 -17.311  -0.585  0.00  0.00     0.032 A 
ATOM     12  C   UNL d   1      23.398 -16.583  -0.915  0.00  0.00     0.018 A 
ATOM     13  C   UNL d   1      22.139 -17.207  -0.893  0.00  0.00     0.025 A 
ATOM     14  C   UNL d   1      22.028 -18.552  -0.540  0.00  0.00     0.034 A 
ATOM     15 CL   UNL d   1      20.478 -19.300  -0.482  0.00  0.00    -0.084 Cl
ATOM     16  C   UNL d   1      23.168 -19.293  -0.236  0.00  0.00     0.025 A 
ATOM     17  C   UNL d   1      24.426 -18.674  -0.268  0.00  0.00     0.018 A 
ENDBRANCH   8  11
ENDBRANCH   5   7
ENDBRANCH   1   5
BRANCH   3  18
ATOM     18  N   UNL d   1      28.466 -14.794   3.046  0.00  0.00    -0.267 N 
ATOM     19  C   UNL d   1      27.941 -14.400   4.267  0.00  0.00     0.236 C 
ATOM     20  O   UNL d   1      26.851 -13.830   4.330  0.00  0.00    -0.272 OA
ATOM     21  H   UNL d   1      29.345 -15.295   2.930  0.00  0.00     0.190 HD
BRANCH  19  22
ATOM     22  C   UNL d   1      28.795 -14.724   5.506  0.00  0.00     0.109 C 
BRANCH  22  23
ATOM     23  C   UNL d   1      28.530 -13.754   6.689  0.00  0.00    -0.006 C 
ATOM     24  C   UNL d   1      29.407 -14.077   7.919  0.00  0.00     0.005 C 
ATOM     25  C   UNL d   1      29.197 -13.070   9.057  0.00  0.00     0.000 C 
ATOM     26  C   UNL d   1      29.424 -11.635   8.591  0.00  0.00     0.000 C 
ATOM     27  C   UNL d   1      28.534 -11.311   7.399  0.00  0.00     0.000 C 
ATOM     28  C   UNL d   1      28.765 -12.294   6.257  0.00  0.00     0.005 C 
ENDBRANCH  22  23
ENDBRANCH  19  22
ENDBRANCH   3  18
TORSDOF 6
ENDMDL
MODEL 5
REMARK VINA RESULT:    -8.113      3.334      8.882
REMARK INTER + INTRA:         -11.720
REMARK INTER:                  -9.902
REMARK INTRA:                  -1.818
REMARK CONF_INDEPENDENT:        1.790
REMARK UNBOUND:                -1.818
REMARK  6 active torsions:
REMARK  status: ('A' for Active; 'I' for Inactive)
REMARK    1  A    between atoms: C_2  and  C_13 
REMARK    2  A    between atoms: C_2  and  N_3 
REMARK       I    between atoms: N_3  and  C_4 
REMARK    3  A    between atoms: C_4  and  C_6 
REMARK       I    between atoms: C_13  and  N_15 
REMARK    4  A    between atoms: N_15  and  N_16 
REMARK       I    between atoms: N_16  and  C_17 
REMARK    5  A    between atoms: C_17  and  C_19 
REMARK    6  A    between atoms: C_19  and  C_20 
ROOT
ATOM      1  C   UNL d   1      26.050 -17.302  -0.479  0.00  0.00     0.258 C 
ATOM      2  O   UNL d   1      26.202 -18.227   0.324  0.00  0.00    -0.269 OA
ATOM      3  N   UNL d   1      26.844 -16.159  -0.425  0.00  0.00    -0.266 N 
ATOM      4  H   UNL d   1      26.760 -15.364  -1.059  0.00  0.00     0.190 HD
ENDROOT
BRANCH   1   5
ATOM      5  C   UNL d   1      24.953 -17.338  -1.597  0.00  0.00     0.174 C 
ATOM      6  C   UNL d   1      24.487 -15.927  -1.946  0.00  0.00     0.042 C 
BRANCH   5   7
ATOM      7  N   UNL d   1      23.769 -18.143  -1.204  0.00  0.00    -0.344 N 
ATOM      8  C   UNL d   1      22.741 -17.636  -0.432  0.00  0.00     0.252 C 
ATOM      9  O   UNL d   1      22.740 -16.494   0.023  0.00  0.00    -0.268 OA
ATOM     10  H   UNL d   1      23.645 -19.034  -1.671  0.00  0.00     0.163 HD
BRANCH   8  11
ATOM     11  C   UNL d   1      21.566 -18.523  -0.163  0.00  0.00     0.032 A 
ATOM     12  C   UNL d   1      20.746 -19.002  -1.193  0.00  0.00     0.018 A 
ATOM     13  C   UNL d   1      19.678 -19.866  -0.900  0.00  0.00     0.025 A 
ATOM     14  C   UNL d   1      19.426 -20.251   0.417  0.00  0.00     0.034 A 
ATOM     15 CL   UNL d   1      18.094 -21.283   0.772  0.00  0.00    -0.084 Cl
ATOM     16  C   UNL d   1      20.250 -19.803   1.446  0.00  0.00     0.025 A 
ATOM     17  C   UNL d   1      21.324 -18.949   1.155  0.00  0.00     0.018 A 
ENDBRANCH   8  11
ENDBRANCH   5   7
ENDBRANCH   1   5
BRANCH   3  18
ATOM     18  N   UNL d   1      27.861 -16.043   0.571  0.00  0.00    -0.267 N 
ATOM     19  C   UNL d   1      28.615 -14.880   0.615  0.00  0.00     0.236 C 
ATOM     20  O   UNL d   1      28.393 -13.955  -0.166  0.00  0.00    -0.272 OA
ATOM     21  H   UNL d   1      27.974 -16.830   1.207  0.00  0.00     0.190 HD
BRANCH  19  22
ATOM     22  C   UNL d   1      29.718 -14.830   1.688  0.00  0.00     0.109 C 
BRANCH  22  23
ATOM     23  C   UNL d   1      29.255 -14.129   2.993  0.00  0.00    -0.006 C 
ATOM     24  C   UNL d   1      27.753 -14.354   3.278  0.00  0.00     0.005 C 
ATOM     25  C   UNL d   1      27.318 -13.723   4.607  0.00  0.00     0.000 C 
ATOM     26  C   UNL d   1      28.170 -14.216   5.772  0.00  0.00     0.000 C 
ATOM     27  C   UNL d   1      29.647 -13.964   5.501  0.00  0.00     0.000 C 
ATOM     28  C   UNL d   1      30.086 -14.615   4.195  0.00  0.00     0.005 C 
ENDBRANCH  22  23
ENDBRANCH  19  22
ENDBRANCH   3  18
TORSDOF 6
ENDMDL
MODEL 6
REMARK VINA RESULT:    -7.357      3.221      8.283
REMARK INTER + INTRA:         -11.751
REMARK INTER:                  -9.147
REMARK INTRA:                  -2.604
REMARK CONF_INDEPENDENT:        1.790
REMARK UNBOUND:                -2.604
REMARK  6 active torsions:
REMARK  status: ('A' for Active; 'I' for Inactive)
REMARK    1  A    between atoms: C_2  and  C_13 
REMARK    2  A    between atoms: C_2  and  N_3 
REMARK       I    between atoms: N_3  and  C_4 
REMARK    3  A    between atoms: C_4  and  C_6 
REMARK       I    between atoms: C_13  and  N_15 
REMARK    4  A    between atoms: N_15  and  N_16 
REMARK       I    between atoms: N_16  and  C_17 
REMARK    5  A    between atoms: C_17  and  C_19 
REMARK    6  A    between atoms: C_19  and  C_20 
ROOT
ATOM      1  C   UNL d   1      28.516 -15.692   0.024  0.00  0.00     0.258 C 
ATOM      2  O   UNL d   1      29.584 -15.920   0.598  0.00  0.00    -0.269 OA
ATOM      3  N   UNL d   1      27.656 -14.689   0.466  0.00  0.00    -0.266 N 
ATOM      4  H   UNL d   1      26.761 -14.460   0.034  0.00  0.00     0.190 HD
ENDROOT
BRANCH   1   5
ATOM      5  C   UNL d   1      28.044 -16.515  -1.223  0.00  0.00     0.174 C 
ATOM      6  C   UNL d   1      27.971 -15.628  -2.462  0.00  0.00     0.042 C 
BRANCH   5   7
ATOM      7  N   UNL d   1      26.717 -17.148  -1.015  0.00  0.00    -0.344 N 
ATOM      8  C   UNL d   1      25.551 -16.417  -0.887  0.00  0.00     0.252 C 
ATOM      9  O   UNL d   1      25.521 -15.188  -0.894  0.00  0.00    -0.268 OA
ATOM     10  H   UNL d   1      26.660 -18.151  -1.151  0.00  0.00     0.163 HD
BRANCH   8  11
ATOM     11  C   UNL d   1      24.264 -17.172  -0.755  0.00  0.00     0.032 A 
ATOM     12  C   UNL d   1      23.020 -16.546  -0.905  0.00  0.00     0.018 A 
ATOM     13  C   UNL d   1      21.837 -17.300  -0.813  0.00  0.00     0.025 A 
ATOM     14  C   UNL d   1      21.896 -18.673  -0.571  0.00  0.00     0.034 A 
ATOM     15 CL   UNL d   1      20.441 -19.583  -0.427  0.00  0.00    -0.084 Cl
ATOM     16  C   UNL d   1      23.128 -19.309  -0.448  0.00  0.00     0.025 A 
ATOM     17  C   UNL d   1      24.310 -18.561  -0.549  0.00  0.00     0.018 A 
ENDBRANCH   8  11
ENDBRANCH   5   7
ENDBRANCH   1   5
BRANCH   3  18
ATOM     18  N   UNL d   1      28.008 -13.898   1.603  0.00  0.00    -0.267 N 
ATOM     19  C   UNL d   1      27.063 -13.027   2.122  0.00  0.00     0.236 C 
ATOM     20  O   UNL d   1      25.934 -12.959   1.634  0.00  0.00    -0.272 OA
ATOM     21  H   UNL d   1      28.946 -14.025   1.980  0.00  0.00     0.190 HD
BRANCH  19  22
ATOM     22  C   UNL d   1      27.514 -12.179   3.325  0.00  0.00     0.109 C 
BRANCH  22  23
ATOM     23  C   UNL d   1      27.631 -13.006   4.633  0.00  0.00    -0.006 C 
ATOM     24  C   UNL d   1      28.628 -14.177   4.499  0.00  0.00     0.005 C 
ATOM     25  C   UNL d   1      28.798 -14.944   5.816  0.00  0.00     0.000 C 
ATOM     26  C   UNL d   1      29.199 -14.019   6.961  0.00  0.00     0.000 C 
ATOM     27  C   UNL d   1      28.196 -12.884   7.110  0.00  0.00     0.000 C 
ATOM     28  C   UNL d   1      28.049 -12.104   5.809  0.00  0.00     0.005 C 
ENDBRANCH  22  23
ENDBRANCH  19  22
ENDBRANCH   3  18
TORSDOF 6
ENDMDL
MODEL 7
REMARK VINA RESULT:    -7.271      4.784      8.983
REMARK INTER + INTRA:         -11.638
REMARK INTER:                  -9.061
REMARK INTRA:                  -2.577
REMARK CONF_INDEPENDENT:        1.790
REMARK UNBOUND:                -2.577
REMARK  6 active torsions:
REMARK  status: ('A' for Active; 'I' for Inactive)
REMARK    1  A    between atoms: C_2  and  C_13 
REMARK    2  A    between atoms: C_2  and  N_3 
REMARK       I    between atoms: N_3  and  C_4 
REMARK    3  A    between atoms: C_4  and  C_6 
REMARK       I    between atoms: C_13  and  N_15 
REMARK    4  A    between atoms: N_15  and  N_16 
REMARK       I    between atoms: N_16  and  C_17 
REMARK    5  A    between atoms: C_17  and  C_19 
REMARK    6  A    between atoms: C_19  and  C_20 
ROOT
ATOM      1  C   UNL d   1      26.077 -15.446  -0.455  0.00  0.00     0.258 C 
ATOM      2  O   UNL d   1      26.248 -14.408   0.190  0.00  0.00    -0.269 OA
ATOM      3  N   UNL d   1      25.826 -15.414  -1.825  0.00  0.00    -0.266 N 
ATOM      4  H   UNL d   1      25.675 -16.239  -2.406  0.00  0.00     0.190 HD
ENDROOT
BRANCH   1   5
ATOM      5  C   UNL d   1      26.116 -16.862   0.215  0.00  0.00     0.174 C 
ATOM      6  C   UNL d   1      27.014 -17.811  -0.575  0.00  0.00     0.042 C 
BRANCH   5   7
ATOM      7  N   UNL d   1      24.767 -17.472   0.328  0.00  0.00    -0.344 N 
ATOM      8  C   UNL d   1      23.964 -17.724  -0.768  0.00  0.00     0.252 C 
ATOM      9  O   UNL d   1      24.282 -17.429  -1.919  0.00  0.00    -0.268 OA
ATOM     10  H   UNL d   1      24.517 -17.870   1.226  0.00  0.00     0.163 HD
BRANCH   8  11
ATOM     11  C   UNL d   1      22.655 -18.410  -0.533  0.00  0.00     0.032 A 
ATOM     12  C   UNL d   1      22.125 -18.575   0.754  0.00  0.00     0.018 A 
ATOM     13  C   UNL d   1      20.873 -19.188   0.927  0.00  0.00     0.025 A 
ATOM     14  C   UNL d   1      20.151 -19.637  -0.180  0.00  0.00     0.034 A 
ATOM     15 CL   UNL d   1      18.632 -20.418   0.043  0.00  0.00    -0.084 Cl
ATOM     16  C   UNL d   1      20.655 -19.453  -1.465  0.00  0.00     0.025 A 
ATOM     17  C   UNL d   1      21.900 -18.832  -1.641  0.00  0.00     0.018 A 
ENDBRANCH   8  11
ENDBRANCH   5   7
ENDBRANCH   1   5
BRANCH   3  18
ATOM     18  N   UNL d   1      25.766 -14.162  -2.510  0.00  0.00    -0.267 N 
ATOM     19  C   UNL d   1      25.429 -14.158  -3.854  0.00  0.00     0.236 C 
ATOM     20  O   UNL d   1      25.156 -15.207  -4.438  0.00  0.00    -0.272 OA
ATOM     21  H   UNL d   1      25.971 -13.327  -1.963  0.00  0.00     0.190 HD
BRANCH  19  22
ATOM     22  C   UNL d   1      25.414 -12.782  -4.544  0.00  0.00     0.109 C 
BRANCH  22  23
ATOM     23  C   UNL d   1      26.797 -12.389  -5.130  0.00  0.00    -0.006 C 
ATOM     24  C   UNL d   1      27.666 -13.623  -5.458  0.00  0.00     0.005 C 
ATOM     25  C   UNL d   1      29.000 -13.232  -6.107  0.00  0.00     0.000 C 
ATOM     26  C   UNL d   1      28.793 -12.369  -7.348  0.00  0.00     0.000 C 
ATOM     27  C   UNL d   1      27.963 -11.138  -7.013  0.00  0.00     0.000 C 
ATOM     28  C   UNL d   1      26.625 -11.527  -6.395  0.00  0.00     0.005 C 
ENDBRANCH  22  23
ENDBRANCH  19  22
ENDBRANCH   3  18
TORSDOF 6
ENDMDL
MODEL 8
REMARK VINA RESULT:    -7.248      4.792      8.335
REMARK INTER + INTRA:         -11.668
REMARK INTER:                  -9.038
REMARK INTRA:                  -2.630
REMARK CONF_INDEPENDENT:        1.790
REMARK UNBOUND:                -2.630
REMARK  6 active torsions:
REMARK  status: ('A' for Active; 'I' for Inactive)
REMARK    1  A    between atoms: C_2  and  C_13 
REMARK    2  A    between atoms: C_2  and  N_3 
REMARK       I    between atoms: N_3  and  C_4 
REMARK    3  A    between atoms: C_4  and  C_6 
REMARK       I    between atoms: C_13  and  N_15 
REMARK    4  A    between atoms: N_15  and  N_16 
REMARK       I    between atoms: N_16  and  C_17 
REMARK    5  A    between atoms: C_17  and  C_19 
REMARK    6  A    between atoms: C_19  and  C_20 
ROOT
ATOM      1  C   UNL d   1      28.520 -15.612  -1.927  0.00  0.00     0.258 C 
ATOM      2  O   UNL d   1      29.620 -15.214  -2.319  0.00  0.00    -0.269 OA
ATOM      3  N   UNL d   1      27.336 -15.144  -2.493  0.00  0.00    -0.266 N 
ATOM      4  H   UNL d   1      26.401 -15.434  -2.207  0.00  0.00     0.190 HD
ENDROOT
BRANCH   1   5
ATOM      5  C   UNL d   1      28.373 -16.653  -0.765  0.00  0.00     0.174 C 
ATOM      6  C   UNL d   1      29.411 -17.764  -0.898  0.00  0.00     0.042 C 
BRANCH   5   7
ATOM      7  N   UNL d   1      27.023 -17.270  -0.725  0.00  0.00    -0.344 N 
ATOM      8  C   UNL d   1      25.881 -16.555  -0.418  0.00  0.00     0.252 C 
ATOM      9  O   UNL d   1      25.893 -15.363  -0.116  0.00  0.00    -0.268 OA
ATOM     10  H   UNL d   1      26.934 -18.204  -1.107  0.00  0.00     0.163 HD
BRANCH   8  11
ATOM     11  C   UNL d   1      24.569 -17.272  -0.481  0.00  0.00     0.032 A 
ATOM     12  C   UNL d   1      24.484 -18.669  -0.422  0.00  0.00     0.018 A 
ATOM     13  C   UNL d   1      23.229 -19.301  -0.443  0.00  0.00     0.025 A 
ATOM     14  C   UNL d   1      22.062 -18.541  -0.525  0.00  0.00     0.034 A 
ATOM     15 CL   UNL d   1      20.529 -19.324  -0.585  0.00  0.00    -0.084 Cl
ATOM     16  C   UNL d   1      22.132 -17.151  -0.557  0.00  0.00     0.025 A 
ATOM     17  C   UNL d   1      23.384 -16.518  -0.525  0.00  0.00     0.018 A 
ENDBRANCH   8  11
ENDBRANCH   5   7
ENDBRANCH   1   5
BRANCH   3  18
ATOM     18  N   UNL d   1      27.383 -14.186  -3.552  0.00  0.00    -0.267 N 
ATOM     19  C   UNL d   1      26.215 -13.906  -4.244  0.00  0.00     0.236 C 
ATOM     20  O   UNL d   1      25.154 -14.447  -3.933  0.00  0.00    -0.272 OA
ATOM     21  H   UNL d   1      28.284 -13.749  -3.739  0.00  0.00     0.190 HD
BRANCH  19  22
ATOM     22  C   UNL d   1      26.337 -12.892  -5.395  0.00  0.00     0.109 C 
BRANCH  22  23
ATOM     23  C   UNL d   1      26.425 -11.424  -4.896  0.00  0.00    -0.006 C 
ATOM     24  C   UNL d   1      25.689 -10.442  -5.834  0.00  0.00     0.005 C 
ATOM     25  C   UNL d   1      25.713  -9.005  -5.297  0.00  0.00     0.000 C 
ATOM     26  C   UNL d   1      25.157  -8.922  -3.879  0.00  0.00     0.000 C 
ATOM     27  C   UNL d   1      25.905  -9.869  -2.952  0.00  0.00     0.000 C 
ATOM     28  C   UNL d   1      25.856 -11.301  -3.470  0.00  0.00     0.005 C 
ENDBRANCH  22  23
ENDBRANCH  19  22
ENDBRANCH   3  18
TORSDOF 6
ENDMDL
MODEL 9
REMARK VINA RESULT:    -7.185      5.158      9.018
REMARK INTER + INTRA:         -11.614
REMARK INTER:                  -8.975
REMARK INTRA:                  -2.639
REMARK CONF_INDEPENDENT:        1.790
REMARK UNBOUND:                -2.639
REMARK  6 active torsions:
REMARK  status: ('A' for Active; 'I' for Inactive)
REMARK    1  A    between atoms: C_2  and  C_13 
REMARK    2  A    between atoms: C_2  and  N_3 
REMARK       I    between atoms: N_3  and  C_4 
REMARK    3  A    between atoms: C_4  and  C_6 
REMARK       I    between atoms: C_13  and  N_15 
REMARK    4  A    between atoms: N_15  and  N_16 
REMARK       I    between atoms: N_16  and  C_17 
REMARK    5  A    between atoms: C_17  and  C_19 
REMARK    6  A    between atoms: C_19  and  C_20 
ROOT
ATOM      1  C   UNL d   1      27.437 -15.185  -4.220  0.00  0.00     0.258 C 
ATOM      2  O   UNL d   1      27.430 -15.243  -5.453  0.00  0.00    -0.269 OA
ATOM      3  N   UNL d   1      28.391 -15.869  -3.469  0.00  0.00    -0.266 N 
ATOM      4  H   UNL d   1      28.442 -15.861  -2.451  0.00  0.00     0.190 HD
ENDROOT
BRANCH   1   5
ATOM      5  C   UNL d   1      26.377 -14.359  -3.415  0.00  0.00     0.174 C 
ATOM      6  C   UNL d   1      27.047 -13.548  -2.310  0.00  0.00     0.042 C 
BRANCH   5   7
ATOM      7  N   UNL d   1      25.333 -15.219  -2.804  0.00  0.00    -0.344 N 
ATOM      8  C   UNL d   1      25.603 -16.120  -1.790  0.00  0.00     0.252 C 
ATOM      9  O   UNL d   1      26.732 -16.310  -1.341  0.00  0.00    -0.268 OA
ATOM     10  H   UNL d   1      24.369 -15.000  -3.027  0.00  0.00     0.163 HD
BRANCH   8  11
ATOM     11  C   UNL d   1      24.454 -16.879  -1.205  0.00  0.00     0.032 A 
ATOM     12  C   UNL d   1      23.171 -16.324  -1.111  0.00  0.00     0.018 A 
ATOM     13  C   UNL d   1      22.110 -17.087  -0.592  0.00  0.00     0.025 A 
ATOM     14  C   UNL d   1      22.330 -18.397  -0.166  0.00  0.00     0.034 A 
ATOM     15 CL   UNL d   1      21.032 -19.313   0.501  0.00  0.00    -0.084 Cl
ATOM     16  C   UNL d   1      23.595 -18.967  -0.280  0.00  0.00     0.025 A 
ATOM     17  C   UNL d   1      24.652 -18.212  -0.807  0.00  0.00     0.018 A 
ENDBRANCH   8  11
ENDBRANCH   5   7
ENDBRANCH   1   5
BRANCH   3  18
ATOM     18  N   UNL d   1      29.388 -16.654  -4.127  0.00  0.00    -0.267 N 
ATOM     19  C   UNL d   1      30.194 -17.479  -3.358  0.00  0.00     0.236 C 
ATOM     20  O   UNL d   1      30.034 -17.559  -2.140  0.00  0.00    -0.272 OA
ATOM     21  H   UNL d   1      29.448 -16.567  -5.140  0.00  0.00     0.190 HD
BRANCH  19  22
ATOM     22  C   UNL d   1      31.271 -18.272  -4.120  0.00  0.00     0.109 C 
BRANCH  22  23
ATOM     23  C   UNL d   1      30.851 -18.609  -5.577  0.00  0.00    -0.006 C 
ATOM     24  C   UNL d   1      31.541 -17.693  -6.612  0.00  0.00     0.005 C 
ATOM     25  C   UNL d   1      31.182 -18.079  -8.053  0.00  0.00     0.000 C 
ATOM     26  C   UNL d   1      31.488 -19.546  -8.337  0.00  0.00     0.000 C 
ATOM     27  C   UNL d   1      30.782 -20.447  -7.334  0.00  0.00     0.000 C 
ATOM     28  C   UNL d   1      31.161 -20.082  -5.904  0.00  0.00     0.005 C 
ENDBRANCH  22  23
ENDBRANCH  19  22
ENDBRANCH   3  18
TORSDOF 6
ENDMDL
