MODEL 1
REMARK VINA RESULT:   -10.703      0.000      0.000
REMARK INTER + INTRA:         -14.746
REMARK INTER:                 -13.089
REMARK INTRA:                  -1.656
REMARK CONF_INDEPENDENT:        2.386
REMARK UNBOUND:                -1.656
REMARK  8 active torsions:
REMARK  status: ('A' for Active; 'I' for Inactive)
REMARK    1  A    between atoms: O_2  and  C_3 
REMARK    2  A    between atoms: C_7  and  C_8 
REMARK    3  A    between atoms: C_8  and  C_9 
REMARK    4  A    between atoms: C_9  and  N_10 
REMARK       I    between atoms: N_10  and  C_11 
REMARK    5  A    between atoms: C_11  and  C_13 
REMARK    6  A    between atoms: C_13  and  S_14 
REMARK    7  A    between atoms: C_15  and  S_14 
REMARK    8  A    between atoms: N_19  and  C_20 
ROOT
ATOM      1  N   UNL d   1      28.582 -14.884   1.602  0.00  0.00    -0.360 N 
ATOM      2  C   UNL d   1      27.607 -13.921   1.388  0.00  0.00     0.227 C 
ATOM      3  O   UNL d   1      27.317 -13.557   0.242  0.00  0.00    -0.273 OA
ATOM      4  H   UNL d   1      28.839 -15.211   2.523  0.00  0.00     0.162 HD
ENDROOT
BRANCH   2   5
ATOM      5  C   UNL d   1      26.943 -13.328   2.647  0.00  0.00     0.180 C 
BRANCH   5   6
ATOM      6  S   UNL d   1      28.258 -12.899   3.871  0.00  0.00    -0.116 SA
BRANCH   6   7
ATOM      7  C   UNL d   1      28.099 -14.145   5.232  0.00  0.00     0.267 C 
ATOM      8  N   UNL d   1      28.372 -15.479   4.649  0.00  0.00    -0.105 NA
ATOM      9  N   UNL d   1      29.838 -15.571   4.730  0.00  0.00     0.072 N 
ATOM     10  H   UNL d   1      28.007 -15.514   3.696  0.00  0.00     0.158 HD
ATOM     11  N   UNL d   1      30.242 -14.824   5.901  0.00  0.00    -0.042 NA
ATOM     12  H   UNL d   1      30.271 -15.138   3.886  0.00  0.00     0.325 HD
ATOM     13  H   UNL d   1      30.166 -16.554   4.784  0.00  0.00     0.325 HD
ATOM     14  N   UNL d   1      29.227 -13.875   6.123  0.00  0.00    -0.259 N 
ATOM     15  H   UNL d   1      31.155 -14.355   5.792  0.00  0.00     0.181 HD
BRANCH  14  16
ATOM     16  C   UNL d   1      29.227 -13.064   7.257  0.00  0.00     0.050 A 
ATOM     17  C   UNL d   1      29.913 -11.845   7.336  0.00  0.00     0.031 A 
ATOM     18  C   UNL d   1      29.919 -11.085   8.519  0.00  0.00     0.003 A 
ATOM     19  C   UNL d   1      29.259 -11.540   9.658  0.00  0.00     0.007 A 
ATOM     20  C   UNL d   1      28.564 -12.747   9.618  0.00  0.00    -0.060 A 
ATOM     21  C   UNL d   1      27.889 -13.268  10.857  0.00  0.00     0.048 C 
ATOM     22  C   UNL d   1      28.537 -13.483   8.415  0.00  0.00     0.037 A 
ENDBRANCH  14  16
ENDBRANCH   6   7
ENDBRANCH   5   6
ENDBRANCH   2   5
BRANCH   1  23
ATOM     23  C   UNL d   1      29.228 -15.469   0.441  0.00  0.00     0.127 C 
BRANCH  23  24
ATOM     24  C   UNL d   1      28.583 -16.701  -0.195  0.00  0.00     0.060 C 
BRANCH  24  25
ATOM     25  C   UNL d   1      27.244 -16.424  -0.843  0.00  0.00    -0.029 A 
ATOM     26  C   UNL d   1      25.958 -16.974  -0.504  0.00  0.00    -0.002 A 
ATOM     27  C   UNL d   1      25.503 -17.895   0.462  0.00  0.00     0.017 A 
ATOM     28  C   UNL d   1      25.005 -16.421  -1.362  0.00  0.00     0.045 A 
ATOM     29  C   UNL d   1      24.156 -18.199   0.591  0.00  0.00     0.038 A 
ATOM     30  C   UNL d   1      23.224 -17.608  -0.244  0.00  0.00     0.070 A 
ATOM     31  C   UNL d   1      23.636 -16.741  -1.270  0.00  0.00     0.067 A 
ATOM     32  N   UNL d   1      25.683 -15.576  -2.214  0.00  0.00    -0.365 N 
ATOM     33  C   UNL d   1      27.017 -15.542  -1.888  0.00  0.00     0.096 A 
ATOM     34  H   UNL d   1      25.252 -15.037  -2.953  0.00  0.00     0.165 HD
BRANCH  30  35
ATOM     35  O   UNL d   1      21.886 -17.888  -0.149  0.00  0.00    -0.356 OA
ATOM     36  C   UNL d   1      21.495 -19.079  -0.836  0.00  0.00     0.210 C 
ENDBRANCH  30  35
ENDBRANCH  24  25
ENDBRANCH  23  24
ENDBRANCH   1  23
TORSDOF 8
ENDMDL
MODEL 2
REMARK VINA RESULT:   -10.309      1.284      1.685
REMARK INTER + INTRA:         -15.064
REMARK INTER:                 -12.695
REMARK INTRA:                  -2.369
REMARK CONF_INDEPENDENT:        2.386
REMARK UNBOUND:                -2.369
REMARK  8 active torsions:
REMARK  status: ('A' for Active; 'I' for Inactive)
REMARK    1  A    between atoms: O_2  and  C_3 
REMARK    2  A    between atoms: C_7  and  C_8 
REMARK    3  A    between atoms: C_8  and  C_9 
REMARK    4  A    between atoms: C_9  and  N_10 
REMARK       I    between atoms: N_10  and  C_11 
REMARK    5  A    between atoms: C_11  and  C_13 
REMARK    6  A    between atoms: C_13  and  S_14 
REMARK    7  A    between atoms: C_15  and  S_14 
REMARK    8  A    between atoms: N_19  and  C_20 
ROOT
ATOM      1  N   UNL d   1      27.585 -14.127   0.618  0.00  0.00    -0.360 N 
ATOM      2  C   UNL d   1      28.036 -13.933   1.915  0.00  0.00     0.227 C 
ATOM      3  O   UNL d   1      29.182 -14.264   2.244  0.00  0.00    -0.273 OA
ATOM      4  H   UNL d   1      26.659 -13.862   0.313  0.00  0.00     0.162 HD
ENDROOT
BRANCH   2   5
ATOM      5  C   UNL d   1      27.027 -13.316   2.905  0.00  0.00     0.180 C 
BRANCH   5   6
ATOM      6  S   UNL d   1      27.919 -12.845   4.452  0.00  0.00    -0.116 SA
BRANCH   6   7
ATOM      7  C   UNL d   1      27.973 -14.380   5.486  0.00  0.00     0.267 C 
ATOM      8  N   UNL d   1      28.460 -15.482   4.622  0.00  0.00    -0.105 NA
ATOM      9  N   UNL d   1      29.922 -15.352   4.731  0.00  0.00     0.072 N 
ATOM     10  H   UNL d   1      28.102 -15.354   3.675  0.00  0.00     0.158 HD
ATOM     11  N   UNL d   1      30.202 -14.841   6.054  0.00  0.00    -0.042 NA
ATOM     12  H   UNL d   1      30.274 -14.672   4.024  0.00  0.00     0.325 HD
ATOM     13  H   UNL d   1      30.407 -16.255   4.569  0.00  0.00     0.325 HD
ATOM     14  N   UNL d   1      29.045 -14.146   6.453  0.00  0.00    -0.259 N 
ATOM     15  H   UNL d   1      31.025 -14.219   6.087  0.00  0.00     0.181 HD
BRANCH  14  16
ATOM     16  C   UNL d   1      28.916 -13.630   7.741  0.00  0.00     0.050 A 
ATOM     17  C   UNL d   1      28.535 -12.309   8.011  0.00  0.00     0.031 A 
ATOM     18  C   UNL d   1      28.463 -11.823   9.329  0.00  0.00     0.003 A 
ATOM     19  C   UNL d   1      28.795 -12.642  10.406  0.00  0.00     0.007 A 
ATOM     20  C   UNL d   1      29.178 -13.962  10.178  0.00  0.00    -0.060 A 
ATOM     21  C   UNL d   1      29.583 -14.838  11.331  0.00  0.00     0.048 C 
ATOM     22  C   UNL d   1      29.212 -14.447   8.854  0.00  0.00     0.037 A 
ENDBRANCH  14  16
ENDBRANCH   6   7
ENDBRANCH   5   6
ENDBRANCH   2   5
BRANCH   1  23
ATOM     23  C   UNL d   1      28.507 -14.703  -0.345  0.00  0.00     0.127 C 
BRANCH  23  24
ATOM     24  C   UNL d   1      27.981 -15.796  -1.276  0.00  0.00     0.060 C 
BRANCH  24  25
ATOM     25  C   UNL d   1      27.041 -16.772  -0.603  0.00  0.00    -0.029 A 
ATOM     26  C   UNL d   1      25.605 -16.824  -0.679  0.00  0.00    -0.002 A 
ATOM     27  C   UNL d   1      24.624 -16.057  -1.340  0.00  0.00     0.017 A 
ATOM     28  C   UNL d   1      25.164 -17.900   0.093  0.00  0.00     0.045 A 
ATOM     29  C   UNL d   1      23.279 -16.389  -1.270  0.00  0.00     0.038 A 
ATOM     30  C   UNL d   1      22.869 -17.485  -0.531  0.00  0.00     0.070 A 
ATOM     31  C   UNL d   1      23.800 -18.236   0.205  0.00  0.00     0.067 A 
ATOM     32  N   UNL d   1      26.287 -18.478   0.644  0.00  0.00    -0.365 N 
ATOM     33  C   UNL d   1      27.419 -17.834   0.203  0.00  0.00     0.096 A 
ATOM     34  H   UNL d   1      26.279 -19.281   1.260  0.00  0.00     0.165 HD
BRANCH  30  35
ATOM     35  O   UNL d   1      21.550 -17.841  -0.435  0.00  0.00    -0.356 OA
ATOM     36  C   UNL d   1      21.297 -19.213  -0.746  0.00  0.00     0.210 C 
ENDBRANCH  30  35
ENDBRANCH  24  25
ENDBRANCH  23  24
ENDBRANCH   1  23
TORSDOF 8
ENDMDL
MODEL 3
REMARK VINA RESULT:   -10.191      1.448      2.143
REMARK INTER + INTRA:         -14.541
REMARK INTER:                 -12.577
REMARK INTRA:                  -1.963
REMARK CONF_INDEPENDENT:        2.386
REMARK UNBOUND:                -1.963
REMARK  8 active torsions:
REMARK  status: ('A' for Active; 'I' for Inactive)
REMARK    1  A    between atoms: O_2  and  C_3 
REMARK    2  A    between atoms: C_7  and  C_8 
REMARK    3  A    between atoms: C_8  and  C_9 
REMARK    4  A    between atoms: C_9  and  N_10 
REMARK       I    between atoms: N_10  and  C_11 
REMARK    5  A    between atoms: C_11  and  C_13 
REMARK    6  A    between atoms: C_13  and  S_14 
REMARK    7  A    between atoms: C_15  and  S_14 
REMARK    8  A    between atoms: N_19  and  C_20 
ROOT
ATOM      1  N   UNL d   1      26.939 -13.422   1.180  0.00  0.00    -0.360 N 
ATOM      2  C   UNL d   1      27.866 -13.094   2.157  0.00  0.00     0.227 C 
ATOM      3  O   UNL d   1      28.946 -13.693   2.234  0.00  0.00    -0.273 OA
ATOM      4  H   UNL d   1      26.051 -12.949   1.083  0.00  0.00     0.162 HD
ENDROOT
BRANCH   2   5
ATOM      5  C   UNL d   1      27.459 -11.977   3.140  0.00  0.00     0.180 C 
BRANCH   5   6
ATOM      6  S   UNL d   1      28.554 -12.057   4.624  0.00  0.00    -0.116 SA
BRANCH   6   7
ATOM      7  C   UNL d   1      27.993 -13.541   5.580  0.00  0.00     0.267 C 
ATOM      8  N   UNL d   1      27.885 -14.670   4.626  0.00  0.00    -0.105 NA
ATOM      9  N   UNL d   1      29.258 -15.200   4.601  0.00  0.00     0.072 N 
ATOM     10  H   UNL d   1      27.559 -14.323   3.724  0.00  0.00     0.158 HD
ATOM     11  N   UNL d   1      29.822 -14.972   5.914  0.00  0.00    -0.042 NA
ATOM     12  H   UNL d   1      29.826 -14.687   3.895  0.00  0.00     0.325 HD
ATOM     13  H   UNL d   1      29.283 -16.208   4.355  0.00  0.00     0.325 HD
ATOM     14  N   UNL d   1      29.119 -13.877   6.450  0.00  0.00    -0.259 N 
ATOM     15  H   UNL d   1      30.834 -14.776   5.895  0.00  0.00     0.181 HD
BRANCH  14  16
ATOM     16  C   UNL d   1      29.316 -13.463   7.766  0.00  0.00     0.050 A 
ATOM     17  C   UNL d   1      29.135 -14.299   8.876  0.00  0.00     0.031 A 
ATOM     18  C   UNL d   1      29.303 -13.821  10.188  0.00  0.00     0.003 A 
ATOM     19  C   UNL d   1      29.630 -12.487  10.420  0.00  0.00     0.007 A 
ATOM     20  C   UNL d   1      29.819 -11.624   9.342  0.00  0.00    -0.060 A 
ATOM     21  C   UNL d   1      30.127 -10.172   9.585  0.00  0.00     0.048 C 
ATOM     22  C   UNL d   1      29.683 -12.125   8.030  0.00  0.00     0.037 A 
ENDBRANCH  14  16
ENDBRANCH   6   7
ENDBRANCH   5   6
ENDBRANCH   2   5
BRANCH   1  23
ATOM     23  C   UNL d   1      27.288 -14.467   0.234  0.00  0.00     0.127 C 
BRANCH  23  24
ATOM     24  C   UNL d   1      26.209 -14.941  -0.740  0.00  0.00     0.060 C 
BRANCH  24  25
ATOM     25  C   UNL d   1      25.800 -16.385  -0.545  0.00  0.00    -0.029 A 
ATOM     26  C   UNL d   1      24.479 -16.954  -0.604  0.00  0.00    -0.002 A 
ATOM     27  C   UNL d   1      23.191 -16.433  -0.838  0.00  0.00     0.017 A 
ATOM     28  C   UNL d   1      24.584 -18.327  -0.375  0.00  0.00     0.045 A 
ATOM     29  C   UNL d   1      22.077 -17.258  -0.892  0.00  0.00     0.038 A 
ATOM     30  C   UNL d   1      22.210 -18.622  -0.701  0.00  0.00     0.070 A 
ATOM     31  C   UNL d   1      23.462 -19.179  -0.392  0.00  0.00     0.067 A 
ATOM     32  N   UNL d   1      25.919 -18.592  -0.159  0.00  0.00    -0.365 N 
ATOM     33  C   UNL d   1      26.660 -17.443  -0.296  0.00  0.00     0.096 A 
ATOM     34  H   UNL d   1      26.300 -19.508   0.041  0.00  0.00     0.165 HD
BRANCH  30  35
ATOM     35  O   UNL d   1      21.132 -19.467  -0.742  0.00  0.00    -0.356 OA
ATOM     36  C   UNL d   1      20.436 -19.577   0.502  0.00  0.00     0.210 C 
ENDBRANCH  30  35
ENDBRANCH  24  25
ENDBRANCH  23  24
ENDBRANCH   1  23
TORSDOF 8
ENDMDL
MODEL 4
REMARK VINA RESULT:    -9.508      2.679      9.336
REMARK INTER + INTRA:         -13.698
REMARK INTER:                 -11.895
REMARK INTRA:                  -1.803
REMARK CONF_INDEPENDENT:        2.386
REMARK UNBOUND:                -1.803
REMARK  8 active torsions:
REMARK  status: ('A' for Active; 'I' for Inactive)
REMARK    1  A    between atoms: O_2  and  C_3 
REMARK    2  A    between atoms: C_7  and  C_8 
REMARK    3  A    between atoms: C_8  and  C_9 
REMARK    4  A    between atoms: C_9  and  N_10 
REMARK       I    between atoms: N_10  and  C_11 
REMARK    5  A    between atoms: C_11  and  C_13 
REMARK    6  A    between atoms: C_13  and  S_14 
REMARK    7  A    between atoms: C_15  and  S_14 
REMARK    8  A    between atoms: N_19  and  C_20 
ROOT
ATOM      1  N   UNL d   1      28.089 -14.823   2.519  0.00  0.00    -0.360 N 
ATOM      2  C   UNL d   1      27.345 -13.749   2.058  0.00  0.00     0.227 C 
ATOM      3  O   UNL d   1      26.737 -13.014   2.845  0.00  0.00    -0.273 OA
ATOM      4  H   UNL d   1      28.605 -15.439   1.906  0.00  0.00     0.162 HD
ENDROOT
BRANCH   2   5
ATOM      5  C   UNL d   1      27.304 -13.551   0.529  0.00  0.00     0.180 C 
BRANCH   5   6
ATOM      6  S   UNL d   1      29.018 -13.707  -0.141  0.00  0.00    -0.116 SA
BRANCH   6   7
ATOM      7  C   UNL d   1      29.061 -15.332  -1.029  0.00  0.00     0.267 C 
ATOM      8  N   UNL d   1      30.316 -16.018  -0.641  0.00  0.00    -0.105 NA
ATOM      9  N   UNL d   1      29.935 -16.703   0.605  0.00  0.00     0.072 N 
ATOM     10  H   UNL d   1      31.058 -15.327  -0.523  0.00  0.00     0.158 HD
ATOM     11  N   UNL d   1      28.534 -17.044   0.486  0.00  0.00    -0.042 NA
ATOM     12  H   UNL d   1      30.060 -16.063   1.417  0.00  0.00     0.325 HD
ATOM     13  H   UNL d   1      30.511 -17.549   0.777  0.00  0.00     0.325 HD
ATOM     14  N   UNL d   1      27.988 -16.120  -0.424  0.00  0.00    -0.259 N 
ATOM     15  H   UNL d   1      28.027 -17.009   1.383  0.00  0.00     0.181 HD
BRANCH  14  16
ATOM     16  C   UNL d   1      26.674 -16.237  -0.876  0.00  0.00     0.050 A 
ATOM     17  C   UNL d   1      26.128 -15.429  -1.882  0.00  0.00     0.031 A 
ATOM     18  C   UNL d   1      24.782 -15.555  -2.271  0.00  0.00     0.003 A 
ATOM     19  C   UNL d   1      23.946 -16.476  -1.644  0.00  0.00     0.007 A 
ATOM     20  C   UNL d   1      24.453 -17.298  -0.639  0.00  0.00    -0.060 A 
ATOM     21  C   UNL d   1      23.545 -18.261   0.075  0.00  0.00     0.048 C 
ATOM     22  C   UNL d   1      25.813 -17.186  -0.283  0.00  0.00     0.037 A 
ENDBRANCH  14  16
ENDBRANCH   6   7
ENDBRANCH   5   6
ENDBRANCH   2   5
BRANCH   1  23
ATOM     23  C   UNL d   1      28.155 -15.041   3.954  0.00  0.00     0.127 C 
BRANCH  23  24
ATOM     24  C   UNL d   1      29.284 -14.364   4.731  0.00  0.00     0.060 C 
BRANCH  24  25
ATOM     25  C   UNL d   1      28.805 -13.336   5.734  0.00  0.00    -0.029 A 
ATOM     26  C   UNL d   1      29.074 -13.277   7.146  0.00  0.00    -0.002 A 
ATOM     27  C   UNL d   1      29.808 -14.077   8.046  0.00  0.00     0.017 A 
ATOM     28  C   UNL d   1      28.438 -12.147   7.665  0.00  0.00     0.045 A 
ATOM     29  C   UNL d   1      29.938 -13.728   9.382  0.00  0.00     0.038 A 
ATOM     30  C   UNL d   1      29.332 -12.582   9.866  0.00  0.00     0.070 A 
ATOM     31  C   UNL d   1      28.530 -11.792   9.026  0.00  0.00     0.067 A 
ATOM     32  N   UNL d   1      27.782 -11.545   6.614  0.00  0.00    -0.365 N 
ATOM     33  C   UNL d   1      28.026 -12.228   5.447  0.00  0.00     0.096 A 
ATOM     34  H   UNL d   1      27.225 -10.703   6.689  0.00  0.00     0.165 HD
BRANCH  30  35
ATOM     35  O   UNL d   1      29.435 -12.209  11.180  0.00  0.00    -0.356 OA
ATOM     36  C   UNL d   1      28.342 -12.647  11.992  0.00  0.00     0.210 C 
ENDBRANCH  30  35
ENDBRANCH  24  25
ENDBRANCH  23  24
ENDBRANCH   1  23
TORSDOF 8
ENDMDL
MODEL 5
REMARK VINA RESULT:    -9.267      1.019      1.567
REMARK INTER + INTRA:         -13.987
REMARK INTER:                 -11.653
REMARK INTRA:                  -2.333
REMARK CONF_INDEPENDENT:        2.386
REMARK UNBOUND:                -2.333
REMARK  8 active torsions:
REMARK  status: ('A' for Active; 'I' for Inactive)
REMARK    1  A    between atoms: O_2  and  C_3 
REMARK    2  A    between atoms: C_7  and  C_8 
REMARK    3  A    between atoms: C_8  and  C_9 
REMARK    4  A    between atoms: C_9  and  N_10 
REMARK       I    between atoms: N_10  and  C_11 
REMARK    5  A    between atoms: C_11  and  C_13 
REMARK    6  A    between atoms: C_13  and  S_14 
REMARK    7  A    between atoms: C_15  and  S_14 
REMARK    8  A    between atoms: N_19  and  C_20 
ROOT
ATOM      1  N   UNL d   1      28.123 -13.176   0.248  0.00  0.00    -0.360 N 
ATOM      2  C   UNL d   1      27.807 -13.671   1.504  0.00  0.00     0.227 C 
ATOM      3  O   UNL d   1      28.153 -14.810   1.841  0.00  0.00    -0.273 OA
ATOM      4  H   UNL d   1      27.864 -12.248  -0.058  0.00  0.00     0.162 HD
ENDROOT
BRANCH   2   5
ATOM      5  C   UNL d   1      26.989 -12.740   2.421  0.00  0.00     0.180 C 
BRANCH   5   6
ATOM      6  S   UNL d   1      28.046 -12.223   3.844  0.00  0.00    -0.116 SA
BRANCH   6   7
ATOM      7  C   UNL d   1      27.786 -13.507   5.153  0.00  0.00     0.267 C 
ATOM      8  N   UNL d   1      27.730 -14.825   4.478  0.00  0.00    -0.105 NA
ATOM      9  N   UNL d   1      29.150 -15.200   4.387  0.00  0.00     0.072 N 
ATOM     10  H   UNL d   1      27.269 -14.724   3.573  0.00  0.00     0.158 HD
ATOM     11  N   UNL d   1      29.811 -14.627   5.538  0.00  0.00    -0.042 NA
ATOM     12  H   UNL d   1      29.570 -14.800   3.521  0.00  0.00     0.325 HD
ATOM     13  H   UNL d   1      29.281 -16.229   4.355  0.00  0.00     0.325 HD
ATOM     14  N   UNL d   1      29.031 -13.520   5.921  0.00  0.00    -0.259 N 
ATOM     15  H   UNL d   1      30.782 -14.334   5.349  0.00  0.00     0.181 HD
BRANCH  14  16
ATOM     16  C   UNL d   1      29.307 -12.805   7.085  0.00  0.00     0.050 A 
ATOM     17  C   UNL d   1      29.474 -13.405   8.340  0.00  0.00     0.031 A 
ATOM     18  C   UNL d   1      29.706 -12.635   9.494  0.00  0.00     0.003 A 
ATOM     19  C   UNL d   1      29.751 -11.244   9.421  0.00  0.00     0.007 A 
ATOM     20  C   UNL d   1      29.590 -10.611   8.190  0.00  0.00    -0.060 A 
ATOM     21  C   UNL d   1      29.590  -9.109   8.111  0.00  0.00     0.048 C 
ATOM     22  C   UNL d   1      29.393 -11.397   7.035  0.00  0.00     0.037 A 
ENDBRANCH  14  16
ENDBRANCH   6   7
ENDBRANCH   5   6
ENDBRANCH   2   5
BRANCH   1  23
ATOM     23  C   UNL d   1      28.895 -14.022  -0.644  0.00  0.00     0.127 C 
BRANCH  23  24
ATOM     24  C   UNL d   1      28.443 -15.471  -0.828  0.00  0.00     0.060 C 
BRANCH  24  25
ATOM     25  C   UNL d   1      27.001 -15.610  -1.267  0.00  0.00    -0.029 A 
ATOM     26  C   UNL d   1      25.998 -16.511  -0.762  0.00  0.00    -0.002 A 
ATOM     27  C   UNL d   1      25.982 -17.513   0.230  0.00  0.00     0.017 A 
ATOM     28  C   UNL d   1      24.809 -16.275  -1.455  0.00  0.00     0.045 A 
ATOM     29  C   UNL d   1      24.818 -18.200   0.543  0.00  0.00     0.038 A 
ATOM     30  C   UNL d   1      23.641 -17.921  -0.129  0.00  0.00     0.070 A 
ATOM     31  C   UNL d   1      23.624 -16.984  -1.176  0.00  0.00     0.067 A 
ATOM     32  N   UNL d   1      25.075 -15.279  -2.369  0.00  0.00    -0.365 N 
ATOM     33  C   UNL d   1      26.374 -14.848  -2.239  0.00  0.00     0.096 A 
ATOM     34  H   UNL d   1      24.401 -14.901  -3.021  0.00  0.00     0.165 HD
BRANCH  30  35
ATOM     35  O   UNL d   1      22.474 -18.582   0.150  0.00  0.00    -0.356 OA
ATOM     36  C   UNL d   1      21.723 -18.943  -1.012  0.00  0.00     0.210 C 
ENDBRANCH  30  35
ENDBRANCH  24  25
ENDBRANCH  23  24
ENDBRANCH   1  23
TORSDOF 8
ENDMDL
MODEL 6
REMARK VINA RESULT:    -8.873      2.199      3.225
REMARK INTER + INTRA:         -13.645
REMARK INTER:                 -11.259
REMARK INTRA:                  -2.386
REMARK CONF_INDEPENDENT:        2.386
REMARK UNBOUND:                -2.386
REMARK  8 active torsions:
REMARK  status: ('A' for Active; 'I' for Inactive)
REMARK    1  A    between atoms: O_2  and  C_3 
REMARK    2  A    between atoms: C_7  and  C_8 
REMARK    3  A    between atoms: C_8  and  C_9 
REMARK    4  A    between atoms: C_9  and  N_10 
REMARK       I    between atoms: N_10  and  C_11 
REMARK    5  A    between atoms: C_11  and  C_13 
REMARK    6  A    between atoms: C_13  and  S_14 
REMARK    7  A    between atoms: C_15  and  S_14 
REMARK    8  A    between atoms: N_19  and  C_20 
ROOT
ATOM      1  N   UNL d   1      27.008 -13.814   1.160  0.00  0.00    -0.360 N 
ATOM      2  C   UNL d   1      27.952 -13.628   2.158  0.00  0.00     0.227 C 
ATOM      3  O   UNL d   1      29.118 -14.014   2.008  0.00  0.00    -0.273 OA
ATOM      4  H   UNL d   1      26.049 -13.505   1.246  0.00  0.00     0.162 HD
ENDROOT
BRANCH   2   5
ATOM      5  C   UNL d   1      27.457 -12.949   3.451  0.00  0.00     0.180 C 
BRANCH   5   6
ATOM      6  S   UNL d   1      27.498 -14.179   4.828  0.00  0.00    -0.116 SA
BRANCH   6   7
ATOM      7  C   UNL d   1      29.073 -13.851   5.744  0.00  0.00     0.267 C 
ATOM      8  N   UNL d   1      29.902 -15.077   5.656  0.00  0.00    -0.105 NA
ATOM      9  N   UNL d   1      30.605 -14.898   4.375  0.00  0.00     0.072 N 
ATOM     10  H   UNL d   1      29.298 -15.898   5.685  0.00  0.00     0.158 HD
ATOM     11  N   UNL d   1      30.794 -13.475   4.194  0.00  0.00    -0.042 NA
ATOM     12  H   UNL d   1      30.021 -15.264   3.594  0.00  0.00     0.325 HD
ATOM     13  H   UNL d   1      31.512 -15.400   4.354  0.00  0.00     0.325 HD
ATOM     14  N   UNL d   1      29.776 -12.852   4.939  0.00  0.00    -0.259 N 
ATOM     15  H   UNL d   1      30.750 -13.179   3.207  0.00  0.00     0.181 HD
BRANCH  14  16
ATOM     16  C   UNL d   1      29.735 -11.468   5.097  0.00  0.00     0.050 A 
ATOM     17  C   UNL d   1      28.792 -10.807   5.895  0.00  0.00     0.031 A 
ATOM     18  C   UNL d   1      28.763  -9.404   5.985  0.00  0.00     0.003 A 
ATOM     19  C   UNL d   1      29.664  -8.629   5.258  0.00  0.00     0.007 A 
ATOM     20  C   UNL d   1      30.618  -9.249   4.453  0.00  0.00    -0.060 A 
ATOM     21  C   UNL d   1      31.562  -8.418   3.629  0.00  0.00     0.048 C 
ATOM     22  C   UNL d   1      30.658 -10.658   4.399  0.00  0.00     0.037 A 
ENDBRANCH  14  16
ENDBRANCH   6   7
ENDBRANCH   5   6
ENDBRANCH   2   5
BRANCH   1  23
ATOM     23  C   UNL d   1      27.436 -14.449  -0.074  0.00  0.00     0.127 C 
BRANCH  23  24
ATOM     24  C   UNL d   1      26.362 -15.038  -0.988  0.00  0.00     0.060 C 
BRANCH  24  25
ATOM     25  C   UNL d   1      25.962 -16.452  -0.628  0.00  0.00    -0.029 A 
ATOM     26  C   UNL d   1      24.644 -17.031  -0.617  0.00  0.00    -0.002 A 
ATOM     27  C   UNL d   1      23.351 -16.546  -0.902  0.00  0.00     0.017 A 
ATOM     28  C   UNL d   1      24.757 -18.369  -0.234  0.00  0.00     0.045 A 
ATOM     29  C   UNL d   1      22.242 -17.377  -0.857  0.00  0.00     0.038 A 
ATOM     30  C   UNL d   1      22.383 -18.710  -0.514  0.00  0.00     0.070 A 
ATOM     31  C   UNL d   1      23.639 -19.223  -0.149  0.00  0.00     0.067 A 
ATOM     32  N   UNL d   1      26.094 -18.601   0.004  0.00  0.00    -0.365 N 
ATOM     33  C   UNL d   1      26.828 -17.471  -0.266  0.00  0.00     0.096 A 
ATOM     34  H   UNL d   1      26.480 -19.486   0.304  0.00  0.00     0.165 HD
BRANCH  30  35
ATOM     35  O   UNL d   1      21.310 -19.560  -0.454  0.00  0.00    -0.356 OA
ATOM     36  C   UNL d   1      20.082 -18.972  -0.894  0.00  0.00     0.210 C 
ENDBRANCH  30  35
ENDBRANCH  24  25
ENDBRANCH  23  24
ENDBRANCH   1  23
TORSDOF 8
ENDMDL
MODEL 7
REMARK VINA RESULT:    -8.502      5.395      7.851
REMARK INTER + INTRA:         -13.957
REMARK INTER:                 -10.888
REMARK INTRA:                  -3.068
REMARK CONF_INDEPENDENT:        2.386
REMARK UNBOUND:                -3.068
REMARK  8 active torsions:
REMARK  status: ('A' for Active; 'I' for Inactive)
REMARK    1  A    between atoms: O_2  and  C_3 
REMARK    2  A    between atoms: C_7  and  C_8 
REMARK    3  A    between atoms: C_8  and  C_9 
REMARK    4  A    between atoms: C_9  and  N_10 
REMARK       I    between atoms: N_10  and  C_11 
REMARK    5  A    between atoms: C_11  and  C_13 
REMARK    6  A    between atoms: C_13  and  S_14 
REMARK    7  A    between atoms: C_15  and  S_14 
REMARK    8  A    between atoms: N_19  and  C_20 
ROOT
ATOM      1  N   UNL d   1      28.602 -14.028  -0.625  0.00  0.00    -0.360 N 
ATOM      2  C   UNL d   1      29.716 -14.829  -0.428  0.00  0.00     0.227 C 
ATOM      3  O   UNL d   1      29.695 -15.755   0.392  0.00  0.00    -0.273 OA
ATOM      4  H   UNL d   1      28.581 -13.269  -1.292  0.00  0.00     0.162 HD
ENDROOT
BRANCH   2   5
ATOM      5  C   UNL d   1      30.966 -14.480  -1.262  0.00  0.00     0.180 C 
BRANCH   5   6
ATOM      6  S   UNL d   1      32.317 -15.665  -0.839  0.00  0.00    -0.116 SA
BRANCH   6   7
ATOM      7  C   UNL d   1      31.881 -17.247  -1.697  0.00  0.00     0.267 C 
ATOM      8  N   UNL d   1      31.837 -18.314  -0.670  0.00  0.00    -0.105 NA
ATOM      9  N   UNL d   1      30.462 -18.208  -0.155  0.00  0.00     0.072 N 
ATOM     10  H   UNL d   1      32.557 -18.138   0.032  0.00  0.00     0.158 HD
ATOM     11  N   UNL d   1      29.635 -17.762  -1.255  0.00  0.00    -0.042 NA
ATOM     12  H   UNL d   1      30.421 -17.501   0.609  0.00  0.00     0.325 HD
ATOM     13  H   UNL d   1      30.119 -19.109   0.228  0.00  0.00     0.325 HD
ATOM     14  N   UNL d   1      30.494 -17.071  -2.129  0.00  0.00    -0.259 N 
ATOM     15  H   UNL d   1      28.857 -17.153  -0.959  0.00  0.00     0.181 HD
BRANCH  14  16
ATOM     16  C   UNL d   1      30.053 -16.613  -3.369  0.00  0.00     0.050 A 
ATOM     17  C   UNL d   1      30.722 -16.872  -4.573  0.00  0.00     0.031 A 
ATOM     18  C   UNL d   1      30.261 -16.349  -5.794  0.00  0.00     0.003 A 
ATOM     19  C   UNL d   1      29.132 -15.534  -5.834  0.00  0.00     0.007 A 
ATOM     20  C   UNL d   1      28.439 -15.253  -4.658  0.00  0.00    -0.060 A 
ATOM     21  C   UNL d   1      27.247 -14.336  -4.687  0.00  0.00     0.048 C 
ATOM     22  C   UNL d   1      28.892 -15.813  -3.445  0.00  0.00     0.037 A 
ENDBRANCH  14  16
ENDBRANCH   6   7
ENDBRANCH   5   6
ENDBRANCH   2   5
BRANCH   1  23
ATOM     23  C   UNL d   1      27.404 -14.327   0.140  0.00  0.00     0.127 C 
BRANCH  23  24
ATOM     24  C   UNL d   1      26.146 -14.732  -0.628  0.00  0.00     0.060 C 
BRANCH  24  25
ATOM     25  C   UNL d   1      25.799 -16.200  -0.504  0.00  0.00    -0.029 A 
ATOM     26  C   UNL d   1      24.503 -16.821  -0.592  0.00  0.00    -0.002 A 
ATOM     27  C   UNL d   1      23.193 -16.344  -0.801  0.00  0.00     0.017 A 
ATOM     28  C   UNL d   1      24.666 -18.198  -0.430  0.00  0.00     0.045 A 
ATOM     29  C   UNL d   1      22.115 -17.212  -0.896  0.00  0.00     0.038 A 
ATOM     30  C   UNL d   1      22.306 -18.577  -0.772  0.00  0.00     0.070 A 
ATOM     31  C   UNL d   1      23.581 -19.095  -0.490  0.00  0.00     0.067 A 
ATOM     32  N   UNL d   1      26.012 -18.416  -0.227  0.00  0.00    -0.365 N 
ATOM     33  C   UNL d   1      26.703 -17.231  -0.307  0.00  0.00     0.096 A 
ATOM     34  H   UNL d   1      26.431 -19.323  -0.072  0.00  0.00     0.165 HD
BRANCH  30  35
ATOM     35  O   UNL d   1      21.266 -19.464  -0.856  0.00  0.00    -0.356 OA
ATOM     36  C   UNL d   1      20.365 -19.404   0.253  0.00  0.00     0.210 C 
ENDBRANCH  30  35
ENDBRANCH  24  25
ENDBRANCH  23  24
ENDBRANCH   1  23
TORSDOF 8
ENDMDL
MODEL 8
REMARK VINA RESULT:    -7.872      6.986      9.492
REMARK INTER + INTRA:         -13.787
REMARK INTER:                 -10.259
REMARK INTRA:                  -3.528
REMARK CONF_INDEPENDENT:        2.386
REMARK UNBOUND:                -3.528
REMARK  8 active torsions:
REMARK  status: ('A' for Active; 'I' for Inactive)
REMARK    1  A    between atoms: O_2  and  C_3 
REMARK    2  A    between atoms: C_7  and  C_8 
REMARK    3  A    between atoms: C_8  and  C_9 
REMARK    4  A    between atoms: C_9  and  N_10 
REMARK       I    between atoms: N_10  and  C_11 
REMARK    5  A    between atoms: C_11  and  C_13 
REMARK    6  A    between atoms: C_13  and  S_14 
REMARK    7  A    between atoms: C_15  and  S_14 
REMARK    8  A    between atoms: N_19  and  C_20 
ROOT
ATOM      1  N   UNL d   1      29.116 -14.634  -5.721  0.00  0.00    -0.360 N 
ATOM      2  C   UNL d   1      27.951 -15.051  -5.096  0.00  0.00     0.227 C 
ATOM      3  O   UNL d   1      26.904 -15.198  -5.738  0.00  0.00    -0.273 OA
ATOM      4  H   UNL d   1      29.991 -14.511  -5.230  0.00  0.00     0.162 HD
ENDROOT
BRANCH   2   5
ATOM      5  C   UNL d   1      28.038 -15.286  -3.574  0.00  0.00     0.180 C 
BRANCH   5   6
ATOM      6  S   UNL d   1      27.805 -13.673  -2.705  0.00  0.00    -0.116 SA
BRANCH   6   7
ATOM      7  C   UNL d   1      25.988 -13.542  -2.372  0.00  0.00     0.267 C 
ATOM      8  N   UNL d   1      25.415 -12.628  -3.387  0.00  0.00    -0.105 NA
ATOM      9  N   UNL d   1      25.147 -13.531  -4.518  0.00  0.00     0.072 N 
ATOM     10  H   UNL d   1      26.087 -11.889  -3.597  0.00  0.00     0.158 HD
ATOM     11  N   UNL d   1      24.827 -14.825  -3.957  0.00  0.00    -0.042 NA
ATOM     12  H   UNL d   1      25.998 -13.621  -5.113  0.00  0.00     0.325 HD
ATOM     13  H   UNL d   1      24.376 -13.185  -5.120  0.00  0.00     0.325 HD
ATOM     14  N   UNL d   1      25.450 -14.863  -2.695  0.00  0.00    -0.259 N 
ATOM     15  H   UNL d   1      25.146 -15.614  -4.540  0.00  0.00     0.181 HD
BRANCH  14  16
ATOM     16  C   UNL d   1      25.242 -15.923  -1.815  0.00  0.00     0.050 A 
ATOM     17  C   UNL d   1      26.271 -16.545  -1.095  0.00  0.00     0.031 A 
ATOM     18  C   UNL d   1      26.015 -17.642  -0.253  0.00  0.00     0.003 A 
ATOM     19  C   UNL d   1      24.727 -18.157  -0.131  0.00  0.00     0.007 A 
ATOM     20  C   UNL d   1      23.677 -17.566  -0.830  0.00  0.00    -0.060 A 
ATOM     21  C   UNL d   1      22.292 -18.145  -0.741  0.00  0.00     0.048 C 
ATOM     22  C   UNL d   1      23.941 -16.444  -1.644  0.00  0.00     0.037 A 
ENDBRANCH  14  16
ENDBRANCH   6   7
ENDBRANCH   5   6
ENDBRANCH   2   5
BRANCH   1  23
ATOM     23  C   UNL d   1      29.075 -14.405  -7.155  0.00  0.00     0.127 C 
BRANCH  23  24
ATOM     24  C   UNL d   1      28.803 -12.983  -7.646  0.00  0.00     0.060 C 
BRANCH  24  25
ATOM     25  C   UNL d   1      28.627 -11.974  -6.532  0.00  0.00    -0.029 A 
ATOM     26  C   UNL d   1      27.461 -11.192  -6.213  0.00  0.00    -0.002 A 
ATOM     27  C   UNL d   1      26.170 -11.076  -6.765  0.00  0.00     0.017 A 
ATOM     28  C   UNL d   1      27.754 -10.408  -5.095  0.00  0.00     0.045 A 
ATOM     29  C   UNL d   1      25.210 -10.255  -6.192  0.00  0.00     0.038 A 
ATOM     30  C   UNL d   1      25.510  -9.517  -5.060  0.00  0.00     0.070 A 
ATOM     31  C   UNL d   1      26.804  -9.542  -4.516  0.00  0.00     0.067 A 
ATOM     32  N   UNL d   1      29.061 -10.680  -4.752  0.00  0.00    -0.365 N 
ATOM     33  C   UNL d   1      29.580 -11.644  -5.582  0.00  0.00     0.096 A 
ATOM     34  H   UNL d   1      29.554 -10.252  -3.979  0.00  0.00     0.165 HD
BRANCH  30  35
ATOM     35  O   UNL d   1      24.590  -8.693  -4.469  0.00  0.00    -0.356 OA
ATOM     36  C   UNL d   1      23.704  -8.056  -5.394  0.00  0.00     0.210 C 
ENDBRANCH  30  35
ENDBRANCH  24  25
ENDBRANCH  23  24
ENDBRANCH   1  23
TORSDOF 8
ENDMDL
MODEL 9
REMARK VINA RESULT:    -7.798      6.875      9.417
REMARK INTER + INTRA:         -13.820
REMARK INTER:                 -10.185
REMARK INTRA:                  -3.635
REMARK CONF_INDEPENDENT:        2.386
REMARK UNBOUND:                -3.635
REMARK  8 active torsions:
REMARK  status: ('A' for Active; 'I' for Inactive)
REMARK    1  A    between atoms: O_2  and  C_3 
REMARK    2  A    between atoms: C_7  and  C_8 
REMARK    3  A    between atoms: C_8  and  C_9 
REMARK    4  A    between atoms: C_9  and  N_10 
REMARK       I    between atoms: N_10  and  C_11 
REMARK    5  A    between atoms: C_11  and  C_13 
REMARK    6  A    between atoms: C_13  and  S_14 
REMARK    7  A    between atoms: C_15  and  S_14 
REMARK    8  A    between atoms: N_19  and  C_20 
ROOT
ATOM      1  N   UNL d   1      28.681 -13.863  -5.614  0.00  0.00    -0.360 N 
ATOM      2  C   UNL d   1      27.796 -14.785  -5.075  0.00  0.00     0.227 C 
ATOM      3  O   UNL d   1      26.891 -15.273  -5.763  0.00  0.00    -0.273 OA
ATOM      4  H   UNL d   1      29.436 -13.450  -5.084  0.00  0.00     0.162 HD
ENDROOT
BRANCH   2   5
ATOM      5  C   UNL d   1      27.994 -15.132  -3.585  0.00  0.00     0.180 C 
BRANCH   5   6
ATOM      6  S   UNL d   1      27.715 -13.613  -2.574  0.00  0.00    -0.116 SA
BRANCH   6   7
ATOM      7  C   UNL d   1      25.891 -13.548  -2.261  0.00  0.00     0.267 C 
ATOM      8  N   UNL d   1      25.300 -12.626  -3.259  0.00  0.00    -0.105 NA
ATOM      9  N   UNL d   1      25.075 -13.507  -4.416  0.00  0.00     0.072 N 
ATOM     10  H   UNL d   1      25.951 -11.861  -3.441  0.00  0.00     0.158 HD
ATOM     11  N   UNL d   1      24.790 -14.825  -3.893  0.00  0.00    -0.042 NA
ATOM     12  H   UNL d   1      25.935 -13.554  -5.002  0.00  0.00     0.325 HD
ATOM     13  H   UNL d   1      24.301 -13.170  -5.019  0.00  0.00     0.325 HD
ATOM     14  N   UNL d   1      25.399 -14.877  -2.625  0.00  0.00    -0.259 N 
ATOM     15  H   UNL d   1      25.141 -15.588  -4.492  0.00  0.00     0.181 HD
BRANCH  14  16
ATOM     16  C   UNL d   1      25.214 -15.966  -1.775  0.00  0.00     0.050 A 
ATOM     17  C   UNL d   1      26.264 -16.622  -1.119  0.00  0.00     0.031 A 
ATOM     18  C   UNL d   1      26.030 -17.746  -0.307  0.00  0.00     0.003 A 
ATOM     19  C   UNL d   1      24.743 -18.254  -0.153  0.00  0.00     0.007 A 
ATOM     20  C   UNL d   1      23.672 -17.629  -0.789  0.00  0.00    -0.060 A 
ATOM     21  C   UNL d   1      22.286 -18.199  -0.666  0.00  0.00     0.048 C 
ATOM     22  C   UNL d   1      23.916 -16.481  -1.573  0.00  0.00     0.037 A 
ENDBRANCH  14  16
ENDBRANCH   6   7
ENDBRANCH   5   6
ENDBRANCH   2   5
BRANCH   1  23
ATOM     23  C   UNL d   1      28.529 -13.512  -7.015  0.00  0.00     0.127 C 
BRANCH  23  24
ATOM     24  C   UNL d   1      28.403 -12.031  -7.373  0.00  0.00     0.060 C 
BRANCH  24  25
ATOM     25  C   UNL d   1      27.238 -11.337  -6.701  0.00  0.00    -0.029 A 
ATOM     26  C   UNL d   1      27.172 -10.791  -5.371  0.00  0.00    -0.002 A 
ATOM     27  C   UNL d   1      28.075 -10.709  -4.292  0.00  0.00     0.017 A 
ATOM     28  C   UNL d   1      25.904 -10.235  -5.189  0.00  0.00     0.045 A 
ATOM     29  C   UNL d   1      27.739 -10.055  -3.116  0.00  0.00     0.038 A 
ATOM     30  C   UNL d   1      26.490  -9.476  -2.973  0.00  0.00     0.070 A 
ATOM     31  C   UNL d   1      25.529  -9.595  -3.991  0.00  0.00     0.067 A 
ATOM     32  N   UNL d   1      25.206 -10.450  -6.358  0.00  0.00    -0.365 N 
ATOM     33  C   UNL d   1      26.008 -11.075  -7.282  0.00  0.00     0.096 A 
ATOM     34  H   UNL d   1      24.250 -10.160  -6.519  0.00  0.00     0.165 HD
BRANCH  30  35
ATOM     35  O   UNL d   1      26.121  -8.826  -1.825  0.00  0.00    -0.356 OA
ATOM     36  C   UNL d   1      27.142  -7.985  -1.283  0.00  0.00     0.210 C 
ENDBRANCH  30  35
ENDBRANCH  24  25
ENDBRANCH  23  24
ENDBRANCH   1  23
TORSDOF 8
ENDMDL
