MODEL 1
REMARK VINA RESULT:    -7.989      0.000      0.000
REMARK INTER + INTRA:         -11.724
REMARK INTER:                 -10.972
REMARK INTRA:                  -0.752
REMARK CONF_INDEPENDENT:        2.983
REMARK UNBOUND:                -0.752
REMARK  10 active torsions:
REMARK  status: ('A' for Active; 'I' for Inactive)
REMARK    1  A    between atoms: C_2  and  C_3 
REMARK       I    between atoms: C_2  and  N_16 
REMARK    2  A    between atoms: C_3  and  C_4 
REMARK    3  A    between atoms: C_4  and  C_5 
REMARK    4  A    between atoms: C_5  and  N_6 
REMARK    5  A    between atoms: N_6  and  C_7 
REMARK    6  A    between atoms: C_10  and  N_11 
REMARK    7  A    between atoms: N_16  and  C_17 
REMARK    8  A    between atoms: C_17  and  C_18 
REMARK    9  A    between atoms: C_18  and  C_19 
REMARK   10  A    between atoms: N_24  and  C_25 
ROOT
ATOM      1  O   UNL d   1      26.251 -15.608  -5.812  0.00  0.00    -0.274 OA
ATOM      2  C   UNL d   1      26.245 -15.004  -4.736  0.00  0.00     0.217 C 
ATOM      3  N   UNL d   1      25.412 -13.932  -4.581  0.00  0.00    -0.361 N 
ATOM      4  H   UNL d   1      24.864 -13.728  -5.409  0.00  0.00     0.162 HD
ENDROOT
BRANCH   2   5
ATOM      5  C   UNL d   1      27.127 -15.395  -3.567  0.00  0.00     0.104 C 
BRANCH   5   6
ATOM      6  C   UNL d   1      26.311 -15.663  -2.297  0.00  0.00     0.029 C 
BRANCH   6   7
ATOM      7  C   UNL d   1      27.144 -16.425  -1.275  0.00  0.00     0.120 C 
BRANCH   7   8
ATOM      8  N   UNL d   1      26.347 -16.838  -0.129  0.00  0.00    -0.390 N 
ATOM      9  H   UNL d   1      26.819 -17.136   0.721  0.00  0.00     0.159 HD
BRANCH   8  10
ATOM     10  C   UNL d   1      25.029 -17.233  -0.301  0.00  0.00     0.028 A 
ATOM     11  C   UNL d   1      24.037 -16.270  -0.534  0.00  0.00     0.031 A 
ATOM     12  C   UNL d   1      22.706 -16.642  -0.777  0.00  0.00     0.038 A 
ATOM     13  C   UNL d   1      22.372 -18.000  -0.834  0.00  0.00     0.103 A 
ATOM     14  C   UNL d   1      23.334 -18.972  -0.564  0.00  0.00     0.038 A 
ATOM     15  C   UNL d   1      24.647 -18.581  -0.294  0.00  0.00     0.031 A 
BRANCH  13  16
ATOM     16  N   UNL d   1      21.026 -18.415  -1.248  0.00  0.00    -0.116 N 
ATOM     17  O   UNL d   1      20.141 -17.549  -1.292  0.00  0.00    -0.532 OA
ATOM     18  O   UNL d   1      20.860 -19.606  -1.555  0.00  0.00    -0.532 OA
ENDBRANCH  13  16
ENDBRANCH   8  10
ENDBRANCH   7   8
ENDBRANCH   6   7
ENDBRANCH   5   6
ENDBRANCH   2   5
BRANCH   3  19
ATOM     19  C   UNL d   1      25.249 -13.122  -3.384  0.00  0.00     0.130 C 
BRANCH  19  20
ATOM     20  C   UNL d   1      26.336 -12.062  -3.231  0.00  0.00     0.100 C 
BRANCH  20  21
ATOM     21  C   UNL d   1      25.792 -10.728  -3.665  0.00  0.00     0.130 A 
ATOM     22  N   UNL d   1      25.472  -9.822  -2.780  0.00  0.00    -0.159 NA
ATOM     23  N   UNL d   1      25.031  -8.769  -3.520  0.00  0.00    -0.251 N 
ATOM     24  C   UNL d   1      25.094  -9.068  -4.873  0.00  0.00     0.196 A 
ATOM     25  H   UNL d   1      24.685  -7.912  -3.101  0.00  0.00     0.191 HD
ATOM     26  S   UNL d   1      24.596  -8.021  -6.060  0.00  0.00    -0.039 SA
ATOM     27  N   UNL d   1      25.627 -10.347  -4.957  0.00  0.00    -0.304 N 
BRANCH  27  28
ATOM     28  C   UNL d   1      25.868 -11.065  -6.179  0.00  0.00     0.094 A 
ATOM     29  C   UNL d   1      26.684 -10.589  -7.350  0.00  0.00     0.028 A 
ATOM     30  C   UNL d   1      27.226 -11.665  -6.446  0.00  0.00     0.028 A 
ENDBRANCH  27  28
ENDBRANCH  20  21
ENDBRANCH  19  20
ENDBRANCH   3  19
TORSDOF 10
ENDMDL
MODEL 2
REMARK VINA RESULT:    -7.612      2.817      3.846
REMARK INTER + INTRA:         -11.615
REMARK INTER:                 -10.595
REMARK INTRA:                  -1.020
REMARK CONF_INDEPENDENT:        2.983
REMARK UNBOUND:                -1.020
REMARK  10 active torsions:
REMARK  status: ('A' for Active; 'I' for Inactive)
REMARK    1  A    between atoms: C_2  and  C_3 
REMARK       I    between atoms: C_2  and  N_16 
REMARK    2  A    between atoms: C_3  and  C_4 
REMARK    3  A    between atoms: C_4  and  C_5 
REMARK    4  A    between atoms: C_5  and  N_6 
REMARK    5  A    between atoms: N_6  and  C_7 
REMARK    6  A    between atoms: C_10  and  N_11 
REMARK    7  A    between atoms: N_16  and  C_17 
REMARK    8  A    between atoms: C_17  and  C_18 
REMARK    9  A    between atoms: C_18  and  C_19 
REMARK   10  A    between atoms: N_24  and  C_25 
ROOT
ATOM      1  O   UNL d   1      23.728 -14.378  -2.987  0.00  0.00    -0.274 OA
ATOM      2  C   UNL d   1      24.911 -14.075  -3.157  0.00  0.00     0.217 C 
ATOM      3  N   UNL d   1      25.221 -13.076  -4.038  0.00  0.00    -0.361 N 
ATOM      4  H   UNL d   1      24.407 -12.673  -4.489  0.00  0.00     0.162 HD
ENDROOT
BRANCH   2   5
ATOM      5  C   UNL d   1      26.051 -14.763  -2.433  0.00  0.00     0.104 C 
BRANCH   5   6
ATOM      6  C   UNL d   1      25.917 -16.289  -2.470  0.00  0.00     0.029 C 
BRANCH   6   7
ATOM      7  C   UNL d   1      26.628 -16.920  -1.280  0.00  0.00     0.120 C 
BRANCH   7   8
ATOM      8  N   UNL d   1      25.751 -17.034  -0.125  0.00  0.00    -0.390 N 
ATOM      9  H   UNL d   1      26.160 -17.111   0.802  0.00  0.00     0.159 HD
BRANCH   8  10
ATOM     10  C   UNL d   1      24.440 -17.459  -0.283  0.00  0.00     0.028 A 
ATOM     11  C   UNL d   1      23.444 -16.535  -0.629  0.00  0.00     0.031 A 
ATOM     12  C   UNL d   1      22.122 -16.945  -0.859  0.00  0.00     0.038 A 
ATOM     13  C   UNL d   1      21.803 -18.305  -0.788  0.00  0.00     0.103 A 
ATOM     14  C   UNL d   1      22.768 -19.235  -0.405  0.00  0.00     0.038 A 
ATOM     15  C   UNL d   1      24.071 -18.804  -0.150  0.00  0.00     0.031 A 
BRANCH  13  16
ATOM     16  N   UNL d   1      20.469 -18.775  -1.185  0.00  0.00    -0.116 N 
ATOM     17  O   UNL d   1      19.485 -18.215  -0.682  0.00  0.00    -0.532 OA
ATOM     18  O   UNL d   1      20.406 -19.689  -2.022  0.00  0.00    -0.532 OA
ENDBRANCH  13  16
ENDBRANCH   8  10
ENDBRANCH   7   8
ENDBRANCH   6   7
ENDBRANCH   5   6
ENDBRANCH   2   5
BRANCH   3  19
ATOM     19  C   UNL d   1      26.547 -12.566  -4.345  0.00  0.00     0.130 C 
BRANCH  19  20
ATOM     20  C   UNL d   1      26.963 -12.822  -5.791  0.00  0.00     0.100 C 
BRANCH  20  21
ATOM     21  C   UNL d   1      27.854 -14.033  -5.843  0.00  0.00     0.130 A 
ATOM     22  N   UNL d   1      27.610 -15.070  -5.087  0.00  0.00    -0.159 NA
ATOM     23  N   UNL d   1      28.596 -15.954  -5.399  0.00  0.00    -0.251 N 
ATOM     24  C   UNL d   1      29.440 -15.419  -6.360  0.00  0.00     0.196 A 
ATOM     25  H   UNL d   1      28.684 -16.858  -4.945  0.00  0.00     0.191 HD
ATOM     26  S   UNL d   1      30.774 -16.214  -6.944  0.00  0.00    -0.039 SA
ATOM     27  N   UNL d   1      28.923 -14.168  -6.668  0.00  0.00    -0.304 N 
BRANCH  27  28
ATOM     28  C   UNL d   1      29.486 -13.251  -7.622  0.00  0.00     0.094 A 
ATOM     29  C   UNL d   1      28.972 -11.875  -7.949  0.00  0.00     0.028 A 
ATOM     30  C   UNL d   1      30.237 -12.033  -7.145  0.00  0.00     0.028 A 
ENDBRANCH  27  28
ENDBRANCH  20  21
ENDBRANCH  19  20
ENDBRANCH   3  19
TORSDOF 10
ENDMDL
MODEL 3
REMARK VINA RESULT:    -7.432      1.711      2.620
REMARK INTER + INTRA:         -11.515
REMARK INTER:                 -10.415
REMARK INTRA:                  -1.100
REMARK CONF_INDEPENDENT:        2.983
REMARK UNBOUND:                -1.100
REMARK  10 active torsions:
REMARK  status: ('A' for Active; 'I' for Inactive)
REMARK    1  A    between atoms: C_2  and  C_3 
REMARK       I    between atoms: C_2  and  N_16 
REMARK    2  A    between atoms: C_3  and  C_4 
REMARK    3  A    between atoms: C_4  and  C_5 
REMARK    4  A    between atoms: C_5  and  N_6 
REMARK    5  A    between atoms: N_6  and  C_7 
REMARK    6  A    between atoms: C_10  and  N_11 
REMARK    7  A    between atoms: N_16  and  C_17 
REMARK    8  A    between atoms: C_17  and  C_18 
REMARK    9  A    between atoms: C_18  and  C_19 
REMARK   10  A    between atoms: N_24  and  C_25 
ROOT
ATOM      1  O   UNL d   1      26.184 -15.834  -5.416  0.00  0.00    -0.274 OA
ATOM      2  C   UNL d   1      26.318 -14.884  -4.640  0.00  0.00     0.217 C 
ATOM      3  N   UNL d   1      25.385 -13.885  -4.645  0.00  0.00    -0.361 N 
ATOM      4  H   UNL d   1      24.647 -14.030  -5.325  0.00  0.00     0.162 HD
ENDROOT
BRANCH   2   5
ATOM      5  C   UNL d   1      27.479 -14.768  -3.673  0.00  0.00     0.104 C 
BRANCH   5   6
ATOM      6  C   UNL d   1      27.376 -15.782  -2.528  0.00  0.00     0.029 C 
BRANCH   6   7
ATOM      7  C   UNL d   1      26.094 -15.566  -1.733  0.00  0.00     0.120 C 
BRANCH   7   8
ATOM      8  N   UNL d   1      25.785 -16.706  -0.884  0.00  0.00    -0.390 N 
ATOM      9  H   UNL d   1      26.538 -17.322  -0.589  0.00  0.00     0.159 HD
BRANCH   8  10
ATOM     10  C   UNL d   1      24.491 -17.202  -0.825  0.00  0.00     0.028 A 
ATOM     11  C   UNL d   1      23.402 -16.321  -0.887  0.00  0.00     0.031 A 
ATOM     12  C   UNL d   1      22.083 -16.797  -0.895  0.00  0.00     0.038 A 
ATOM     13  C   UNL d   1      21.851 -18.177  -0.888  0.00  0.00     0.103 A 
ATOM     14  C   UNL d   1      22.917 -19.069  -0.783  0.00  0.00     0.038 A 
ATOM     15  C   UNL d   1      24.222 -18.575  -0.746  0.00  0.00     0.031 A 
BRANCH  13  16
ATOM     16  N   UNL d   1      20.489 -18.700  -1.062  0.00  0.00    -0.116 N 
ATOM     17  O   UNL d   1      20.362 -19.901  -1.338  0.00  0.00    -0.532 OA
ATOM     18  O   UNL d   1      19.544 -17.914  -0.894  0.00  0.00    -0.532 OA
ENDBRANCH  13  16
ENDBRANCH   8  10
ENDBRANCH   7   8
ENDBRANCH   6   7
ENDBRANCH   5   6
ENDBRANCH   2   5
BRANCH   3  19
ATOM     19  C   UNL d   1      25.363 -12.710  -3.789  0.00  0.00     0.130 C 
BRANCH  19  20
ATOM     20  C   UNL d   1      26.213 -11.564  -4.329  0.00  0.00     0.100 C 
BRANCH  20  21
ATOM     21  C   UNL d   1      26.021 -10.352  -3.460  0.00  0.00     0.130 A 
ATOM     22  N   UNL d   1      25.160  -9.427  -3.791  0.00  0.00    -0.159 NA
ATOM     23  N   UNL d   1      25.252  -8.507  -2.792  0.00  0.00    -0.251 N 
ATOM     24  C   UNL d   1      26.192  -8.904  -1.854  0.00  0.00     0.196 A 
ATOM     25  H   UNL d   1      24.711  -7.649  -2.788  0.00  0.00     0.191 HD
ATOM     26  S   UNL d   1      26.586  -7.998  -0.521  0.00  0.00    -0.039 SA
ATOM     27  N   UNL d   1      26.668 -10.134  -2.287  0.00  0.00    -0.304 N 
BRANCH  27  28
ATOM     28  C   UNL d   1      27.668 -10.919  -1.614  0.00  0.00     0.094 A 
ATOM     29  C   UNL d   1      27.919 -10.966  -0.131  0.00  0.00     0.028 A 
ATOM     30  C   UNL d   1      27.264 -12.136  -0.819  0.00  0.00     0.028 A 
ENDBRANCH  27  28
ENDBRANCH  20  21
ENDBRANCH  19  20
ENDBRANCH   3  19
TORSDOF 10
ENDMDL
MODEL 4
REMARK VINA RESULT:    -7.297      1.576      2.177
REMARK INTER + INTRA:         -11.263
REMARK INTER:                 -10.280
REMARK INTRA:                  -0.984
REMARK CONF_INDEPENDENT:        2.983
REMARK UNBOUND:                -0.984
REMARK  10 active torsions:
REMARK  status: ('A' for Active; 'I' for Inactive)
REMARK    1  A    between atoms: C_2  and  C_3 
REMARK       I    between atoms: C_2  and  N_16 
REMARK    2  A    between atoms: C_3  and  C_4 
REMARK    3  A    between atoms: C_4  and  C_5 
REMARK    4  A    between atoms: C_5  and  N_6 
REMARK    5  A    between atoms: N_6  and  C_7 
REMARK    6  A    between atoms: C_10  and  N_11 
REMARK    7  A    between atoms: N_16  and  C_17 
REMARK    8  A    between atoms: C_17  and  C_18 
REMARK    9  A    between atoms: C_18  and  C_19 
REMARK   10  A    between atoms: N_24  and  C_25 
ROOT
ATOM      1  O   UNL d   1      23.796 -14.072  -3.821  0.00  0.00    -0.274 OA
ATOM      2  C   UNL d   1      24.985 -13.983  -4.135  0.00  0.00     0.217 C 
ATOM      3  N   UNL d   1      25.469 -12.781  -4.570  0.00  0.00    -0.361 N 
ATOM      4  H   UNL d   1      24.765 -12.052  -4.599  0.00  0.00     0.162 HD
ENDROOT
BRANCH   2   5
ATOM      5  C   UNL d   1      25.946 -15.154  -4.065  0.00  0.00     0.104 C 
BRANCH   5   6
ATOM      6  C   UNL d   1      25.561 -16.146  -2.962  0.00  0.00     0.029 C 
BRANCH   6   7
ATOM      7  C   UNL d   1      26.448 -15.959  -1.739  0.00  0.00     0.120 C 
BRANCH   7   8
ATOM      8  N   UNL d   1      25.844 -16.524  -0.541  0.00  0.00    -0.390 N 
ATOM      9  H   UNL d   1      26.439 -16.781   0.241  0.00  0.00     0.159 HD
BRANCH   8  10
ATOM     10  C   UNL d   1      24.582 -17.097  -0.601  0.00  0.00     0.028 A 
ATOM     11  C   UNL d   1      23.442 -16.283  -0.546  0.00  0.00     0.031 A 
ATOM     12  C   UNL d   1      22.155 -16.827  -0.669  0.00  0.00     0.038 A 
ATOM     13  C   UNL d   1      22.008 -18.200  -0.897  0.00  0.00     0.103 A 
ATOM     14  C   UNL d   1      23.126 -19.033  -0.913  0.00  0.00     0.038 A 
ATOM     15  C   UNL d   1      24.397 -18.477  -0.758  0.00  0.00     0.031 A 
BRANCH  13  16
ATOM     16  N   UNL d   1      20.685 -18.765  -1.193  0.00  0.00    -0.116 N 
ATOM     17  O   UNL d   1      20.623 -19.700  -2.003  0.00  0.00    -0.532 OA
ATOM     18  O   UNL d   1      19.709 -18.291  -0.592  0.00  0.00    -0.532 OA
ENDBRANCH  13  16
ENDBRANCH   8  10
ENDBRANCH   7   8
ENDBRANCH   6   7
ENDBRANCH   5   6
ENDBRANCH   2   5
BRANCH   3  19
ATOM     19  C   UNL d   1      26.840 -12.482  -4.955  0.00  0.00     0.130 C 
BRANCH  19  20
ATOM     20  C   UNL d   1      27.082 -10.992  -5.181  0.00  0.00     0.100 C 
BRANCH  20  21
ATOM     21  C   UNL d   1      26.850 -10.251  -3.893  0.00  0.00     0.130 A 
ATOM     22  N   UNL d   1      27.334 -10.706  -2.768  0.00  0.00    -0.159 NA
ATOM     23  N   UNL d   1      26.938  -9.795  -1.838  0.00  0.00    -0.251 N 
ATOM     24  C   UNL d   1      26.202  -8.783  -2.434  0.00  0.00     0.196 A 
ATOM     25  H   UNL d   1      27.148  -9.896  -0.850  0.00  0.00     0.191 HD
ATOM     26  S   UNL d   1      25.530  -7.526  -1.585  0.00  0.00    -0.039 SA
ATOM     27  N   UNL d   1      26.178  -9.076  -3.790  0.00  0.00    -0.304 N 
BRANCH  27  28
ATOM     28  C   UNL d   1      25.517  -8.289  -4.797  0.00  0.00     0.094 A 
ATOM     29  C   UNL d   1      25.005  -8.782  -6.123  0.00  0.00     0.028 A 
ATOM     30  C   UNL d   1      24.033  -8.444  -5.021  0.00  0.00     0.028 A 
ENDBRANCH  27  28
ENDBRANCH  20  21
ENDBRANCH  19  20
ENDBRANCH   3  19
TORSDOF 10
ENDMDL
MODEL 5
REMARK VINA RESULT:    -7.223      2.487      3.485
REMARK INTER + INTRA:         -11.822
REMARK INTER:                 -10.206
REMARK INTRA:                  -1.617
REMARK CONF_INDEPENDENT:        2.983
REMARK UNBOUND:                -1.617
REMARK  10 active torsions:
REMARK  status: ('A' for Active; 'I' for Inactive)
REMARK    1  A    between atoms: C_2  and  C_3 
REMARK       I    between atoms: C_2  and  N_16 
REMARK    2  A    between atoms: C_3  and  C_4 
REMARK    3  A    between atoms: C_4  and  C_5 
REMARK    4  A    between atoms: C_5  and  N_6 
REMARK    5  A    between atoms: N_6  and  C_7 
REMARK    6  A    between atoms: C_10  and  N_11 
REMARK    7  A    between atoms: N_16  and  C_17 
REMARK    8  A    between atoms: C_17  and  C_18 
REMARK    9  A    between atoms: C_18  and  C_19 
REMARK   10  A    between atoms: N_24  and  C_25 
ROOT
ATOM      1  O   UNL d   1      30.058 -16.350  -2.710  0.00  0.00    -0.274 OA
ATOM      2  C   UNL d   1      28.893 -16.081  -2.404  0.00  0.00     0.217 C 
ATOM      3  N   UNL d   1      27.988 -15.828  -3.396  0.00  0.00    -0.361 N 
ATOM      4  H   UNL d   1      28.387 -15.881  -4.326  0.00  0.00     0.162 HD
ENDROOT
BRANCH   2   5
ATOM      5  C   UNL d   1      28.413 -16.016  -0.968  0.00  0.00     0.104 C 
BRANCH   5   6
ATOM      6  C   UNL d   1      28.102 -17.407  -0.403  0.00  0.00     0.029 C 
BRANCH   6   7
ATOM      7  C   UNL d   1      26.713 -17.435   0.222  0.00  0.00     0.120 C 
BRANCH   7   8
ATOM      8  N   UNL d   1      25.704 -16.897  -0.678  0.00  0.00    -0.390 N 
ATOM      9  H   UNL d   1      25.841 -15.974  -1.081  0.00  0.00     0.159 HD
BRANCH   8  10
ATOM     10  C   UNL d   1      24.413 -17.403  -0.662  0.00  0.00     0.028 A 
ATOM     11  C   UNL d   1      23.323 -16.540  -0.843  0.00  0.00     0.031 A 
ATOM     12  C   UNL d   1      22.010 -17.031  -0.895  0.00  0.00     0.038 A 
ATOM     13  C   UNL d   1      21.788 -18.410  -0.813  0.00  0.00     0.103 A 
ATOM     14  C   UNL d   1      22.854 -19.281  -0.590  0.00  0.00     0.038 A 
ATOM     15  C   UNL d   1      24.150 -18.770  -0.510  0.00  0.00     0.031 A 
BRANCH  13  16
ATOM     16  N   UNL d   1      20.443 -18.959  -1.030  0.00  0.00    -0.116 N 
ATOM     17  O   UNL d   1      20.275 -19.711  -2.000  0.00  0.00    -0.532 OA
ATOM     18  O   UNL d   1      19.559 -18.658  -0.212  0.00  0.00    -0.532 OA
ENDBRANCH  13  16
ENDBRANCH   8  10
ENDBRANCH   7   8
ENDBRANCH   6   7
ENDBRANCH   5   6
ENDBRANCH   2   5
BRANCH   3  19
ATOM     19  C   UNL d   1      26.575 -15.524  -3.229  0.00  0.00     0.130 C 
BRANCH  19  20
ATOM     20  C   UNL d   1      25.911 -15.057  -4.520  0.00  0.00     0.100 C 
BRANCH  20  21
ATOM     21  C   UNL d   1      26.964 -14.538  -5.460  0.00  0.00     0.130 A 
ATOM     22  N   UNL d   1      27.722 -15.364  -6.131  0.00  0.00    -0.159 NA
ATOM     23  N   UNL d   1      28.535 -14.557  -6.864  0.00  0.00    -0.251 N 
ATOM     24  C   UNL d   1      28.247 -13.224  -6.614  0.00  0.00     0.196 A 
ATOM     25  H   UNL d   1      29.259 -14.920  -7.475  0.00  0.00     0.191 HD
ATOM     26  S   UNL d   1      29.076 -11.968  -7.312  0.00  0.00    -0.039 SA
ATOM     27  N   UNL d   1      27.191 -13.224  -5.713  0.00  0.00    -0.304 N 
BRANCH  27  28
ATOM     28  C   UNL d   1      26.565 -12.048  -5.171  0.00  0.00     0.094 A 
ATOM     29  C   UNL d   1      26.298 -11.768  -3.717  0.00  0.00     0.028 A 
ATOM     30  C   UNL d   1      27.393 -11.023  -4.436  0.00  0.00     0.028 A 
ENDBRANCH  27  28
ENDBRANCH  20  21
ENDBRANCH  19  20
ENDBRANCH   3  19
TORSDOF 10
ENDMDL
MODEL 6
REMARK VINA RESULT:    -6.907      4.935      6.833
REMARK INTER + INTRA:         -11.181
REMARK INTER:                  -9.890
REMARK INTRA:                  -1.291
REMARK CONF_INDEPENDENT:        2.983
REMARK UNBOUND:                -1.291
REMARK  10 active torsions:
REMARK  status: ('A' for Active; 'I' for Inactive)
REMARK    1  A    between atoms: C_2  and  C_3 
REMARK       I    between atoms: C_2  and  N_16 
REMARK    2  A    between atoms: C_3  and  C_4 
REMARK    3  A    between atoms: C_4  and  C_5 
REMARK    4  A    between atoms: C_5  and  N_6 
REMARK    5  A    between atoms: N_6  and  C_7 
REMARK    6  A    between atoms: C_10  and  N_11 
REMARK    7  A    between atoms: N_16  and  C_17 
REMARK    8  A    between atoms: C_17  and  C_18 
REMARK    9  A    between atoms: C_18  and  C_19 
REMARK   10  A    between atoms: N_24  and  C_25 
ROOT
ATOM      1  O   UNL d   1      26.969 -15.307  -5.703  0.00  0.00    -0.274 OA
ATOM      2  C   UNL d   1      27.796 -15.554  -4.821  0.00  0.00     0.217 C 
ATOM      3  N   UNL d   1      29.067 -15.905  -5.181  0.00  0.00    -0.361 N 
ATOM      4  H   UNL d   1      29.204 -15.937  -6.185  0.00  0.00     0.162 HD
ENDROOT
BRANCH   2   5
ATOM      5  C   UNL d   1      27.468 -15.488  -3.342  0.00  0.00     0.104 C 
BRANCH   5   6
ATOM      6  C   UNL d   1      26.015 -15.068  -3.095  0.00  0.00     0.029 C 
BRANCH   6   7
ATOM      7  C   UNL d   1      25.657 -15.214  -1.622  0.00  0.00     0.120 C 
BRANCH   7   8
ATOM      8  N   UNL d   1      25.643 -16.608  -1.205  0.00  0.00    -0.390 N 
ATOM      9  H   UNL d   1      26.449 -17.194  -1.408  0.00  0.00     0.159 HD
BRANCH   8  10
ATOM     10  C   UNL d   1      24.440 -17.245  -0.937  0.00  0.00     0.028 A 
ATOM     11  C   UNL d   1      23.233 -16.550  -1.095  0.00  0.00     0.031 A 
ATOM     12  C   UNL d   1      21.998 -17.185  -0.893  0.00  0.00     0.038 A 
ATOM     13  C   UNL d   1      21.971 -18.547  -0.575  0.00  0.00     0.103 A 
ATOM     14  C   UNL d   1      23.160 -19.247  -0.372  0.00  0.00     0.038 A 
ATOM     15  C   UNL d   1      24.379 -18.589  -0.547  0.00  0.00     0.031 A 
BRANCH  13  16
ATOM     16  N   UNL d   1      20.693 -19.271  -0.522  0.00  0.00    -0.116 N 
ATOM     17  O   UNL d   1      20.089 -19.298   0.559  0.00  0.00    -0.532 OA
ATOM     18  O   UNL d   1      20.281 -19.789  -1.571  0.00  0.00    -0.532 OA
ENDBRANCH  13  16
ENDBRANCH   8  10
ENDBRANCH   7   8
ENDBRANCH   6   7
ENDBRANCH   5   6
ENDBRANCH   2   5
BRANCH   3  19
ATOM     19  C   UNL d   1      30.175 -16.202  -4.287  0.00  0.00     0.130 C 
BRANCH  19  20
ATOM     20  C   UNL d   1      30.687 -17.632  -4.429  0.00  0.00     0.100 C 
BRANCH  20  21
ATOM     21  C   UNL d   1      30.864 -17.953  -5.888  0.00  0.00     0.130 A 
ATOM     22  N   UNL d   1      31.053 -16.998  -6.760  0.00  0.00    -0.159 NA
ATOM     23  N   UNL d   1      31.175 -17.647  -7.950  0.00  0.00    -0.251 N 
ATOM     24  C   UNL d   1      31.052 -19.016  -7.769  0.00  0.00     0.196 A 
ATOM     25  H   UNL d   1      31.307 -17.157  -8.828  0.00  0.00     0.191 HD
ATOM     26  S   UNL d   1      31.112 -20.107  -9.018  0.00  0.00    -0.039 SA
ATOM     27  N   UNL d   1      30.881 -19.208  -6.405  0.00  0.00    -0.304 N 
BRANCH  27  28
ATOM     28  C   UNL d   1      30.708 -20.483  -5.763  0.00  0.00     0.094 A 
ATOM     29  C   UNL d   1      31.596 -21.688  -5.916  0.00  0.00     0.028 A 
ATOM     30  C   UNL d   1      31.627 -20.891  -4.637  0.00  0.00     0.028 A 
ENDBRANCH  27  28
ENDBRANCH  20  21
ENDBRANCH  19  20
ENDBRANCH   3  19
TORSDOF 10
ENDMDL
MODEL 7
REMARK VINA RESULT:    -6.900      2.925      3.899
REMARK INTER + INTRA:         -11.164
REMARK INTER:                  -9.883
REMARK INTRA:                  -1.282
REMARK CONF_INDEPENDENT:        2.983
REMARK UNBOUND:                -1.282
REMARK  10 active torsions:
REMARK  status: ('A' for Active; 'I' for Inactive)
REMARK    1  A    between atoms: C_2  and  C_3 
REMARK       I    between atoms: C_2  and  N_16 
REMARK    2  A    between atoms: C_3  and  C_4 
REMARK    3  A    between atoms: C_4  and  C_5 
REMARK    4  A    between atoms: C_5  and  N_6 
REMARK    5  A    between atoms: N_6  and  C_7 
REMARK    6  A    between atoms: C_10  and  N_11 
REMARK    7  A    between atoms: N_16  and  C_17 
REMARK    8  A    between atoms: C_17  and  C_18 
REMARK    9  A    between atoms: C_18  and  C_19 
REMARK   10  A    between atoms: N_24  and  C_25 
ROOT
ATOM      1  O   UNL d   1      23.712 -14.072  -3.650  0.00  0.00    -0.274 OA
ATOM      2  C   UNL d   1      24.907 -14.010  -3.950  0.00  0.00     0.217 C 
ATOM      3  N   UNL d   1      25.449 -12.797  -4.271  0.00  0.00    -0.361 N 
ATOM      4  H   UNL d   1      24.780 -12.036  -4.235  0.00  0.00     0.162 HD
ENDROOT
BRANCH   2   5
ATOM      5  C   UNL d   1      25.812 -15.225  -3.984  0.00  0.00     0.104 C 
BRANCH   5   6
ATOM      6  C   UNL d   1      25.469 -16.227  -2.875  0.00  0.00     0.029 C 
BRANCH   6   7
ATOM      7  C   UNL d   1      26.184 -15.859  -1.581  0.00  0.00     0.120 C 
BRANCH   7   8
ATOM      8  N   UNL d   1      25.656 -16.597  -0.443  0.00  0.00    -0.390 N 
ATOM      9  H   UNL d   1      26.300 -16.963   0.252  0.00  0.00     0.159 HD
BRANCH   8  10
ATOM     10  C   UNL d   1      24.391 -17.164  -0.505  0.00  0.00     0.028 A 
ATOM     11  C   UNL d   1      23.275 -16.354  -0.759  0.00  0.00     0.031 A 
ATOM     12  C   UNL d   1      21.993 -16.906  -0.892  0.00  0.00     0.038 A 
ATOM     13  C   UNL d   1      21.831 -18.294  -0.817  0.00  0.00     0.103 A 
ATOM     14  C   UNL d   1      22.920 -19.114  -0.524  0.00  0.00     0.038 A 
ATOM     15  C   UNL d   1      24.184 -18.542  -0.364  0.00  0.00     0.031 A 
BRANCH  13  16
ATOM     16  N   UNL d   1      20.530 -18.906  -1.116  0.00  0.00    -0.116 N 
ATOM     17  O   UNL d   1      19.561 -18.575  -0.419  0.00  0.00    -0.532 OA
ATOM     18  O   UNL d   1      20.472 -19.700  -2.068  0.00  0.00    -0.532 OA
ENDBRANCH  13  16
ENDBRANCH   8  10
ENDBRANCH   7   8
ENDBRANCH   6   7
ENDBRANCH   5   6
ENDBRANCH   2   5
BRANCH   3  19
ATOM     19  C   UNL d   1      26.835 -12.528  -4.620  0.00  0.00     0.130 C 
BRANCH  19  20
ATOM     20  C   UNL d   1      27.718 -12.277  -3.401  0.00  0.00     0.100 C 
BRANCH  20  21
ATOM     21  C   UNL d   1      28.467 -13.537  -3.064  0.00  0.00     0.130 A 
ATOM     22  N   UNL d   1      28.544 -13.955  -1.829  0.00  0.00    -0.159 NA
ATOM     23  N   UNL d   1      29.276 -15.099  -1.904  0.00  0.00    -0.251 N 
ATOM     24  C   UNL d   1      29.639 -15.356  -3.217  0.00  0.00     0.196 A 
ATOM     25  H   UNL d   1      29.525 -15.643  -1.085  0.00  0.00     0.191 HD
ATOM     26  S   UNL d   1      30.571 -16.653  -3.666  0.00  0.00    -0.039 SA
ATOM     27  N   UNL d   1      29.074 -14.340  -3.975  0.00  0.00    -0.304 N 
BRANCH  27  28
ATOM     28  C   UNL d   1      29.196 -14.204  -5.402  0.00  0.00     0.094 A 
ATOM     29  C   UNL d   1      29.596 -15.284  -6.371  0.00  0.00     0.028 A 
ATOM     30  C   UNL d   1      28.163 -14.824  -6.310  0.00  0.00     0.028 A 
ENDBRANCH  27  28
ENDBRANCH  20  21
ENDBRANCH  19  20
ENDBRANCH   3  19
TORSDOF 10
ENDMDL
MODEL 8
REMARK VINA RESULT:    -6.763      4.661      7.709
REMARK INTER + INTRA:         -11.787
REMARK INTER:                  -9.746
REMARK INTRA:                  -2.042
REMARK CONF_INDEPENDENT:        2.983
REMARK UNBOUND:                -2.042
REMARK  10 active torsions:
REMARK  status: ('A' for Active; 'I' for Inactive)
REMARK    1  A    between atoms: C_2  and  C_3 
REMARK       I    between atoms: C_2  and  N_16 
REMARK    2  A    between atoms: C_3  and  C_4 
REMARK    3  A    between atoms: C_4  and  C_5 
REMARK    4  A    between atoms: C_5  and  N_6 
REMARK    5  A    between atoms: N_6  and  C_7 
REMARK    6  A    between atoms: C_10  and  N_11 
REMARK    7  A    between atoms: N_16  and  C_17 
REMARK    8  A    between atoms: C_17  and  C_18 
REMARK    9  A    between atoms: C_18  and  C_19 
REMARK   10  A    between atoms: N_24  and  C_25 
ROOT
ATOM      1  O   UNL d   1      27.227 -15.258  -5.801  0.00  0.00    -0.274 OA
ATOM      2  C   UNL d   1      26.949 -14.839  -4.674  0.00  0.00     0.217 C 
ATOM      3  N   UNL d   1      25.668 -14.442  -4.410  0.00  0.00    -0.361 N 
ATOM      4  H   UNL d   1      25.049 -14.528  -5.209  0.00  0.00     0.162 HD
ENDROOT
BRANCH   2   5
ATOM      5  C   UNL d   1      27.970 -14.740  -3.558  0.00  0.00     0.104 C 
BRANCH   5   6
ATOM      6  C   UNL d   1      28.769 -13.433  -3.625  0.00  0.00     0.029 C 
BRANCH   6   7
ATOM      7  C   UNL d   1      28.087 -12.345  -2.806  0.00  0.00     0.120 C 
BRANCH   7   8
ATOM      8  N   UNL d   1      28.020 -12.693  -1.394  0.00  0.00    -0.390 N 
ATOM      9  H   UNL d   1      27.957 -13.671  -1.127  0.00  0.00     0.159 HD
BRANCH   8  10
ATOM     10  C   UNL d   1      27.620 -11.747  -0.461  0.00  0.00     0.028 A 
ATOM     11  C   UNL d   1      27.639 -10.386  -0.794  0.00  0.00     0.031 A 
ATOM     12  C   UNL d   1      27.179  -9.412   0.104  0.00  0.00     0.038 A 
ATOM     13  C   UNL d   1      26.648  -9.810   1.336  0.00  0.00     0.103 A 
ATOM     14  C   UNL d   1      26.658 -11.155   1.704  0.00  0.00     0.038 A 
ATOM     15  C   UNL d   1      27.148 -12.106   0.808  0.00  0.00     0.031 A 
BRANCH  13  16
ATOM     16  N   UNL d   1      26.012  -8.826   2.222  0.00  0.00    -0.116 N 
ATOM     17  O   UNL d   1      25.167  -8.066   1.729  0.00  0.00    -0.532 OA
ATOM     18  O   UNL d   1      26.338  -8.833   3.419  0.00  0.00    -0.532 OA
ENDBRANCH  13  16
ENDBRANCH   8  10
ENDBRANCH   7   8
ENDBRANCH   6   7
ENDBRANCH   5   6
ENDBRANCH   2   5
BRANCH   3  19
ATOM     19  C   UNL d   1      25.153 -13.950  -3.142  0.00  0.00     0.130 C 
BRANCH  19  20
ATOM     20  C   UNL d   1      24.376 -15.009  -2.366  0.00  0.00     0.100 C 
BRANCH  20  21
ATOM     21  C   UNL d   1      25.312 -15.724  -1.430  0.00  0.00     0.130 A 
ATOM     22  N   UNL d   1      26.398 -15.139  -1.001  0.00  0.00    -0.159 NA
ATOM     23  N   UNL d   1      26.981 -16.063  -0.191  0.00  0.00    -0.251 N 
ATOM     24  C   UNL d   1      26.217 -17.219  -0.147  0.00  0.00     0.196 A 
ATOM     25  H   UNL d   1      27.868 -15.900   0.275  0.00  0.00     0.191 HD
ATOM     26  S   UNL d   1      26.655 -18.566   0.717  0.00  0.00    -0.039 SA
ATOM     27  N   UNL d   1      25.106 -16.973  -0.940  0.00  0.00    -0.304 N 
BRANCH  27  28
ATOM     28  C   UNL d   1      24.039 -17.906  -1.185  0.00  0.00     0.094 A 
ATOM     29  C   UNL d   1      23.332 -18.745  -0.156  0.00  0.00     0.028 A 
ATOM     30  C   UNL d   1      22.628 -17.565  -0.774  0.00  0.00     0.028 A 
ENDBRANCH  27  28
ENDBRANCH  20  21
ENDBRANCH  19  20
ENDBRANCH   3  19
TORSDOF 10
ENDMDL
MODEL 9
REMARK VINA RESULT:    -6.725      3.900      5.618
REMARK INTER + INTRA:         -11.345
REMARK INTER:                  -9.708
REMARK INTRA:                  -1.637
REMARK CONF_INDEPENDENT:        2.983
REMARK UNBOUND:                -1.637
REMARK  10 active torsions:
REMARK  status: ('A' for Active; 'I' for Inactive)
REMARK    1  A    between atoms: C_2  and  C_3 
REMARK       I    between atoms: C_2  and  N_16 
REMARK    2  A    between atoms: C_3  and  C_4 
REMARK    3  A    between atoms: C_4  and  C_5 
REMARK    4  A    between atoms: C_5  and  N_6 
REMARK    5  A    between atoms: N_6  and  C_7 
REMARK    6  A    between atoms: C_10  and  N_11 
REMARK    7  A    between atoms: N_16  and  C_17 
REMARK    8  A    between atoms: C_17  and  C_18 
REMARK    9  A    between atoms: C_18  and  C_19 
REMARK   10  A    between atoms: N_24  and  C_25 
ROOT
ATOM      1  O   UNL d   1      26.231 -15.836  -5.794  0.00  0.00    -0.274 OA
ATOM      2  C   UNL d   1      26.853 -15.099  -5.024  0.00  0.00     0.217 C 
ATOM      3  N   UNL d   1      28.110 -14.687  -5.370  0.00  0.00    -0.361 N 
ATOM      4  H   UNL d   1      28.420 -15.053  -6.263  0.00  0.00     0.162 HD
ENDROOT
BRANCH   2   5
ATOM      5  C   UNL d   1      26.289 -14.626  -3.699  0.00  0.00     0.104 C 
BRANCH   5   6
ATOM      6  C   UNL d   1      25.541 -15.743  -2.963  0.00  0.00     0.029 C 
BRANCH   6   7
ATOM      7  C   UNL d   1      26.480 -16.491  -2.026  0.00  0.00     0.120 C 
BRANCH   7   8
ATOM      8  N   UNL d   1      25.858 -16.760  -0.738  0.00  0.00    -0.390 N 
ATOM      9  H   UNL d   1      26.448 -16.908   0.076  0.00  0.00     0.159 HD
BRANCH   8  10
ATOM     10  C   UNL d   1      24.554 -17.230  -0.678  0.00  0.00     0.028 A 
ATOM     11  C   UNL d   1      23.483 -16.336  -0.821  0.00  0.00     0.031 A 
ATOM     12  C   UNL d   1      22.156 -16.789  -0.829  0.00  0.00     0.038 A 
ATOM     13  C   UNL d   1      21.898 -18.161  -0.740  0.00  0.00     0.103 A 
ATOM     14  C   UNL d   1      22.945 -19.063  -0.555  0.00  0.00     0.038 A 
ATOM     15  C   UNL d   1      24.258 -18.590  -0.518  0.00  0.00     0.031 A 
BRANCH  13  16
ATOM     16  N   UNL d   1      20.531 -18.672  -0.911  0.00  0.00    -0.116 N 
ATOM     17  O   UNL d   1      20.382 -19.895  -1.036  0.00  0.00    -0.532 OA
ATOM     18  O   UNL d   1      19.603 -17.848  -0.895  0.00  0.00    -0.532 OA
ENDBRANCH  13  16
ENDBRANCH   8  10
ENDBRANCH   7   8
ENDBRANCH   6   7
ENDBRANCH   5   6
ENDBRANCH   2   5
BRANCH   3  19
ATOM     19  C   UNL d   1      28.977 -13.802  -4.608  0.00  0.00     0.130 C 
BRANCH  19  20
ATOM     20  C   UNL d   1      30.329 -14.429  -4.282  0.00  0.00     0.100 C 
BRANCH  20  21
ATOM     21  C   UNL d   1      30.402 -15.798  -4.902  0.00  0.00     0.130 A 
ATOM     22  N   UNL d   1      30.307 -15.947  -6.196  0.00  0.00    -0.159 NA
ATOM     23  N   UNL d   1      30.419 -17.289  -6.390  0.00  0.00    -0.251 N 
ATOM     24  C   UNL d   1      30.581 -17.942  -5.177  0.00  0.00     0.196 A 
ATOM     25  H   UNL d   1      30.357 -17.716  -7.308  0.00  0.00     0.191 HD
ATOM     26  S   UNL d   1      30.710 -19.590  -5.041  0.00  0.00    -0.039 SA
ATOM     27  N   UNL d   1      30.601 -16.948  -4.208  0.00  0.00    -0.304 N 
BRANCH  27  28
ATOM     28  C   UNL d   1      30.747 -17.171  -2.795  0.00  0.00     0.094 A 
ATOM     29  C   UNL d   1      30.642 -16.133  -1.711  0.00  0.00     0.028 A 
ATOM     30  C   UNL d   1      29.536 -17.139  -1.897  0.00  0.00     0.028 A 
ENDBRANCH  27  28
ENDBRANCH  20  21
ENDBRANCH  19  20
ENDBRANCH   3  19
TORSDOF 10
ENDMDL
