MODEL 1
REMARK VINA RESULT:    -5.523      0.000      0.000
REMARK INTER + INTRA:          -8.585
REMARK INTER:                  -7.611
REMARK INTRA:                  -0.973
REMARK CONF_INDEPENDENT:        2.088
REMARK UNBOUND:                -0.973
REMARK  7 active torsions:
REMARK  status: ('A' for Active; 'I' for Inactive)
REMARK    1  A    between atoms: C_3  and  C_4 
REMARK    2  A    between atoms: C_4  and  O_5 
REMARK    3  A    between atoms: C_7  and  N_8 
REMARK    4  A    between atoms: C_11  and  N_12 
REMARK    5  A    between atoms: N_12  and  C_13 
REMARK    6  A    between atoms: N_16  and  C_17 
REMARK    7  A    between atoms: C_22  and  N_23 
ROOT
ATOM      1  C   UNL d   1      26.595  -8.556  -2.451  0.00  0.00     0.051 C 
ATOM      2  C   UNL d   1      26.648  -9.951  -2.959  0.00  0.00    -0.021 C 
ATOM      3  C   UNL d   1      26.026 -10.122  -4.329  0.00  0.00    -0.037 C 
ATOM      4  C   UNL d   1      26.026 -11.607  -4.913  0.00  0.00     0.090 C 
ATOM      5  C   UNL d   1      26.397 -13.281  -4.160  0.00  0.00     0.118 C 
ATOM      6  C   UNL d   1      27.024 -13.155  -2.453  0.00  0.00     0.092 C 
ATOM      7  C   UNL d   1      27.171 -11.274  -1.891  0.00  0.00     0.137 C 
ENDROOT
BRANCH   6   8
ATOM      8  N   UNL d   1      27.417 -14.274  -1.759  0.00  0.00    -0.381 N 
ATOM      9  H   UNL d   1      28.399 -14.552  -1.780  0.00  0.00     0.160 HD
BRANCH   8  10
ATOM     10  C   UNL d   1      26.304 -14.087  -0.963  0.00  0.00     0.085 C 
ATOM     11  C   UNL d   1      27.337 -13.652   0.423  0.00  0.00     0.052 C 
ATOM     12  C   UNL d   1      28.823 -14.442   0.403  0.00  0.00     0.237 C 
ATOM     13  N   UNL d   1      28.655 -16.367   0.135  0.00  0.00    -0.067 N 
ATOM     14  C   UNL d   1      26.864 -17.134  -1.012  0.00  0.00     0.237 C 
ATOM     15  H   UNL d   1      28.669 -16.536   1.150  0.00  0.00     0.280 HD
ATOM     16  C   UNL d   1      25.522 -15.752  -1.218  0.00  0.00     0.052 C 
BRANCH  13  17
ATOM     17  C   UNL d   1      30.405 -16.842  -0.142  0.00  0.00     0.188 A 
ATOM     18  C   UNL d   1      30.782 -18.439  -1.094  0.00  0.00     0.035 A 
ATOM     19  C   UNL d   1      31.237 -17.041  -1.338  0.00  0.00     0.035 A 
ENDBRANCH  13  17
ENDBRANCH   8  10
ENDBRANCH   6   8
BRANCH   5  20
ATOM     20  N   UNL d   1      26.227 -14.698  -4.632  0.00  0.00    -0.117 N 
ATOM     21  O   UNL d   1      27.025 -15.247  -5.401  0.00  0.00    -0.532 OA
ATOM     22  O   UNL d   1      25.155 -15.211  -4.299  0.00  0.00    -0.532 OA
ENDBRANCH   5  20
BRANCH   7  23
ATOM     23  N   UNL d   1      27.940 -10.593  -0.709  0.00  0.00    -0.113 N 
ATOM     24  O   UNL d   1      29.106 -10.236  -0.853  0.00  0.00    -0.532 OA
ATOM     25  O   UNL d   1      27.345 -10.419   0.346  0.00  0.00    -0.532 OA
ENDBRANCH   7  23
BRANCH   3  26
ATOM     26  C   UNL d   1      24.843  -9.200  -4.982  0.00  0.00     0.200 C 
BRANCH  26  27
ATOM     27  O   UNL d   1      24.526  -8.032  -4.284  0.00  0.00    -0.397 OA
ATOM     28  H   UNL d   1      24.065  -8.320  -3.477  0.00  0.00     0.209 HD
ENDBRANCH  26  27
ENDBRANCH   3  26
TORSDOF 7
ENDMDL
MODEL 2
REMARK VINA RESULT:    -5.242      2.338      6.819
REMARK INTER + INTRA:          -8.417
REMARK INTER:                  -7.330
REMARK INTRA:                  -1.087
REMARK CONF_INDEPENDENT:        2.088
REMARK UNBOUND:                -1.087
REMARK  7 active torsions:
REMARK  status: ('A' for Active; 'I' for Inactive)
REMARK    1  A    between atoms: C_3  and  C_4 
REMARK    2  A    between atoms: C_4  and  O_5 
REMARK    3  A    between atoms: C_7  and  N_8 
REMARK    4  A    between atoms: C_11  and  N_12 
REMARK    5  A    between atoms: N_12  and  C_13 
REMARK    6  A    between atoms: N_16  and  C_17 
REMARK    7  A    between atoms: C_22  and  N_23 
ROOT
ATOM      1  C   UNL d   1      27.760 -14.889   1.747  0.00  0.00     0.051 C 
ATOM      2  C   UNL d   1      27.145 -14.872   0.394  0.00  0.00    -0.021 C 
ATOM      3  C   UNL d   1      26.843 -16.252  -0.153  0.00  0.00    -0.037 C 
ATOM      4  C   UNL d   1      26.211 -16.296  -1.617  0.00  0.00     0.090 C 
ATOM      5  C   UNL d   1      25.989 -15.009  -2.959  0.00  0.00     0.118 C 
ATOM      6  C   UNL d   1      26.467 -13.338  -2.408  0.00  0.00     0.092 C 
ATOM      7  C   UNL d   1      27.051 -13.353  -0.528  0.00  0.00     0.137 C 
ENDROOT
BRANCH   6   8
ATOM      8  N   UNL d   1      26.309 -12.249  -3.231  0.00  0.00    -0.381 N 
ATOM      9  H   UNL d   1      25.521 -11.619  -3.076  0.00  0.00     0.160 HD
BRANCH   8  10
ATOM     10  C   UNL d   1      27.663 -12.336  -3.490  0.00  0.00     0.085 C 
ATOM     11  C   UNL d   1      27.927 -10.721  -2.783  0.00  0.00     0.052 C 
ATOM     12  C   UNL d   1      26.610  -9.694  -2.991  0.00  0.00     0.237 C 
ATOM     13  N   UNL d   1      25.975  -9.638  -4.835  0.00  0.00    -0.067 N 
ATOM     14  C   UNL d   1      26.302 -11.459  -6.133  0.00  0.00     0.237 C 
ATOM     15  H   UNL d   1      26.552  -8.810  -5.035  0.00  0.00     0.280 HD
ATOM     16  C   UNL d   1      27.555 -12.688  -5.311  0.00  0.00     0.052 C 
BRANCH  13  17
ATOM     17  C   UNL d   1      24.404  -8.711  -4.641  0.00  0.00     0.188 A 
ATOM     18  C   UNL d   1      24.364  -6.870  -5.100  0.00  0.00     0.035 A 
ATOM     19  C   UNL d   1      23.512  -8.000  -5.569  0.00  0.00     0.035 A 
ENDBRANCH  13  17
ENDBRANCH   8  10
ENDBRANCH   6   8
BRANCH   5  20
ATOM     20  N   UNL d   1      25.569 -15.066  -4.401  0.00  0.00    -0.117 N 
ATOM     21  O   UNL d   1      26.272 -15.575  -5.282  0.00  0.00    -0.532 OA
ATOM     22  O   UNL d   1      24.534 -14.441  -4.646  0.00  0.00    -0.532 OA
ENDBRANCH   5  20
BRANCH   7  23
ATOM     23  N   UNL d   1      27.234 -12.204   0.519  0.00  0.00    -0.113 N 
ATOM     24  O   UNL d   1      28.194 -11.442   0.441  0.00  0.00    -0.532 OA
ATOM     25  O   UNL d   1      26.393 -12.082   1.400  0.00  0.00    -0.532 OA
ENDBRANCH   7  23
BRANCH   3  26
ATOM     26  C   UNL d   1      27.618 -17.640   0.230  0.00  0.00     0.200 C 
BRANCH  26  27
ATOM     27  O   UNL d   1      28.787 -17.904  -0.487  0.00  0.00    -0.397 OA
ATOM     28  H   UNL d   1      29.323 -18.485   0.081  0.00  0.00     0.209 HD
ENDBRANCH  26  27
ENDBRANCH   3  26
TORSDOF 7
ENDMDL
MODEL 3
REMARK VINA RESULT:    -4.930      1.495      2.662
REMARK INTER + INTRA:          -8.739
REMARK INTER:                  -7.018
REMARK INTRA:                  -1.722
REMARK CONF_INDEPENDENT:        2.088
REMARK UNBOUND:                -1.722
REMARK  7 active torsions:
REMARK  status: ('A' for Active; 'I' for Inactive)
REMARK    1  A    between atoms: C_3  and  C_4 
REMARK    2  A    between atoms: C_4  and  O_5 
REMARK    3  A    between atoms: C_7  and  N_8 
REMARK    4  A    between atoms: C_11  and  N_12 
REMARK    5  A    between atoms: N_12  and  C_13 
REMARK    6  A    between atoms: N_16  and  C_17 
REMARK    7  A    between atoms: C_22  and  N_23 
ROOT
ATOM      1  C   UNL d   1      26.914  -8.491  -2.772  0.00  0.00     0.051 C 
ATOM      2  C   UNL d   1      26.729  -9.936  -3.063  0.00  0.00    -0.021 C 
ATOM      3  C   UNL d   1      26.066 -10.206  -4.398  0.00  0.00    -0.037 C 
ATOM      4  C   UNL d   1      25.813 -11.742  -4.750  0.00  0.00     0.090 C 
ATOM      5  C   UNL d   1      25.916 -13.322  -3.751  0.00  0.00     0.118 C 
ATOM      6  C   UNL d   1      26.583 -13.045  -2.077  0.00  0.00     0.092 C 
ATOM      7  C   UNL d   1      27.045 -11.152  -1.803  0.00  0.00     0.137 C 
ENDROOT
BRANCH   6   8
ATOM      8  N   UNL d   1      26.798 -14.096  -1.218  0.00  0.00    -0.381 N 
ATOM      9  H   UNL d   1      26.072 -14.806  -1.109  0.00  0.00     0.160 HD
BRANCH   8  10
ATOM     10  C   UNL d   1      28.150 -13.866  -1.385  0.00  0.00     0.085 C 
ATOM     11  C   UNL d   1      28.343 -15.446  -2.187  0.00  0.00     0.052 C 
ATOM     12  C   UNL d   1      27.266 -16.606  -1.614  0.00  0.00     0.237 C 
ATOM     13  N   UNL d   1      27.242 -16.723   0.333  0.00  0.00    -0.067 N 
ATOM     14  C   UNL d   1      27.769 -14.874   1.521  0.00  0.00     0.237 C 
ATOM     15  H   UNL d   1      27.933 -17.485   0.321  0.00  0.00     0.280 HD
ATOM     16  C   UNL d   1      28.575 -13.522   0.390  0.00  0.00     0.052 C 
BRANCH  13  17
ATOM     17  C   UNL d   1      25.791 -17.811   0.605  0.00  0.00     0.188 A 
ATOM     18  C   UNL d   1      24.120 -17.315  -0.146  0.00  0.00     0.035 A 
ATOM     19  C   UNL d   1      24.902 -18.577  -0.282  0.00  0.00     0.035 A 
ENDBRANCH  13  17
ENDBRANCH   8  10
ENDBRANCH   6   8
BRANCH   5  20
ATOM     20  N   UNL d   1      25.509 -14.746  -4.005  0.00  0.00    -0.117 N 
ATOM     21  O   UNL d   1      25.531 -15.256  -5.131  0.00  0.00    -0.532 OA
ATOM     22  O   UNL d   1      25.021 -15.310  -3.022  0.00  0.00    -0.532 OA
ENDBRANCH   5  20
BRANCH   7  23
ATOM     23  N   UNL d   1      27.935 -10.437  -0.731  0.00  0.00    -0.113 N 
ATOM     24  O   UNL d   1      29.119 -10.210  -0.960  0.00  0.00    -0.532 OA
ATOM     25  O   UNL d   1      27.414 -10.103   0.326  0.00  0.00    -0.532 OA
ENDBRANCH   7  23
BRANCH   3  26
ATOM     26  C   UNL d   1      25.040  -9.211  -5.192  0.00  0.00     0.200 C 
BRANCH  26  27
ATOM     27  O   UNL d   1      24.505  -8.161  -4.441  0.00  0.00    -0.397 OA
ATOM     28  H   UNL d   1      24.017  -8.577  -3.710  0.00  0.00     0.209 HD
ENDBRANCH  26  27
ENDBRANCH   3  26
TORSDOF 7
ENDMDL
MODEL 4
REMARK VINA RESULT:    -4.880      3.132      4.032
REMARK INTER + INTRA:          -8.023
REMARK INTER:                  -6.968
REMARK INTRA:                  -1.055
REMARK CONF_INDEPENDENT:        2.088
REMARK UNBOUND:                -1.055
REMARK  7 active torsions:
REMARK  status: ('A' for Active; 'I' for Inactive)
REMARK    1  A    between atoms: C_3  and  C_4 
REMARK    2  A    between atoms: C_4  and  O_5 
REMARK    3  A    between atoms: C_7  and  N_8 
REMARK    4  A    between atoms: C_11  and  N_12 
REMARK    5  A    between atoms: N_12  and  C_13 
REMARK    6  A    between atoms: N_16  and  C_17 
REMARK    7  A    between atoms: C_22  and  N_23 
ROOT
ATOM      1  C   UNL d   1      25.183  -7.260   0.317  0.00  0.00     0.051 C 
ATOM      2  C   UNL d   1      26.225  -8.273   0.006  0.00  0.00    -0.021 C 
ATOM      3  C   UNL d   1      26.697  -8.236  -1.433  0.00  0.00    -0.037 C 
ATOM      4  C   UNL d   1      27.794  -9.323  -1.833  0.00  0.00     0.090 C 
ATOM      5  C   UNL d   1      28.465 -10.846  -0.974  0.00  0.00     0.118 C 
ATOM      6  C   UNL d   1      27.828 -11.025   0.724  0.00  0.00     0.092 C 
ATOM      7  C   UNL d   1      26.632  -9.534   1.193  0.00  0.00     0.137 C 
ENDROOT
BRANCH   6   8
ATOM      8  N   UNL d   1      28.260 -12.045   1.539  0.00  0.00    -0.381 N 
ATOM      9  H   UNL d   1      29.093 -11.904   2.111  0.00  0.00     0.160 HD
BRANCH   8  10
ATOM     10  C   UNL d   1      26.964 -12.523   1.512  0.00  0.00     0.085 C 
ATOM     11  C   UNL d   1      27.060 -12.948   3.241  0.00  0.00     0.052 C 
ATOM     12  C   UNL d   1      28.614 -13.382   3.721  0.00  0.00     0.237 C 
ATOM     13  N   UNL d   1      29.426 -14.713   2.548  0.00  0.00    -0.067 N 
ATOM     14  C   UNL d   1      28.770 -14.776   0.387  0.00  0.00     0.237 C 
ATOM     15  H   UNL d   1      29.110 -15.480   3.157  0.00  0.00     0.280 HD
ATOM     16  C   UNL d   1      27.162 -13.729   0.114  0.00  0.00     0.052 C 
BRANCH  13  17
ATOM     17  C   UNL d   1      31.156 -14.714   3.158  0.00  0.00     0.188 A 
ATOM     18  C   UNL d   1      32.400 -15.919   2.382  0.00  0.00     0.035 A 
ATOM     19  C   UNL d   1      32.462 -14.438   2.539  0.00  0.00     0.035 A 
ENDBRANCH  13  17
ENDBRANCH   8  10
ENDBRANCH   6   8
BRANCH   5  20
ATOM     20  N   UNL d   1      29.355 -11.978  -1.403  0.00  0.00    -0.117 N 
ATOM     21  O   UNL d   1      29.028 -12.793  -2.272  0.00  0.00    -0.532 OA
ATOM     22  O   UNL d   1      30.373 -12.102  -0.715  0.00  0.00    -0.532 OA
ENDBRANCH   5  20
BRANCH   7  23
ATOM     23  N   UNL d   1      26.101  -9.014   2.571  0.00  0.00    -0.113 N 
ATOM     24  O   UNL d   1      25.160  -9.575   3.124  0.00  0.00    -0.532 OA
ATOM     25  O   UNL d   1      26.656  -8.049   3.080  0.00  0.00    -0.532 OA
ENDBRANCH   7  23
BRANCH   3  26
ATOM     26  C   UNL d   1      25.836  -7.719  -2.724  0.00  0.00     0.200 C 
BRANCH  26  27
ATOM     27  O   UNL d   1      25.152  -8.708  -3.436  0.00  0.00    -0.397 OA
ATOM     28  H   UNL d   1      24.297  -8.817  -2.984  0.00  0.00     0.209 HD
ENDBRANCH  26  27
ENDBRANCH   3  26
TORSDOF 7
ENDMDL
MODEL 5
REMARK VINA RESULT:    -4.860      1.437      4.037
REMARK INTER + INTRA:          -8.538
REMARK INTER:                  -6.948
REMARK INTRA:                  -1.590
REMARK CONF_INDEPENDENT:        2.088
REMARK UNBOUND:                -1.590
REMARK  7 active torsions:
REMARK  status: ('A' for Active; 'I' for Inactive)
REMARK    1  A    between atoms: C_3  and  C_4 
REMARK    2  A    between atoms: C_4  and  O_5 
REMARK    3  A    between atoms: C_7  and  N_8 
REMARK    4  A    between atoms: C_11  and  N_12 
REMARK    5  A    between atoms: N_12  and  C_13 
REMARK    6  A    between atoms: N_16  and  C_17 
REMARK    7  A    between atoms: C_22  and  N_23 
ROOT
ATOM      1  C   UNL d   1      25.542 -11.842  -5.769  0.00  0.00     0.051 C 
ATOM      2  C   UNL d   1      26.055 -11.814  -4.375  0.00  0.00    -0.021 C 
ATOM      3  C   UNL d   1      25.978 -10.447  -3.728  0.00  0.00    -0.037 C 
ATOM      4  C   UNL d   1      26.545 -10.349  -2.240  0.00  0.00     0.090 C 
ATOM      5  C   UNL d   1      27.550 -11.513  -1.170  0.00  0.00     0.118 C 
ATOM      6  C   UNL d   1      27.796 -13.141  -1.953  0.00  0.00     0.092 C 
ATOM      7  C   UNL d   1      26.897 -13.229  -3.702  0.00  0.00     0.137 C 
ENDROOT
BRANCH   6   8
ATOM      8  N   UNL d   1      28.451 -14.153  -1.291  0.00  0.00    -0.381 N 
ATOM      9  H   UNL d   1      29.355 -13.960  -0.859  0.00  0.00     0.160 HD
BRANCH   8  10
ATOM     10  C   UNL d   1      27.217 -14.752  -1.131  0.00  0.00     0.085 C 
ATOM     11  C   UNL d   1      27.331 -14.568   0.638  0.00  0.00     0.052 C 
ATOM     12  C   UNL d   1      28.914 -14.644   1.202  0.00  0.00     0.237 C 
ATOM     13  N   UNL d   1      29.890 -16.189   0.520  0.00  0.00    -0.067 N 
ATOM     14  C   UNL d   1      29.280 -17.037  -1.485  0.00  0.00     0.237 C 
ATOM     15  H   UNL d   1      29.650 -16.742   1.355  0.00  0.00     0.280 HD
ATOM     16  C   UNL d   1      27.571 -16.324  -2.055  0.00  0.00     0.052 C 
BRANCH  13  17
ATOM     17  C   UNL d   1      31.598 -15.797   1.058  0.00  0.00     0.188 A 
ATOM     18  C   UNL d   1      31.891 -15.250   2.852  0.00  0.00     0.035 A 
ATOM     19  C   UNL d   1      32.510 -16.357   2.068  0.00  0.00     0.035 A 
ENDBRANCH  13  17
ENDBRANCH   8  10
ENDBRANCH   6   8
BRANCH   5  20
ATOM     20  N   UNL d   1      28.247 -11.373   0.154  0.00  0.00    -0.117 N 
ATOM     21  O   UNL d   1      27.865 -10.591   1.031  0.00  0.00    -0.532 OA
ATOM     22  O   UNL d   1      29.307 -12.001   0.229  0.00  0.00    -0.532 OA
ENDBRANCH   5  20
BRANCH   7  23
ATOM     23  N   UNL d   1      26.502 -14.438  -4.614  0.00  0.00    -0.113 N 
ATOM     24  O   UNL d   1      25.342 -14.838  -4.646  0.00  0.00    -0.532 OA
ATOM     25  O   UNL d   1      27.375 -14.958  -5.298  0.00  0.00    -0.532 OA
ENDBRANCH   7  23
BRANCH   3  26
ATOM     26  C   UNL d   1      26.008  -9.004  -4.498  0.00  0.00     0.200 C 
BRANCH  26  27
ATOM     27  O   UNL d   1      24.899  -8.180  -4.292  0.00  0.00    -0.397 OA
ATOM     28  H   UNL d   1      24.428  -8.553  -3.526  0.00  0.00     0.209 HD
ENDBRANCH  26  27
ENDBRANCH   3  26
TORSDOF 7
ENDMDL
MODEL 6
REMARK VINA RESULT:    -4.838      2.975      4.166
REMARK INTER + INTRA:          -8.531
REMARK INTER:                  -6.926
REMARK INTRA:                  -1.606
REMARK CONF_INDEPENDENT:        2.088
REMARK UNBOUND:                -1.606
REMARK  7 active torsions:
REMARK  status: ('A' for Active; 'I' for Inactive)
REMARK    1  A    between atoms: C_3  and  C_4 
REMARK    2  A    between atoms: C_4  and  O_5 
REMARK    3  A    between atoms: C_7  and  N_8 
REMARK    4  A    between atoms: C_11  and  N_12 
REMARK    5  A    between atoms: N_12  and  C_13 
REMARK    6  A    between atoms: N_16  and  C_17 
REMARK    7  A    between atoms: C_22  and  N_23 
ROOT
ATOM      1  C   UNL d   1      25.441  -6.575   1.010  0.00  0.00     0.051 C 
ATOM      2  C   UNL d   1      26.152  -7.721   0.388  0.00  0.00    -0.021 C 
ATOM      3  C   UNL d   1      26.410  -7.543  -1.094  0.00  0.00    -0.037 C 
ATOM      4  C   UNL d   1      27.144  -8.758  -1.823  0.00  0.00     0.090 C 
ATOM      5  C   UNL d   1      27.542 -10.514  -1.306  0.00  0.00     0.118 C 
ATOM      6  C   UNL d   1      27.127 -10.837   0.439  0.00  0.00     0.092 C 
ATOM      7  C   UNL d   1      26.406  -9.224   1.306  0.00  0.00     0.137 C 
ENDROOT
BRANCH   6   8
ATOM      8  N   UNL d   1      27.410 -12.050   1.021  0.00  0.00    -0.381 N 
ATOM      9  H   UNL d   1      27.171 -12.908   0.523  0.00  0.00     0.160 HD
BRANCH   8  10
ATOM     10  C   UNL d   1      28.375 -11.392   1.758  0.00  0.00     0.085 C 
ATOM     11  C   UNL d   1      29.665 -12.281   0.907  0.00  0.00     0.052 C 
ATOM     12  C   UNL d   1      29.192 -13.827   0.438  0.00  0.00     0.237 C 
ATOM     13  N   UNL d   1      28.377 -14.844   1.889  0.00  0.00    -0.067 N 
ATOM     14  C   UNL d   1      27.321 -13.706   3.530  0.00  0.00     0.237 C 
ATOM     15  H   UNL d   1      29.280 -15.278   2.126  0.00  0.00     0.280 HD
ATOM     16  C   UNL d   1      27.740 -11.815   3.451  0.00  0.00     0.052 C 
BRANCH  13  17
ATOM     17  C   UNL d   1      27.722 -16.296   0.980  0.00  0.00     0.188 A 
ATOM     18  C   UNL d   1      26.221 -16.065  -0.157  0.00  0.00     0.035 A 
ATOM     19  C   UNL d   1      27.569 -16.632  -0.444  0.00  0.00     0.035 A 
ENDBRANCH  13  17
ENDBRANCH   8  10
ENDBRANCH   6   8
BRANCH   5  20
ATOM     20  N   UNL d   1      28.061 -11.722  -2.032  0.00  0.00    -0.117 N 
ATOM     21  O   UNL d   1      28.820 -11.643  -3.005  0.00  0.00    -0.532 OA
ATOM     22  O   UNL d   1      27.555 -12.785  -1.661  0.00  0.00    -0.532 OA
ENDBRANCH   5  20
BRANCH   7  23
ATOM     23  N   UNL d   1      26.217  -8.843   2.813  0.00  0.00    -0.113 N 
ATOM     24  O   UNL d   1      26.736  -7.827   3.265  0.00  0.00    -0.532 OA
ATOM     25  O   UNL d   1      25.530  -9.575   3.514  0.00  0.00    -0.532 OA
ENDBRANCH   7  23
BRANCH   3  26
ATOM     26  C   UNL d   1      25.526  -6.640  -2.133  0.00  0.00     0.200 C 
BRANCH  26  27
ATOM     27  O   UNL d   1      24.512  -5.868  -1.560  0.00  0.00    -0.397 OA
ATOM     28  H   UNL d   1      23.681  -6.184  -1.955  0.00  0.00     0.209 HD
ENDBRANCH  26  27
ENDBRANCH   3  26
TORSDOF 7
ENDMDL
MODEL 7
REMARK VINA RESULT:    -4.369      3.438      5.308
REMARK INTER + INTRA:          -7.913
REMARK INTER:                  -6.457
REMARK INTRA:                  -1.456
REMARK CONF_INDEPENDENT:        2.088
REMARK UNBOUND:                -1.456
REMARK  7 active torsions:
REMARK  status: ('A' for Active; 'I' for Inactive)
REMARK    1  A    between atoms: C_3  and  C_4 
REMARK    2  A    between atoms: C_4  and  O_5 
REMARK    3  A    between atoms: C_7  and  N_8 
REMARK    4  A    between atoms: C_11  and  N_12 
REMARK    5  A    between atoms: N_12  and  C_13 
REMARK    6  A    between atoms: N_16  and  C_17 
REMARK    7  A    between atoms: C_22  and  N_23 
ROOT
ATOM      1  C   UNL d   1      31.202 -14.799  -6.833  0.00  0.00     0.051 C 
ATOM      2  C   UNL d   1      29.982 -14.816  -5.985  0.00  0.00    -0.021 C 
ATOM      3  C   UNL d   1      28.733 -14.355  -6.708  0.00  0.00    -0.037 C 
ATOM      4  C   UNL d   1      27.397 -14.322  -5.837  0.00  0.00     0.090 C 
ATOM      5  C   UNL d   1      27.057 -14.481  -4.002  0.00  0.00     0.118 C 
ATOM      6  C   UNL d   1      28.553 -14.902  -3.051  0.00  0.00     0.092 C 
ATOM      7  C   UNL d   1      30.111 -15.111  -4.235  0.00  0.00     0.137 C 
ENDROOT
BRANCH   6   8
ATOM      8  N   UNL d   1      28.490 -15.129  -1.696  0.00  0.00    -0.381 N 
ATOM      9  H   UNL d   1      27.958 -14.486  -1.109  0.00  0.00     0.160 HD
BRANCH   8  10
ATOM     10  C   UNL d   1      28.765 -16.454  -1.975  0.00  0.00     0.085 C 
ATOM     11  C   UNL d   1      27.332 -16.970  -1.049  0.00  0.00     0.052 C 
ATOM     12  C   UNL d   1      26.978 -15.941   0.235  0.00  0.00     0.237 C 
ATOM     13  N   UNL d   1      28.530 -15.563   1.355  0.00  0.00    -0.067 N 
ATOM     14  C   UNL d   1      30.579 -15.647   0.405  0.00  0.00     0.237 C 
ATOM     15  H   UNL d   1      28.281 -16.325   2.001  0.00  0.00     0.280 HD
ATOM     16  C   UNL d   1      30.508 -16.496  -1.336  0.00  0.00     0.052 C 
BRANCH  13  17
ATOM     17  C   UNL d   1      27.882 -14.217   2.419  0.00  0.00     0.188 A 
ATOM     18  C   UNL d   1      27.839 -14.475   4.298  0.00  0.00     0.035 A 
ATOM     19  C   UNL d   1      28.457 -13.387   3.488  0.00  0.00     0.035 A 
ENDBRANCH  13  17
ENDBRANCH   8  10
ENDBRANCH   6   8
BRANCH   5  20
ATOM     20  N   UNL d   1      25.841 -14.271  -3.145  0.00  0.00    -0.117 N 
ATOM     21  O   UNL d   1      25.908 -14.076  -1.926  0.00  0.00    -0.532 OA
ATOM     22  O   UNL d   1      24.773 -14.450  -3.739  0.00  0.00    -0.532 OA
ENDBRANCH   5  20
BRANCH   7  23
ATOM     23  N   UNL d   1      31.511 -15.776  -4.015  0.00  0.00    -0.113 N 
ATOM     24  O   UNL d   1      31.676 -16.968  -4.259  0.00  0.00    -0.532 OA
ATOM     25  O   UNL d   1      32.428 -15.075  -3.609  0.00  0.00    -0.532 OA
ENDBRANCH   7  23
BRANCH   3  26
ATOM     26  C   UNL d   1      28.670 -13.327  -7.979  0.00  0.00     0.200 C 
BRANCH  26  27
ATOM     27  O   UNL d   1      29.902 -12.929  -8.504  0.00  0.00    -0.397 OA
ATOM     28  H   UNL d   1      30.111 -13.568  -9.208  0.00  0.00     0.209 HD
ENDBRANCH  26  27
ENDBRANCH   3  26
TORSDOF 7
ENDMDL
MODEL 8
REMARK VINA RESULT:    -4.212      4.121      5.117
REMARK INTER + INTRA:          -7.930
REMARK INTER:                  -6.301
REMARK INTRA:                  -1.629
REMARK CONF_INDEPENDENT:        2.088
REMARK UNBOUND:                -1.629
REMARK  7 active torsions:
REMARK  status: ('A' for Active; 'I' for Inactive)
REMARK    1  A    between atoms: C_3  and  C_4 
REMARK    2  A    between atoms: C_4  and  O_5 
REMARK    3  A    between atoms: C_7  and  N_8 
REMARK    4  A    between atoms: C_11  and  N_12 
REMARK    5  A    between atoms: N_12  and  C_13 
REMARK    6  A    between atoms: N_16  and  C_17 
REMARK    7  A    between atoms: C_22  and  N_23 
ROOT
ATOM      1  C   UNL d   1      25.147  -7.595   0.523  0.00  0.00     0.051 C 
ATOM      2  C   UNL d   1      26.372  -8.418   0.351  0.00  0.00    -0.021 C 
ATOM      3  C   UNL d   1      26.933  -8.385  -1.055  0.00  0.00    -0.037 C 
ATOM      4  C   UNL d   1      28.232  -9.277  -1.307  0.00  0.00     0.090 C 
ATOM      5  C   UNL d   1      29.097 -10.598  -0.299  0.00  0.00     0.118 C 
ATOM      6  C   UNL d   1      28.379 -10.786   1.366  0.00  0.00     0.092 C 
ATOM      7  C   UNL d   1      26.907  -9.510   1.650  0.00  0.00     0.137 C 
ENDROOT
BRANCH   6   8
ATOM      8  N   UNL d   1      28.923 -11.659   2.277  0.00  0.00    -0.381 N 
ATOM      9  H   UNL d   1      29.349 -12.524   1.943  0.00  0.00     0.160 HD
BRANCH   8  10
ATOM     10  C   UNL d   1      29.056 -10.579   3.128  0.00  0.00     0.085 C 
ATOM     11  C   UNL d   1      30.828 -10.610   2.928  0.00  0.00     0.052 C 
ATOM     12  C   UNL d   1      31.428 -12.159   2.665  0.00  0.00     0.237 C 
ATOM     13  N   UNL d   1      30.772 -13.459   3.963  0.00  0.00    -0.067 N 
ATOM     14  C   UNL d   1      28.756 -13.092   4.916  0.00  0.00     0.237 C 
ATOM     15  H   UNL d   1      31.602 -13.324   4.556  0.00  0.00     0.280 HD
ATOM     16  C   UNL d   1      28.144 -11.283   4.584  0.00  0.00     0.052 C 
BRANCH  13  17
ATOM     17  C   UNL d   1      31.349 -15.031   3.215  0.00  0.00     0.188 A 
ATOM     18  C   UNL d   1      31.246 -15.242   1.332  0.00  0.00     0.035 A 
ATOM     19  C   UNL d   1      32.407 -15.383   2.256  0.00  0.00     0.035 A 
ENDBRANCH  13  17
ENDBRANCH   8  10
ENDBRANCH   6   8
BRANCH   5  20
ATOM     20  N   UNL d   1      30.202 -11.574  -0.588  0.00  0.00    -0.117 N 
ATOM     21  O   UNL d   1      30.294 -12.668  -0.019  0.00  0.00    -0.532 OA
ATOM     22  O   UNL d   1      31.079 -11.130  -1.335  0.00  0.00    -0.532 OA
ENDBRANCH   5  20
BRANCH   7  23
ATOM     23  N   UNL d   1      26.193  -9.011   2.951  0.00  0.00    -0.113 N 
ATOM     24  O   UNL d   1      26.655  -8.071   3.591  0.00  0.00    -0.532 OA
ATOM     25  O   UNL d   1      25.162  -9.574   3.298  0.00  0.00    -0.532 OA
ENDBRANCH   7  23
BRANCH   3  26
ATOM     26  C   UNL d   1      26.092  -8.113  -2.431  0.00  0.00     0.200 C 
BRANCH  26  27
ATOM     27  O   UNL d   1      25.205  -9.122  -2.814  0.00  0.00    -0.397 OA
ATOM     28  H   UNL d   1      24.389  -8.669  -3.087  0.00  0.00     0.209 HD
ENDBRANCH  26  27
ENDBRANCH   3  26
TORSDOF 7
ENDMDL
MODEL 9
REMARK VINA RESULT:    -4.121      2.983      5.305
REMARK INTER + INTRA:          -7.788
REMARK INTER:                  -6.209
REMARK INTRA:                  -1.579
REMARK CONF_INDEPENDENT:        2.088
REMARK UNBOUND:                -1.579
REMARK  7 active torsions:
REMARK  status: ('A' for Active; 'I' for Inactive)
REMARK    1  A    between atoms: C_3  and  C_4 
REMARK    2  A    between atoms: C_4  and  O_5 
REMARK    3  A    between atoms: C_7  and  N_8 
REMARK    4  A    between atoms: C_11  and  N_12 
REMARK    5  A    between atoms: N_12  and  C_13 
REMARK    6  A    between atoms: N_16  and  C_17 
REMARK    7  A    between atoms: C_22  and  N_23 
ROOT
ATOM      1  C   UNL d   1      26.250  -8.554  -3.383  0.00  0.00     0.051 C 
ATOM      2  C   UNL d   1      26.291  -8.912  -1.941  0.00  0.00    -0.021 C 
ATOM      3  C   UNL d   1      25.796  -7.810  -1.028  0.00  0.00    -0.037 C 
ATOM      4  C   UNL d   1      25.847  -8.127   0.535  0.00  0.00     0.090 C 
ATOM      5  C   UNL d   1      26.643  -9.490   1.543  0.00  0.00     0.118 C 
ATOM      6  C   UNL d   1      27.382 -10.788   0.498  0.00  0.00     0.092 C 
ATOM      7  C   UNL d   1      27.100 -10.406  -1.412  0.00  0.00     0.137 C 
ENDROOT
BRANCH   6   8
ATOM      8  N   UNL d   1      27.953 -11.907   1.057  0.00  0.00    -0.381 N 
ATOM      9  H   UNL d   1      28.437 -11.823   1.952  0.00  0.00     0.160 HD
BRANCH   8  10
ATOM     10  C   UNL d   1      27.060 -12.651   0.311  0.00  0.00     0.085 C 
ATOM     11  C   UNL d   1      26.343 -13.326   1.797  0.00  0.00     0.052 C 
ATOM     12  C   UNL d   1      27.458 -13.476   3.049  0.00  0.00     0.237 C 
ATOM     13  N   UNL d   1      29.099 -14.377   2.500  0.00  0.00    -0.067 N 
ATOM     14  C   UNL d   1      29.729 -14.224   0.336  0.00  0.00     0.237 C 
ATOM     15  H   UNL d   1      28.737 -15.286   2.820  0.00  0.00     0.280 HD
ATOM     16  C   UNL d   1      28.292 -13.532  -0.764  0.00  0.00     0.052 C 
BRANCH  13  17
ATOM     17  C   UNL d   1      30.166 -14.093   3.964  0.00  0.00     0.188 A 
ATOM     18  C   UNL d   1      30.120 -12.399   4.817  0.00  0.00     0.035 A 
ATOM     19  C   UNL d   1      29.908 -13.765   5.375  0.00  0.00     0.035 A 
ENDBRANCH  13  17
ENDBRANCH   8  10
ENDBRANCH   6   8
BRANCH   5  20
ATOM     20  N   UNL d   1      26.860  -9.709   3.014  0.00  0.00    -0.117 N 
ATOM     21  O   UNL d   1      27.448 -10.699   3.463  0.00  0.00    -0.532 OA
ATOM     22  O   UNL d   1      26.282  -8.888   3.732  0.00  0.00    -0.532 OA
ENDBRANCH   5  20
BRANCH   7  23
ATOM     23  N   UNL d   1      27.211 -11.309  -2.686  0.00  0.00    -0.113 N 
ATOM     24  O   UNL d   1      28.300 -11.495  -3.220  0.00  0.00    -0.532 OA
ATOM     25  O   UNL d   1      26.190 -11.828  -3.119  0.00  0.00    -0.532 OA
ENDBRANCH   7  23
BRANCH   3  26
ATOM     26  C   UNL d   1      25.829  -6.204  -1.336  0.00  0.00     0.200 C 
BRANCH  26  27
ATOM     27  O   UNL d   1      24.586  -5.589  -1.505  0.00  0.00    -0.397 OA
ATOM     28  H   UNL d   1      24.029  -6.238  -1.970  0.00  0.00     0.209 HD
ENDBRANCH  26  27
ENDBRANCH   3  26
TORSDOF 7
ENDMDL
