MODEL 1
REMARK VINA RESULT:   -32.582      0.000      0.000
REMARK INTER + INTRA:         -34.524
REMARK INTER:                 -33.775
REMARK INTRA:                  -0.749
REMARK CONF_INDEPENDENT:        1.193
REMARK UNBOUND:                -0.749
REMARK  4 active torsions:
REMARK  status: ('A' for Active; 'I' for Inactive)
REMARK    1  A    between atoms: C_5  and  N_6 
REMARK    2  A    between atoms: N_6  and  C_7 
REMARK    3  A    between atoms: C_10  and  N_11 
REMARK       I    between atoms: N_11  and  C_12 
REMARK    4  A    between atoms: C_12  and  C_14 
ROOT
ATOM      1  C   UNL d   1      23.243 -17.806  -0.851  0.00  0.00     0.033 C 
ATOM      2  C   UNL d   1      24.146 -18.621  -0.168  0.00  0.00     0.032 C 
ATOM      3  C   UNL d   1      25.434 -18.148   0.138  0.00  0.00     0.032 C 
ATOM      4  C   UNL d   1      25.731 -16.786   0.029  0.00  0.00     0.035 C 
ATOM      5  C   UNL d   1      24.753 -15.951  -0.515  0.00  0.00     0.032 C 
ATOM      6  C   UNL d   1      23.550 -16.456  -0.996  0.00  0.00     0.032 C 
ENDROOT
BRANCH   4   7
ATOM      7  N   UNL d   1      26.970 -16.282   0.510  0.00  0.00    -0.323 N 
ATOM      8  C   UNL d   1      27.202 -14.951   0.816  0.00  0.00     0.261 C 
ATOM      9  O   UNL d   1      26.433 -14.003   0.598  0.00  0.00    -0.267 OA
ATOM     10  H   UNL d   1      27.705 -16.959   0.692  0.00  0.00     0.169 HD
BRANCH   8  11
ATOM     11  C   UNL d   1      28.469 -14.560   1.440  0.00  0.00     0.092 C 
ATOM     12  C   UNL d   1      28.495 -14.160   2.772  0.00  0.00     0.133 C 
ATOM     13  F   UNL d   1      27.360 -13.906   3.438  0.00  0.00    -0.205 F 
ATOM     14  C   UNL d   1      29.703 -14.070   3.462  0.00  0.00     0.043 C 
ATOM     15  C   UNL d   1      30.882 -14.501   2.856  0.00  0.00     0.005 C 
ATOM     16  C   UNL d   1      30.883 -14.817   1.499  0.00  0.00     0.025 C 
ATOM     17  C   UNL d   1      29.685 -14.809   0.781  0.00  0.00     0.052 C 
ATOM     18 CL   UNL d   1      29.798 -15.059  -0.930  0.00  0.00    -0.083 Cl
ENDBRANCH   8  11
ENDBRANCH   4   7
BRANCH   1  19
ATOM     19  N   UNL d   1      22.097 -18.367  -1.437  0.00  0.00    -0.340 N 
ATOM     20  H   UNL d   1      22.196 -18.646  -2.403  0.00  0.00     0.167 HD
BRANCH  19  21
ATOM     21  C   UNL d   1      21.082 -18.990  -0.687  0.00  0.00     0.150 C 
ATOM     22  C   UNL d   1      21.292 -19.330   0.639  0.00  0.00     0.054 C 
ATOM     23  C   UNL d   1      20.241 -19.869   1.381  0.00  0.00     0.032 C 
ATOM     24  C   UNL d   1      19.079 -20.243   0.728  0.00  0.00     0.053 C 
ATOM     25  C   UNL d   1      18.020 -21.050   1.410  0.00  0.00     0.072 C 
ATOM     26  N   UNL d   1      18.916 -19.982  -0.579  0.00  0.00    -0.153 NA
ATOM     27  N   UNL d   1      19.905 -19.318  -1.268  0.00  0.00    -0.132 NA
ENDBRANCH  19  21
ENDBRANCH   1  19
TORSDOF 4
ENDMDL
MODEL 2
REMARK VINA RESULT:   -32.532      1.782      2.115
REMARK INTER + INTRA:         -34.547
REMARK INTER:                 -33.725
REMARK INTRA:                  -0.822
REMARK CONF_INDEPENDENT:        1.193
REMARK UNBOUND:                -0.822
REMARK  4 active torsions:
REMARK  status: ('A' for Active; 'I' for Inactive)
REMARK    1  A    between atoms: C_5  and  N_6 
REMARK    2  A    between atoms: N_6  and  C_7 
REMARK    3  A    between atoms: C_10  and  N_11 
REMARK       I    between atoms: N_11  and  C_12 
REMARK    4  A    between atoms: C_12  and  C_14 
ROOT
ATOM      1  C   UNL d   1      24.382 -17.571  -0.818  0.00  0.00     0.033 C 
ATOM      2  C   UNL d   1      25.145 -18.338   0.063  0.00  0.00     0.032 C 
ATOM      3  C   UNL d   1      26.379 -17.857   0.533  0.00  0.00     0.032 C 
ATOM      4  C   UNL d   1      26.723 -16.512   0.365  0.00  0.00     0.035 C 
ATOM      5  C   UNL d   1      25.865 -15.714  -0.393  0.00  0.00     0.032 C 
ATOM      6  C   UNL d   1      24.741 -16.242  -1.019  0.00  0.00     0.032 C 
ENDROOT
BRANCH   4   7
ATOM      7  N   UNL d   1      27.883 -15.985   0.996  0.00  0.00    -0.323 N 
ATOM      8  C   UNL d   1      27.916 -14.782   1.681  0.00  0.00     0.261 C 
ATOM      9  O   UNL d   1      27.006 -13.942   1.734  0.00  0.00    -0.267 OA
ATOM     10  H   UNL d   1      28.717 -16.564   0.987  0.00  0.00     0.169 HD
BRANCH   8  11
ATOM     11  C   UNL d   1      29.124 -14.398   2.417  0.00  0.00     0.092 C 
ATOM     12  C   UNL d   1      30.274 -14.034   1.725  0.00  0.00     0.133 C 
ATOM     13  F   UNL d   1      30.380 -14.242   0.406  0.00  0.00    -0.205 F 
ATOM     14  C   UNL d   1      31.323 -13.391   2.381  0.00  0.00     0.043 C 
ATOM     15  C   UNL d   1      31.173 -12.998   3.710  0.00  0.00     0.005 C 
ATOM     16  C   UNL d   1      30.067 -13.433   4.437  0.00  0.00     0.025 C 
ATOM     17  C   UNL d   1      29.061 -14.166   3.802  0.00  0.00     0.052 C 
ATOM     18 CL   UNL d   1      27.803 -14.802   4.810  0.00  0.00    -0.083 Cl
ENDBRANCH   8  11
ENDBRANCH   4   7
BRANCH   1  19
ATOM     19  N   UNL d   1      23.330 -18.166  -1.533  0.00  0.00    -0.340 N 
ATOM     20  H   UNL d   1      23.588 -18.590  -2.413  0.00  0.00     0.167 HD
BRANCH  19  21
ATOM     21  C   UNL d   1      22.151 -18.627  -0.917  0.00  0.00     0.150 C 
ATOM     22  C   UNL d   1      22.139 -18.948   0.430  0.00  0.00     0.054 C 
ATOM     23  C   UNL d   1      20.937 -19.322   1.032  0.00  0.00     0.032 C 
ATOM     24  C   UNL d   1      19.831 -19.562   0.235  0.00  0.00     0.053 C 
ATOM     25  C   UNL d   1      18.595 -20.203   0.780  0.00  0.00     0.072 C 
ATOM     26  N   UNL d   1      19.877 -19.325  -1.086  0.00  0.00    -0.153 NA
ATOM     27  N   UNL d   1      21.027 -18.817  -1.645  0.00  0.00    -0.132 NA
ENDBRANCH  19  21
ENDBRANCH   1  19
TORSDOF 4
ENDMDL
MODEL 3
REMARK VINA RESULT:   -32.374      2.138      2.695
REMARK INTER + INTRA:         -34.358
REMARK INTER:                 -33.567
REMARK INTRA:                  -0.791
REMARK CONF_INDEPENDENT:        1.193
REMARK UNBOUND:                -0.791
REMARK  4 active torsions:
REMARK  status: ('A' for Active; 'I' for Inactive)
REMARK    1  A    between atoms: C_5  and  N_6 
REMARK    2  A    between atoms: N_6  and  C_7 
REMARK    3  A    between atoms: C_10  and  N_11 
REMARK       I    between atoms: N_11  and  C_12 
REMARK    4  A    between atoms: C_12  and  C_14 
ROOT
ATOM      1  C   UNL d   1      22.759 -17.728  -0.911  0.00  0.00     0.033 C 
ATOM      2  C   UNL d   1      23.424 -16.510  -1.049  0.00  0.00     0.032 C 
ATOM      3  C   UNL d   1      24.721 -16.350  -0.531  0.00  0.00     0.032 C 
ATOM      4  C   UNL d   1      25.467 -17.466  -0.136  0.00  0.00     0.035 C 
ATOM      5  C   UNL d   1      24.831 -18.708  -0.152  0.00  0.00     0.032 C 
ATOM      6  C   UNL d   1      23.486 -18.834  -0.482  0.00  0.00     0.032 C 
ENDROOT
BRANCH   4   7
ATOM      7  N   UNL d   1      26.837 -17.325   0.216  0.00  0.00    -0.323 N 
ATOM      8  C   UNL d   1      27.828 -16.927  -0.666  0.00  0.00     0.261 C 
ATOM      9  O   UNL d   1      27.703 -16.769  -1.889  0.00  0.00    -0.267 OA
ATOM     10  H   UNL d   1      27.081 -17.469   1.191  0.00  0.00     0.169 HD
BRANCH   8  11
ATOM     11  C   UNL d   1      29.184 -16.674  -0.168  0.00  0.00     0.092 C 
ATOM     12  C   UNL d   1      30.245 -17.455  -0.612  0.00  0.00     0.133 C 
ATOM     13  F   UNL d   1      30.030 -18.579  -1.310  0.00  0.00    -0.205 F 
ATOM     14  C   UNL d   1      31.562 -17.055  -0.390  0.00  0.00     0.043 C 
ATOM     15  C   UNL d   1      31.822 -15.806   0.171  0.00  0.00     0.005 C 
ATOM     16  C   UNL d   1      30.773 -15.056   0.700  0.00  0.00     0.025 C 
ATOM     17  C   UNL d   1      29.458 -15.507   0.566  0.00  0.00     0.052 C 
ATOM     18 CL   UNL d   1      28.233 -14.599   1.387  0.00  0.00    -0.083 Cl
ENDBRANCH   8  11
ENDBRANCH   4   7
BRANCH   1  19
ATOM     19  N   UNL d   1      21.373 -17.797  -1.129  0.00  0.00    -0.340 N 
ATOM     20  H   UNL d   1      21.046 -17.368  -1.983  0.00  0.00     0.167 HD
BRANCH  19  21
ATOM     21  C   UNL d   1      20.558 -18.791  -0.553  0.00  0.00     0.150 C 
ATOM     22  C   UNL d   1      20.828 -19.278   0.714  0.00  0.00     0.054 C 
ATOM     23  C   UNL d   1      19.956 -20.200   1.292  0.00  0.00     0.032 C 
ATOM     24  C   UNL d   1      18.957 -20.761   0.515  0.00  0.00     0.053 C 
ATOM     25  C   UNL d   1      18.154 -21.928   0.991  0.00  0.00     0.072 C 
ATOM     26  N   UNL d   1      18.754 -20.338  -0.743  0.00  0.00    -0.153 NA
ATOM     27  N   UNL d   1      19.531 -19.324  -1.254  0.00  0.00    -0.132 NA
ENDBRANCH  19  21
ENDBRANCH   1  19
TORSDOF 4
ENDMDL
MODEL 4
REMARK VINA RESULT:   -32.093      2.227      2.712
REMARK INTER + INTRA:         -33.868
REMARK INTER:                 -33.286
REMARK INTRA:                  -0.582
REMARK CONF_INDEPENDENT:        1.193
REMARK UNBOUND:                -0.582
REMARK  4 active torsions:
REMARK  status: ('A' for Active; 'I' for Inactive)
REMARK    1  A    between atoms: C_5  and  N_6 
REMARK    2  A    between atoms: N_6  and  C_7 
REMARK    3  A    between atoms: C_10  and  N_11 
REMARK       I    between atoms: N_11  and  C_12 
REMARK    4  A    between atoms: C_12  and  C_14 
ROOT
ATOM      1  C   UNL d   1      24.128 -17.214  -0.776  0.00  0.00     0.033 C 
ATOM      2  C   UNL d   1      25.029 -16.809  -1.760  0.00  0.00     0.032 C 
ATOM      3  C   UNL d   1      26.408 -16.777  -1.488  0.00  0.00     0.032 C 
ATOM      4  C   UNL d   1      26.918 -17.414  -0.352  0.00  0.00     0.035 C 
ATOM      5  C   UNL d   1      26.004 -17.956   0.552  0.00  0.00     0.032 C 
ATOM      6  C   UNL d   1      24.632 -17.815   0.374  0.00  0.00     0.032 C 
ENDROOT
BRANCH   4   7
ATOM      7  N   UNL d   1      28.322 -17.539  -0.171  0.00  0.00    -0.323 N 
ATOM      8  C   UNL d   1      29.233 -16.529  -0.431  0.00  0.00     0.261 C 
ATOM      9  O   UNL d   1      28.988 -15.441  -0.973  0.00  0.00    -0.267 OA
ATOM     10  H   UNL d   1      28.660 -18.408   0.232  0.00  0.00     0.169 HD
BRANCH   8  11
ATOM     11  C   UNL d   1      30.643 -16.712  -0.075  0.00  0.00     0.092 C 
ATOM     12  C   UNL d   1      31.199 -15.977   0.967  0.00  0.00     0.133 C 
ATOM     13  F   UNL d   1      30.542 -14.942   1.508  0.00  0.00    -0.205 F 
ATOM     14  C   UNL d   1      32.430 -16.339   1.512  0.00  0.00     0.043 C 
ATOM     15  C   UNL d   1      33.054 -17.515   1.096  0.00  0.00     0.005 C 
ATOM     16  C   UNL d   1      32.555 -18.208  -0.003  0.00  0.00     0.025 C 
ATOM     17  C   UNL d   1      31.371 -17.786  -0.615  0.00  0.00     0.052 C 
ATOM     18 CL   UNL d   1      30.907 -18.606  -2.069  0.00  0.00    -0.083 Cl
ENDBRANCH   8  11
ENDBRANCH   4   7
BRANCH   1  19
ATOM     19  N   UNL d   1      22.758 -16.944  -0.925  0.00  0.00    -0.340 N 
ATOM     20  H   UNL d   1      22.527 -16.236  -1.607  0.00  0.00     0.167 HD
BRANCH  19  21
ATOM     21  C   UNL d   1      21.755 -17.878  -0.600  0.00  0.00     0.150 C 
ATOM     22  C   UNL d   1      22.031 -18.949   0.232  0.00  0.00     0.054 C 
ATOM     23  C   UNL d   1      20.998 -19.810   0.603  0.00  0.00     0.032 C 
ATOM     24  C   UNL d   1      19.770 -19.698  -0.026  0.00  0.00     0.053 C 
ATOM     25  C   UNL d   1      18.707 -20.736   0.138  0.00  0.00     0.072 C 
ATOM     26  N   UNL d   1      19.537 -18.701  -0.895  0.00  0.00    -0.153 NA
ATOM     27  N   UNL d   1      20.521 -17.772  -1.144  0.00  0.00    -0.132 NA
ENDBRANCH  19  21
ENDBRANCH   1  19
TORSDOF 4
ENDMDL
MODEL 5
REMARK VINA RESULT:   -31.634      4.314      5.218
REMARK INTER + INTRA:         -33.663
REMARK INTER:                 -32.827
REMARK INTRA:                  -0.836
REMARK CONF_INDEPENDENT:        1.193
REMARK UNBOUND:                -0.836
REMARK  4 active torsions:
REMARK  status: ('A' for Active; 'I' for Inactive)
REMARK    1  A    between atoms: C_5  and  N_6 
REMARK    2  A    between atoms: N_6  and  C_7 
REMARK    3  A    between atoms: C_10  and  N_11 
REMARK       I    between atoms: N_11  and  C_12 
REMARK    4  A    between atoms: C_12  and  C_14 
ROOT
ATOM      1  C   UNL d   1      23.679 -17.591  -0.364  0.00  0.00     0.033 C 
ATOM      2  C   UNL d   1      23.257 -16.404  -0.962  0.00  0.00     0.032 C 
ATOM      3  C   UNL d   1      24.157 -15.633  -1.718  0.00  0.00     0.032 C 
ATOM      4  C   UNL d   1      25.383 -16.173  -2.122  0.00  0.00     0.035 C 
ATOM      5  C   UNL d   1      25.725 -17.436  -1.637  0.00  0.00     0.032 C 
ATOM      6  C   UNL d   1      24.915 -18.114  -0.732  0.00  0.00     0.032 C 
ENDROOT
BRANCH   4   7
ATOM      7  N   UNL d   1      26.212 -15.466  -3.035  0.00  0.00    -0.323 N 
ATOM      8  C   UNL d   1      25.746 -14.530  -3.943  0.00  0.00     0.261 C 
ATOM      9  O   UNL d   1      24.558 -14.273  -4.188  0.00  0.00    -0.267 OA
ATOM     10  H   UNL d   1      27.213 -15.620  -2.965  0.00  0.00     0.169 HD
BRANCH   8  11
ATOM     11  C   UNL d   1      26.700 -13.753  -4.740  0.00  0.00     0.092 C 
ATOM     12  C   UNL d   1      27.664 -14.405  -5.502  0.00  0.00     0.133 C 
ATOM     13  F   UNL d   1      27.889 -15.717  -5.353  0.00  0.00    -0.205 F 
ATOM     14  C   UNL d   1      28.377 -13.717  -6.482  0.00  0.00     0.043 C 
ATOM     15  C   UNL d   1      28.042 -12.399  -6.788  0.00  0.00     0.005 C 
ATOM     16  C   UNL d   1      27.144 -11.710  -5.975  0.00  0.00     0.025 C 
ATOM     17  C   UNL d   1      26.502 -12.375  -4.927  0.00  0.00     0.052 C 
ATOM     18 CL   UNL d   1      25.526 -11.408  -3.871  0.00  0.00    -0.083 Cl
ENDBRANCH   8  11
ENDBRANCH   4   7
BRANCH   1  19
ATOM     19  N   UNL d   1      22.898 -18.186   0.640  0.00  0.00    -0.340 N 
ATOM     20  H   UNL d   1      23.095 -17.879   1.582  0.00  0.00     0.167 HD
BRANCH  19  21
ATOM     21  C   UNL d   1      21.625 -18.734   0.394  0.00  0.00     0.150 C 
ATOM     22  C   UNL d   1      20.901 -19.325   1.415  0.00  0.00     0.054 C 
ATOM     23  C   UNL d   1      19.609 -19.784   1.159  0.00  0.00     0.032 C 
ATOM     24  C   UNL d   1      19.156 -19.827  -0.148  0.00  0.00     0.053 C 
ATOM     25  C   UNL d   1      17.892 -20.534  -0.518  0.00  0.00     0.072 C 
ATOM     26  N   UNL d   1      19.902 -19.325  -1.145  0.00  0.00    -0.153 NA
ATOM     27  N   UNL d   1      21.115 -18.742  -0.860  0.00  0.00    -0.132 NA
ENDBRANCH  19  21
ENDBRANCH   1  19
TORSDOF 4
ENDMDL
MODEL 6
REMARK VINA RESULT:   -30.368      1.485      1.603
REMARK INTER + INTRA:         -32.295
REMARK INTER:                 -31.561
REMARK INTRA:                  -0.735
REMARK CONF_INDEPENDENT:        1.193
REMARK UNBOUND:                -0.735
REMARK  4 active torsions:
REMARK  status: ('A' for Active; 'I' for Inactive)
REMARK    1  A    between atoms: C_5  and  N_6 
REMARK    2  A    between atoms: N_6  and  C_7 
REMARK    3  A    between atoms: C_10  and  N_11 
REMARK       I    between atoms: N_11  and  C_12 
REMARK    4  A    between atoms: C_12  and  C_14 
ROOT
ATOM      1  C   UNL d   1      24.213 -17.240  -1.334  0.00  0.00     0.033 C 
ATOM      2  C   UNL d   1      24.909 -17.424  -0.139  0.00  0.00     0.032 C 
ATOM      3  C   UNL d   1      26.040 -16.639   0.148  0.00  0.00     0.032 C 
ATOM      4  C   UNL d   1      26.311 -15.489  -0.601  0.00  0.00     0.035 C 
ATOM      5  C   UNL d   1      25.502 -15.233  -1.710  0.00  0.00     0.032 C 
ATOM      6  C   UNL d   1      24.504 -16.118  -2.104  0.00  0.00     0.032 C 
ENDROOT
BRANCH   4   7
ATOM      7  N   UNL d   1      27.344 -14.599  -0.200  0.00  0.00    -0.323 N 
ATOM      8  C   UNL d   1      27.870 -14.545   1.080  0.00  0.00     0.261 C 
ATOM      9  O   UNL d   1      27.443 -15.149   2.075  0.00  0.00    -0.267 OA
ATOM     10  H   UNL d   1      27.755 -14.014  -0.921  0.00  0.00     0.169 HD
BRANCH   8  11
ATOM     11  C   UNL d   1      29.031 -13.693   1.353  0.00  0.00     0.092 C 
ATOM     12  C   UNL d   1      28.849 -12.412   1.864  0.00  0.00     0.133 C 
ATOM     13  F   UNL d   1      27.633 -11.851   1.903  0.00  0.00    -0.205 F 
ATOM     14  C   UNL d   1      29.923 -11.705   2.403  0.00  0.00     0.043 C 
ATOM     15  C   UNL d   1      31.162 -12.326   2.544  0.00  0.00     0.005 C 
ATOM     16  C   UNL d   1      31.380 -13.571   1.957  0.00  0.00     0.025 C 
ATOM     17  C   UNL d   1      30.326 -14.238   1.327  0.00  0.00     0.052 C 
ATOM     18 CL   UNL d   1      30.718 -15.702   0.488  0.00  0.00    -0.083 Cl
ENDBRANCH   8  11
ENDBRANCH   4   7
BRANCH   1  19
ATOM     19  N   UNL d   1      23.301 -18.215  -1.770  0.00  0.00    -0.340 N 
ATOM     20  H   UNL d   1      23.668 -18.891  -2.425  0.00  0.00     0.167 HD
BRANCH  19  21
ATOM     21  C   UNL d   1      22.169 -18.592  -1.022  0.00  0.00     0.150 C 
ATOM     22  C   UNL d   1      22.243 -18.715   0.355  0.00  0.00     0.054 C 
ATOM     23  C   UNL d   1      21.085 -19.007   1.077  0.00  0.00     0.032 C 
ATOM     24  C   UNL d   1      19.938 -19.368   0.393  0.00  0.00     0.053 C 
ATOM     25  C   UNL d   1      18.747 -19.933   1.099  0.00  0.00     0.072 C 
ATOM     26  N   UNL d   1      19.901 -19.324  -0.949  0.00  0.00    -0.153 NA
ATOM     27  N   UNL d   1      21.007 -18.894  -1.645  0.00  0.00    -0.132 NA
ENDBRANCH  19  21
ENDBRANCH   1  19
TORSDOF 4
ENDMDL
MODEL 7
REMARK VINA RESULT:   -30.275      4.155      4.831
REMARK INTER + INTRA:         -32.270
REMARK INTER:                 -31.468
REMARK INTRA:                  -0.802
REMARK CONF_INDEPENDENT:        1.193
REMARK UNBOUND:                -0.802
REMARK  4 active torsions:
REMARK  status: ('A' for Active; 'I' for Inactive)
REMARK    1  A    between atoms: C_5  and  N_6 
REMARK    2  A    between atoms: N_6  and  C_7 
REMARK    3  A    between atoms: C_10  and  N_11 
REMARK       I    between atoms: N_11  and  C_12 
REMARK    4  A    between atoms: C_12  and  C_14 
ROOT
ATOM      1  C   UNL d   1      23.763 -16.033  -1.609  0.00  0.00     0.033 C 
ATOM      2  C   UNL d   1      24.188 -14.915  -2.328  0.00  0.00     0.032 C 
ATOM      3  C   UNL d   1      25.545 -14.764  -2.664  0.00  0.00     0.032 C 
ATOM      4  C   UNL d   1      26.426 -15.844  -2.544  0.00  0.00     0.035 C 
ATOM      5  C   UNL d   1      25.941 -17.015  -1.961  0.00  0.00     0.032 C 
ATOM      6  C   UNL d   1      24.649 -17.095  -1.453  0.00  0.00     0.032 C 
ENDROOT
BRANCH   4   7
ATOM      7  N   UNL d   1      27.751 -15.747  -3.052  0.00  0.00    -0.323 N 
ATOM      8  C   UNL d   1      28.059 -15.555  -4.389  0.00  0.00     0.261 C 
ATOM      9  O   UNL d   1      27.260 -15.574  -5.336  0.00  0.00    -0.267 OA
ATOM     10  H   UNL d   1      28.507 -15.760  -2.375  0.00  0.00     0.169 HD
BRANCH   8  11
ATOM     11  C   UNL d   1      29.451 -15.326  -4.788  0.00  0.00     0.092 C 
ATOM     12  C   UNL d   1      29.863 -14.055  -5.176  0.00  0.00     0.133 C 
ATOM     13  F   UNL d   1      28.971 -13.084  -5.412  0.00  0.00    -0.205 F 
ATOM     14  C   UNL d   1      31.219 -13.748  -5.272  0.00  0.00     0.043 C 
ATOM     15  C   UNL d   1      32.172 -14.679  -4.859  0.00  0.00     0.005 C 
ATOM     16  C   UNL d   1      31.778 -15.979  -4.554  0.00  0.00     0.025 C 
ATOM     17  C   UNL d   1      30.421 -16.315  -4.556  0.00  0.00     0.052 C 
ATOM     18 CL   UNL d   1      30.030 -17.986  -4.323  0.00  0.00    -0.083 Cl
ENDBRANCH   8  11
ENDBRANCH   4   7
BRANCH   1  19
ATOM     19  N   UNL d   1      22.498 -16.034  -0.999  0.00  0.00    -0.340 N 
ATOM     20  H   UNL d   1      21.951 -15.196  -1.133  0.00  0.00     0.167 HD
BRANCH  19  21
ATOM     21  C   UNL d   1      21.801 -17.217  -0.689  0.00  0.00     0.150 C 
ATOM     22  C   UNL d   1      22.369 -18.177   0.130  0.00  0.00     0.054 C 
ATOM     23  C   UNL d   1      21.622 -19.300   0.487  0.00  0.00     0.032 C 
ATOM     24  C   UNL d   1      20.412 -19.531  -0.143  0.00  0.00     0.053 C 
ATOM     25  C   UNL d   1      19.685 -20.829   0.005  0.00  0.00     0.072 C 
ATOM     26  N   UNL d   1      19.905 -18.629  -1.000  0.00  0.00    -0.153 NA
ATOM     27  N   UNL d   1      20.586 -17.457  -1.233  0.00  0.00    -0.132 NA
ENDBRANCH  19  21
ENDBRANCH   1  19
TORSDOF 4
ENDMDL
MODEL 8
REMARK VINA RESULT:   -29.973      3.964      4.628
REMARK INTER + INTRA:         -32.078
REMARK INTER:                 -31.166
REMARK INTRA:                  -0.912
REMARK CONF_INDEPENDENT:        1.193
REMARK UNBOUND:                -0.912
REMARK  4 active torsions:
REMARK  status: ('A' for Active; 'I' for Inactive)
REMARK    1  A    between atoms: C_5  and  N_6 
REMARK    2  A    between atoms: N_6  and  C_7 
REMARK    3  A    between atoms: C_10  and  N_11 
REMARK       I    between atoms: N_11  and  C_12 
REMARK    4  A    between atoms: C_12  and  C_14 
ROOT
ATOM      1  C   UNL d   1      23.357 -17.599  -0.155  0.00  0.00     0.033 C 
ATOM      2  C   UNL d   1      24.576 -18.044  -0.666  0.00  0.00     0.032 C 
ATOM      3  C   UNL d   1      25.128 -17.437  -1.808  0.00  0.00     0.032 C 
ATOM      4  C   UNL d   1      24.627 -16.216  -2.271  0.00  0.00     0.035 C 
ATOM      5  C   UNL d   1      23.490 -15.703  -1.644  0.00  0.00     0.032 C 
ATOM      6  C   UNL d   1      22.833 -16.404  -0.639  0.00  0.00     0.032 C 
ENDROOT
BRANCH   4   7
ATOM      7  N   UNL d   1      25.296 -15.514  -3.311  0.00  0.00    -0.323 N 
ATOM      8  C   UNL d   1      26.619 -15.109  -3.248  0.00  0.00     0.261 C 
ATOM      9  O   UNL d   1      27.360 -15.173  -2.256  0.00  0.00    -0.267 OA
ATOM     10  H   UNL d   1      24.779 -15.360  -4.171  0.00  0.00     0.169 HD
BRANCH   8  11
ATOM     11  C   UNL d   1      27.255 -14.519  -4.430  0.00  0.00     0.092 C 
ATOM     12  C   UNL d   1      26.655 -13.446  -5.080  0.00  0.00     0.133 C 
ATOM     13  F   UNL d   1      25.399 -13.079  -4.791  0.00  0.00    -0.205 F 
ATOM     14  C   UNL d   1      27.371 -12.689  -6.007  0.00  0.00     0.043 C 
ATOM     15  C   UNL d   1      28.731 -12.929  -6.196  0.00  0.00     0.005 C 
ATOM     16  C   UNL d   1      29.319 -14.053  -5.621  0.00  0.00     0.025 C 
ATOM     17  C   UNL d   1      28.572 -14.871  -4.769  0.00  0.00     0.052 C 
ATOM     18 CL   UNL d   1      29.330 -16.331  -4.225  0.00  0.00    -0.083 Cl
ENDBRANCH   8  11
ENDBRANCH   4   7
BRANCH   1  19
ATOM     19  N   UNL d   1      22.653 -18.392   0.766  0.00  0.00    -0.340 N 
ATOM     20  H   UNL d   1      22.896 -18.249   1.736  0.00  0.00     0.167 HD
BRANCH  19  21
ATOM     21  C   UNL d   1      21.383 -18.936   0.493  0.00  0.00     0.150 C 
ATOM     22  C   UNL d   1      20.729 -19.709   1.436  0.00  0.00     0.054 C 
ATOM     23  C   UNL d   1      19.438 -20.164   1.170  0.00  0.00     0.032 C 
ATOM     24  C   UNL d   1      18.919 -20.009  -0.104  0.00  0.00     0.053 C 
ATOM     25  C   UNL d   1      17.655 -20.689  -0.526  0.00  0.00     0.072 C 
ATOM     26  N   UNL d   1      19.598 -19.325  -1.039  0.00  0.00    -0.153 NA
ATOM     27  N   UNL d   1      20.809 -18.756  -0.719  0.00  0.00    -0.132 NA
ENDBRANCH  19  21
ENDBRANCH   1  19
TORSDOF 4
ENDMDL
