MODEL 1
REMARK VINA RESULT:    -7.613      0.000      0.000
REMARK INTER + INTRA:         -10.016
REMARK INTER:                  -9.104
REMARK INTRA:                  -0.912
REMARK CONF_INDEPENDENT:        1.492
REMARK UNBOUND:                -0.912
REMARK  5 active torsions:
REMARK  status: ('A' for Active; 'I' for Inactive)
REMARK    1  A    between atoms: O_2  and  C_3 
REMARK    2  A    between atoms: C_7  and  C_6 
REMARK    3  A    between atoms: C_7  and  N_9 
REMARK       I    between atoms: N_9  and  C_10 
REMARK       I    between atoms: C_10  and  N_12 
REMARK    4  A    between atoms: N_12  and  C_13 
REMARK    5  A    between atoms: C_18  and  O_19 
ROOT
ATOM      1  N   UNL d   1      26.367 -16.047  -0.323  0.00  0.00    -0.335 N 
ATOM      2  C   UNL d   1      26.750 -15.359  -1.466  0.00  0.00     0.321 C 
ATOM      3  O   UNL d   1      26.949 -15.937  -2.538  0.00  0.00    -0.247 OA
ATOM      4  N   UNL d   1      26.675 -13.975  -1.334  0.00  0.00    -0.306 N 
ATOM      5  H   UNL d   1      26.428 -15.585   0.572  0.00  0.00     0.165 HD
ATOM      6  H   UNL d   1      26.992 -13.552  -0.474  0.00  0.00     0.171 HD
ENDROOT
BRANCH   1   7
ATOM      7  C   UNL d   1      25.945 -17.469  -0.359  0.00  0.00     0.115 C 
ATOM      8  C   UNL d   1      26.313 -18.200   0.936  0.00  0.00     0.037 C 
BRANCH   7   9
ATOM      9  C   UNL d   1      24.437 -17.691  -0.536  0.00  0.00    -0.036 A 
ATOM     10  C   UNL d   1      23.557 -16.617  -0.744  0.00  0.00     0.012 A 
ATOM     11  C   UNL d   1      22.179 -16.821  -0.895  0.00  0.00     0.037 A 
ATOM     12  C   UNL d   1      21.641 -18.099  -0.795  0.00  0.00     0.068 A 
ATOM     13  C   UNL d   1      22.489 -19.175  -0.540  0.00  0.00     0.037 A 
ATOM     14  C   UNL d   1      23.874 -18.974  -0.414  0.00  0.00     0.012 A 
BRANCH  12  15
ATOM     15  O   UNL d   1      20.306 -18.214  -1.068  0.00  0.00    -0.356 OA
ATOM     16  C   UNL d   1      19.679 -19.368  -0.518  0.00  0.00     0.210 C 
ENDBRANCH  12  15
ENDBRANCH   7   9
ENDBRANCH   1   7
BRANCH   4  17
ATOM     17  C   UNL d   1      26.504 -13.108  -2.464  0.00  0.00     0.069 A 
ATOM     18  C   UNL d   1      26.956 -11.779  -2.374  0.00  0.00     0.032 A 
ATOM     19  C   UNL d   1      26.804 -10.881  -3.451  0.00  0.00     0.002 A 
ATOM     20  C   UNL d   1      26.217 -11.298  -4.639  0.00  0.00     0.003 A 
ATOM     21  C   UNL d   1      25.726 -12.590  -4.724  0.00  0.00     0.039 A 
ATOM     22  C   UNL d   1      25.839 -13.489  -3.650  0.00  0.00     0.095 A 
BRANCH  22  23
ATOM     23  O   UNL d   1      25.148 -14.625  -3.957  0.00  0.00    -0.354 OA
ATOM     24  C   UNL d   1      25.599 -15.412  -5.020  0.00  0.00     0.210 C 
ENDBRANCH  22  23
ENDBRANCH   4  17
TORSDOF 5
ENDMDL
MODEL 2
REMARK VINA RESULT:    -7.230      1.964      2.210
REMARK INTER + INTRA:          -9.544
REMARK INTER:                  -8.722
REMARK INTRA:                  -0.822
REMARK CONF_INDEPENDENT:        1.492
REMARK UNBOUND:                -0.822
REMARK  5 active torsions:
REMARK  status: ('A' for Active; 'I' for Inactive)
REMARK    1  A    between atoms: O_2  and  C_3 
REMARK    2  A    between atoms: C_7  and  C_6 
REMARK    3  A    between atoms: C_7  and  N_9 
REMARK       I    between atoms: N_9  and  C_10 
REMARK       I    between atoms: C_10  and  N_12 
REMARK    4  A    between atoms: N_12  and  C_13 
REMARK    5  A    between atoms: C_18  and  O_19 
ROOT
ATOM      1  N   UNL d   1      26.661 -16.674  -1.946  0.00  0.00    -0.335 N 
ATOM      2  C   UNL d   1      26.235 -15.828  -2.960  0.00  0.00     0.321 C 
ATOM      3  O   UNL d   1      25.154 -15.234  -2.902  0.00  0.00    -0.247 OA
ATOM      4  N   UNL d   1      27.216 -15.558  -3.910  0.00  0.00    -0.306 N 
ATOM      5  H   UNL d   1      27.429 -17.303  -2.122  0.00  0.00     0.165 HD
ATOM      6  H   UNL d   1      27.805 -16.315  -4.226  0.00  0.00     0.171 HD
ENDROOT
BRANCH   1   7
ATOM      7  C   UNL d   1      25.974 -16.745  -0.633  0.00  0.00     0.115 C 
ATOM      8  C   UNL d   1      25.920 -15.376   0.051  0.00  0.00     0.037 C 
BRANCH   7   9
ATOM      9  C   UNL d   1      24.518 -17.227  -0.691  0.00  0.00    -0.036 A 
ATOM     10  C   UNL d   1      23.453 -16.325  -0.845  0.00  0.00     0.012 A 
ATOM     11  C   UNL d   1      22.124 -16.767  -0.886  0.00  0.00     0.037 A 
ATOM     12  C   UNL d   1      21.824 -18.115  -0.728  0.00  0.00     0.068 A 
ATOM     13  C   UNL d   1      22.861 -19.023  -0.526  0.00  0.00     0.037 A 
ATOM     14  C   UNL d   1      24.196 -18.584  -0.509  0.00  0.00     0.012 A 
BRANCH  12  15
ATOM     15  O   UNL d   1      20.512 -18.464  -0.896  0.00  0.00    -0.356 OA
ATOM     16  C   UNL d   1      20.140 -19.702  -0.299  0.00  0.00     0.210 C 
ENDBRANCH  12  15
ENDBRANCH   7   9
ENDBRANCH   1   7
BRANCH   4  17
ATOM     17  C   UNL d   1      27.203 -14.365  -4.705  0.00  0.00     0.069 A 
ATOM     18  C   UNL d   1      26.474 -13.252  -4.247  0.00  0.00     0.032 A 
ATOM     19  C   UNL d   1      26.419 -12.057  -4.993  0.00  0.00     0.002 A 
ATOM     20  C   UNL d   1      27.104 -11.945  -6.195  0.00  0.00     0.003 A 
ATOM     21  C   UNL d   1      27.787 -13.047  -6.681  0.00  0.00     0.039 A 
ATOM     22  C   UNL d   1      27.826 -14.258  -5.968  0.00  0.00     0.095 A 
BRANCH  22  23
ATOM     23  O   UNL d   1      28.438 -15.200  -6.741  0.00  0.00    -0.354 OA
ATOM     24  C   UNL d   1      29.794 -15.460  -6.526  0.00  0.00     0.210 C 
ENDBRANCH  22  23
ENDBRANCH   4  17
TORSDOF 5
ENDMDL
MODEL 3
REMARK VINA RESULT:    -7.043      2.234      2.439
REMARK INTER + INTRA:          -9.293
REMARK INTER:                  -8.534
REMARK INTRA:                  -0.758
REMARK CONF_INDEPENDENT:        1.492
REMARK UNBOUND:                -0.758
REMARK  5 active torsions:
REMARK  status: ('A' for Active; 'I' for Inactive)
REMARK    1  A    between atoms: O_2  and  C_3 
REMARK    2  A    between atoms: C_7  and  C_6 
REMARK    3  A    between atoms: C_7  and  N_9 
REMARK       I    between atoms: N_9  and  C_10 
REMARK       I    between atoms: C_10  and  N_12 
REMARK    4  A    between atoms: N_12  and  C_13 
REMARK    5  A    between atoms: C_18  and  O_19 
ROOT
ATOM      1  N   UNL d   1      26.452 -16.238  -1.200  0.00  0.00    -0.335 N 
ATOM      2  C   UNL d   1      27.653 -16.085  -1.877  0.00  0.00     0.321 C 
ATOM      3  O   UNL d   1      28.500 -16.983  -1.915  0.00  0.00    -0.247 OA
ATOM      4  N   UNL d   1      27.706 -14.937  -2.664  0.00  0.00    -0.306 N 
ATOM      5  H   UNL d   1      25.891 -15.424  -1.005  0.00  0.00     0.165 HD
ATOM      6  H   UNL d   1      27.330 -14.076  -2.292  0.00  0.00     0.171 HD
ENDROOT
BRANCH   1   7
ATOM      7  C   UNL d   1      25.999 -17.552  -0.679  0.00  0.00     0.115 C 
ATOM      8  C   UNL d   1      26.400 -17.746   0.787  0.00  0.00     0.037 C 
BRANCH   7   9
ATOM      9  C   UNL d   1      24.482 -17.775  -0.718  0.00  0.00    -0.036 A 
ATOM     10  C   UNL d   1      23.587 -16.703  -0.868  0.00  0.00     0.012 A 
ATOM     11  C   UNL d   1      22.201 -16.908  -0.893  0.00  0.00     0.037 A 
ATOM     12  C   UNL d   1      21.674 -18.183  -0.721  0.00  0.00     0.068 A 
ATOM     13  C   UNL d   1      22.540 -19.255  -0.522  0.00  0.00     0.037 A 
ATOM     14  C   UNL d   1      23.932 -19.055  -0.522  0.00  0.00     0.012 A 
BRANCH  12  15
ATOM     15  O   UNL d   1      20.320 -18.300  -0.873  0.00  0.00    -0.356 OA
ATOM     16  C   UNL d   1      19.716 -19.325  -0.090  0.00  0.00     0.210 C 
ENDBRANCH  12  15
ENDBRANCH   7   9
ENDBRANCH   1   7
BRANCH   4  17
ATOM     17  C   UNL d   1      28.564 -14.834  -3.809  0.00  0.00     0.069 A 
ATOM     18  C   UNL d   1      29.906 -14.456  -3.620  0.00  0.00     0.032 A 
ATOM     19  C   UNL d   1      30.790 -14.330  -4.711  0.00  0.00     0.002 A 
ATOM     20  C   UNL d   1      30.356 -14.596  -6.003  0.00  0.00     0.003 A 
ATOM     21  C   UNL d   1      29.026 -14.922  -6.209  0.00  0.00     0.039 A 
ATOM     22  C   UNL d   1      28.122 -15.021  -5.137  0.00  0.00     0.095 A 
BRANCH  22  23
ATOM     23  O   UNL d   1      26.869 -15.210  -5.640  0.00  0.00    -0.354 OA
ATOM     24  C   UNL d   1      25.797 -15.285  -4.747  0.00  0.00     0.210 C 
ENDBRANCH  22  23
ENDBRANCH   4  17
TORSDOF 5
ENDMDL
MODEL 4
REMARK VINA RESULT:    -6.934      4.284      5.666
REMARK INTER + INTRA:          -9.020
REMARK INTER:                  -8.425
REMARK INTRA:                  -0.595
REMARK CONF_INDEPENDENT:        1.492
REMARK UNBOUND:                -0.595
REMARK  5 active torsions:
REMARK  status: ('A' for Active; 'I' for Inactive)
REMARK    1  A    between atoms: O_2  and  C_3 
REMARK    2  A    between atoms: C_7  and  C_6 
REMARK    3  A    between atoms: C_7  and  N_9 
REMARK       I    between atoms: N_9  and  C_10 
REMARK       I    between atoms: C_10  and  N_12 
REMARK    4  A    between atoms: N_12  and  C_13 
REMARK    5  A    between atoms: C_18  and  O_19 
ROOT
ATOM      1  N   UNL d   1      26.930 -15.799   0.594  0.00  0.00    -0.335 N 
ATOM      2  C   UNL d   1      27.422 -14.637   1.172  0.00  0.00     0.321 C 
ATOM      3  O   UNL d   1      27.364 -13.546   0.596  0.00  0.00    -0.247 OA
ATOM      4  N   UNL d   1      27.777 -14.788   2.511  0.00  0.00    -0.306 N 
ATOM      5  H   UNL d   1      27.189 -16.690   0.987  0.00  0.00     0.165 HD
ATOM      6  H   UNL d   1      28.264 -15.627   2.791  0.00  0.00     0.171 HD
ENDROOT
BRANCH   1   7
ATOM      7  C   UNL d   1      26.099 -15.780  -0.635  0.00  0.00     0.115 C 
ATOM      8  C   UNL d   1      26.918 -16.145  -1.877  0.00  0.00     0.037 C 
BRANCH   7   9
ATOM      9  C   UNL d   1      24.914 -16.755  -0.629  0.00  0.00    -0.036 A 
ATOM     10  C   UNL d   1      23.608 -16.323  -0.912  0.00  0.00     0.012 A 
ATOM     11  C   UNL d   1      22.526 -17.214  -0.895  0.00  0.00     0.037 A 
ATOM     12  C   UNL d   1      22.716 -18.547  -0.550  0.00  0.00     0.068 A 
ATOM     13  C   UNL d   1      23.995 -18.988  -0.217  0.00  0.00     0.037 A 
ATOM     14  C   UNL d   1      25.085 -18.101  -0.259  0.00  0.00     0.012 A 
BRANCH  12  15
ATOM     15  O   UNL d   1      21.624 -19.362  -0.671  0.00  0.00    -0.356 OA
ATOM     16  C   UNL d   1      20.393 -18.684  -0.895  0.00  0.00     0.210 C 
ENDBRANCH  12  15
ENDBRANCH   7   9
ENDBRANCH   1   7
BRANCH   4  17
ATOM     17  C   UNL d   1      27.796 -13.684   3.425  0.00  0.00     0.069 A 
ATOM     18  C   UNL d   1      27.508 -12.395   2.939  0.00  0.00     0.032 A 
ATOM     19  C   UNL d   1      27.523 -11.272   3.792  0.00  0.00     0.002 A 
ATOM     20  C   UNL d   1      27.806 -11.418   5.144  0.00  0.00     0.003 A 
ATOM     21  C   UNL d   1      28.137 -12.673   5.626  0.00  0.00     0.039 A 
ATOM     22  C   UNL d   1      28.160 -13.799   4.785  0.00  0.00     0.095 A 
BRANCH  22  23
ATOM     23  O   UNL d   1      28.654 -14.858   5.487  0.00  0.00    -0.354 OA
ATOM     24  C   UNL d   1      30.030 -15.101   5.445  0.00  0.00     0.210 C 
ENDBRANCH  22  23
ENDBRANCH   4  17
TORSDOF 5
ENDMDL
MODEL 5
REMARK VINA RESULT:    -6.880      3.908      5.572
REMARK INTER + INTRA:          -8.990
REMARK INTER:                  -8.372
REMARK INTRA:                  -0.618
REMARK CONF_INDEPENDENT:        1.492
REMARK UNBOUND:                -0.618
REMARK  5 active torsions:
REMARK  status: ('A' for Active; 'I' for Inactive)
REMARK    1  A    between atoms: O_2  and  C_3 
REMARK    2  A    between atoms: C_7  and  C_6 
REMARK    3  A    between atoms: C_7  and  N_9 
REMARK       I    between atoms: N_9  and  C_10 
REMARK       I    between atoms: C_10  and  N_12 
REMARK    4  A    between atoms: N_12  and  C_13 
REMARK    5  A    between atoms: C_18  and  O_19 
ROOT
ATOM      1  N   UNL d   1      26.786 -15.629   0.102  0.00  0.00    -0.335 N 
ATOM      2  C   UNL d   1      27.179 -14.635   0.986  0.00  0.00     0.321 C 
ATOM      3  O   UNL d   1      26.686 -13.504   0.957  0.00  0.00    -0.247 OA
ATOM      4  N   UNL d   1      27.999 -15.097   2.014  0.00  0.00    -0.306 N 
ATOM      5  H   UNL d   1      27.355 -16.457   0.008  0.00  0.00     0.165 HD
ATOM      6  H   UNL d   1      28.726 -15.762   1.792  0.00  0.00     0.171 HD
ENDROOT
BRANCH   1   7
ATOM      7  C   UNL d   1      25.598 -15.483  -0.776  0.00  0.00     0.115 C 
ATOM      8  C   UNL d   1      25.992 -15.423  -2.255  0.00  0.00     0.037 C 
BRANCH   7   9
ATOM      9  C   UNL d   1      24.575 -16.623  -0.674  0.00  0.00    -0.036 A 
ATOM     10  C   UNL d   1      23.207 -16.400  -0.895  0.00  0.00     0.012 A 
ATOM     11  C   UNL d   1      22.273 -17.440  -0.791  0.00  0.00     0.037 A 
ATOM     12  C   UNL d   1      22.679 -18.717  -0.418  0.00  0.00     0.068 A 
ATOM     13  C   UNL d   1      24.025 -18.950  -0.147  0.00  0.00     0.037 A 
ATOM     14  C   UNL d   1      24.966 -17.913  -0.276  0.00  0.00     0.012 A 
BRANCH  12  15
ATOM     15  O   UNL d   1      21.717 -19.689  -0.454  0.00  0.00    -0.356 OA
ATOM     16  C   UNL d   1      20.600 -19.458   0.399  0.00  0.00     0.210 C 
ENDBRANCH  12  15
ENDBRANCH   7   9
ENDBRANCH   1   7
BRANCH   4  17
ATOM     17  C   UNL d   1      28.090 -14.426   3.278  0.00  0.00     0.069 A 
ATOM     18  C   UNL d   1      28.115 -15.197   4.455  0.00  0.00     0.032 A 
ATOM     19  C   UNL d   1      28.194 -14.589   5.725  0.00  0.00     0.002 A 
ATOM     20  C   UNL d   1      28.267 -13.208   5.841  0.00  0.00     0.003 A 
ATOM     21  C   UNL d   1      28.196 -12.435   4.694  0.00  0.00     0.039 A 
ATOM     22  C   UNL d   1      28.084 -13.021   3.422  0.00  0.00     0.095 A 
BRANCH  22  23
ATOM     23  O   UNL d   1      27.889 -12.033   2.502  0.00  0.00    -0.354 OA
ATOM     24  C   UNL d   1      27.225 -10.871   2.904  0.00  0.00     0.210 C 
ENDBRANCH  22  23
ENDBRANCH   4  17
TORSDOF 5
ENDMDL
MODEL 6
REMARK VINA RESULT:    -6.725      1.153      2.310
REMARK INTER + INTRA:          -9.101
REMARK INTER:                  -8.217
REMARK INTRA:                  -0.885
REMARK CONF_INDEPENDENT:        1.492
REMARK UNBOUND:                -0.885
REMARK  5 active torsions:
REMARK  status: ('A' for Active; 'I' for Inactive)
REMARK    1  A    between atoms: O_2  and  C_3 
REMARK    2  A    between atoms: C_7  and  C_6 
REMARK    3  A    between atoms: C_7  and  N_9 
REMARK       I    between atoms: N_9  and  C_10 
REMARK       I    between atoms: C_10  and  N_12 
REMARK    4  A    between atoms: N_12  and  C_13 
REMARK    5  A    between atoms: C_18  and  O_19 
ROOT
ATOM      1  N   UNL d   1      26.631 -16.246  -0.403  0.00  0.00    -0.335 N 
ATOM      2  C   UNL d   1      26.832 -15.572  -1.599  0.00  0.00     0.321 C 
ATOM      3  O   UNL d   1      26.747 -16.141  -2.691  0.00  0.00    -0.247 OA
ATOM      4  N   UNL d   1      26.921 -14.189  -1.451  0.00  0.00    -0.306 N 
ATOM      5  H   UNL d   1      26.922 -15.813   0.460  0.00  0.00     0.165 HD
ATOM      6  H   UNL d   1      27.449 -13.818  -0.675  0.00  0.00     0.171 HD
ENDROOT
BRANCH   1   7
ATOM      7  C   UNL d   1      26.075 -17.621  -0.353  0.00  0.00     0.115 C 
ATOM      8  C   UNL d   1      26.386 -18.308   0.980  0.00  0.00     0.037 C 
BRANCH   7   9
ATOM      9  C   UNL d   1      24.551 -17.708  -0.510  0.00  0.00    -0.036 A 
ATOM     10  C   UNL d   1      23.887 -18.945  -0.534  0.00  0.00     0.012 A 
ATOM     11  C   UNL d   1      22.496 -19.022  -0.688  0.00  0.00     0.037 A 
ATOM     12  C   UNL d   1      21.741 -17.868  -0.867  0.00  0.00     0.068 A 
ATOM     13  C   UNL d   1      22.384 -16.633  -0.895  0.00  0.00     0.037 A 
ATOM     14  C   UNL d   1      23.776 -16.552  -0.715  0.00  0.00     0.012 A 
BRANCH  12  15
ATOM     15  O   UNL d   1      20.384 -18.035  -0.895  0.00  0.00    -0.356 OA
ATOM     16  C   UNL d   1      19.931 -19.328  -0.509  0.00  0.00     0.210 C 
ENDBRANCH  12  15
ENDBRANCH   7   9
ENDBRANCH   1   7
BRANCH   4  17
ATOM     17  C   UNL d   1      26.602 -13.285  -2.518  0.00  0.00     0.069 A 
ATOM     18  C   UNL d   1      25.780 -13.735  -3.567  0.00  0.00     0.032 A 
ATOM     19  C   UNL d   1      25.443 -12.892  -4.645  0.00  0.00     0.002 A 
ATOM     20  C   UNL d   1      25.905 -11.583  -4.686  0.00  0.00     0.003 A 
ATOM     21  C   UNL d   1      26.754 -11.141  -3.685  0.00  0.00     0.039 A 
ATOM     22  C   UNL d   1      27.127 -11.978  -2.619  0.00  0.00     0.095 A 
BRANCH  22  23
ATOM     23  O   UNL d   1      28.072 -11.337  -1.872  0.00  0.00    -0.354 OA
ATOM     24  C   UNL d   1      27.940  -9.961  -1.669  0.00  0.00     0.210 C 
ENDBRANCH  22  23
ENDBRANCH   4  17
TORSDOF 5
ENDMDL
MODEL 7
REMARK VINA RESULT:    -6.673      1.522      2.151
REMARK INTER + INTRA:          -9.019
REMARK INTER:                  -8.165
REMARK INTRA:                  -0.854
REMARK CONF_INDEPENDENT:        1.492
REMARK UNBOUND:                -0.854
REMARK  5 active torsions:
REMARK  status: ('A' for Active; 'I' for Inactive)
REMARK    1  A    between atoms: O_2  and  C_3 
REMARK    2  A    between atoms: C_7  and  C_6 
REMARK    3  A    between atoms: C_7  and  N_9 
REMARK       I    between atoms: N_9  and  C_10 
REMARK       I    between atoms: C_10  and  N_12 
REMARK    4  A    between atoms: N_12  and  C_13 
REMARK    5  A    between atoms: C_18  and  O_19 
ROOT
ATOM      1  N   UNL d   1      26.660 -16.601  -2.006  0.00  0.00    -0.335 N 
ATOM      2  C   UNL d   1      26.194 -15.734  -2.985  0.00  0.00     0.321 C 
ATOM      3  O   UNL d   1      25.102 -15.166  -2.887  0.00  0.00    -0.247 OA
ATOM      4  N   UNL d   1      27.150 -15.414  -3.947  0.00  0.00    -0.306 N 
ATOM      5  H   UNL d   1      27.437 -17.207  -2.218  0.00  0.00     0.165 HD
ATOM      6  H   UNL d   1      27.748 -16.148  -4.298  0.00  0.00     0.171 HD
ENDROOT
BRANCH   1   7
ATOM      7  C   UNL d   1      26.002 -16.727  -0.682  0.00  0.00     0.115 C 
ATOM      8  C   UNL d   1      25.951 -15.384   0.053  0.00  0.00     0.037 C 
BRANCH   7   9
ATOM      9  C   UNL d   1      24.549 -17.220  -0.727  0.00  0.00    -0.036 A 
ATOM     10  C   UNL d   1      23.476 -16.326  -0.865  0.00  0.00     0.012 A 
ATOM     11  C   UNL d   1      22.150 -16.777  -0.894  0.00  0.00     0.037 A 
ATOM     12  C   UNL d   1      21.862 -18.129  -0.740  0.00  0.00     0.068 A 
ATOM     13  C   UNL d   1      22.908 -19.030  -0.553  0.00  0.00     0.037 A 
ATOM     14  C   UNL d   1      24.240 -18.580  -0.548  0.00  0.00     0.012 A 
BRANCH  12  15
ATOM     15  O   UNL d   1      20.551 -18.488  -0.895  0.00  0.00    -0.356 OA
ATOM     16  C   UNL d   1      20.203 -19.746  -0.328  0.00  0.00     0.210 C 
ENDBRANCH  12  15
ENDBRANCH   7   9
ENDBRANCH   1   7
BRANCH   4  17
ATOM     17  C   UNL d   1      27.095 -14.198  -4.704  0.00  0.00     0.069 A 
ATOM     18  C   UNL d   1      27.793 -14.125  -5.923  0.00  0.00     0.032 A 
ATOM     19  C   UNL d   1      27.782 -12.950  -6.702  0.00  0.00     0.002 A 
ATOM     20  C   UNL d   1      27.061 -11.838  -6.290  0.00  0.00     0.003 A 
ATOM     21  C   UNL d   1      26.408 -11.879  -5.069  0.00  0.00     0.039 A 
ATOM     22  C   UNL d   1      26.435 -13.030  -4.263  0.00  0.00     0.095 A 
BRANCH  22  23
ATOM     23  O   UNL d   1      25.839 -12.741  -3.070  0.00  0.00    -0.354 OA
ATOM     24  C   UNL d   1      26.644 -12.321  -2.008  0.00  0.00     0.210 C 
ENDBRANCH  22  23
ENDBRANCH   4  17
TORSDOF 5
ENDMDL
MODEL 8
REMARK VINA RESULT:    -6.489      4.062      6.253
REMARK INTER + INTRA:          -8.739
REMARK INTER:                  -7.980
REMARK INTRA:                  -0.759
REMARK CONF_INDEPENDENT:        1.492
REMARK UNBOUND:                -0.759
REMARK  5 active torsions:
REMARK  status: ('A' for Active; 'I' for Inactive)
REMARK    1  A    between atoms: O_2  and  C_3 
REMARK    2  A    between atoms: C_7  and  C_6 
REMARK    3  A    between atoms: C_7  and  N_9 
REMARK       I    between atoms: N_9  and  C_10 
REMARK       I    between atoms: C_10  and  N_12 
REMARK    4  A    between atoms: N_12  and  C_13 
REMARK    5  A    between atoms: C_18  and  O_19 
ROOT
ATOM      1  N   UNL d   1      28.175 -16.572   0.630  0.00  0.00    -0.335 N 
ATOM      2  C   UNL d   1      28.058 -15.218   0.911  0.00  0.00     0.321 C 
ATOM      3  O   UNL d   1      27.262 -14.493   0.307  0.00  0.00    -0.247 OA
ATOM      4  N   UNL d   1      28.750 -14.825   2.054  0.00  0.00    -0.306 N 
ATOM      5  H   UNL d   1      28.974 -17.079   0.979  0.00  0.00     0.165 HD
ATOM      6  H   UNL d   1      29.674 -15.200   2.214  0.00  0.00     0.171 HD
ENDROOT
BRANCH   1   7
ATOM      7  C   UNL d   1      27.205 -17.288  -0.235  0.00  0.00     0.115 C 
ATOM      8  C   UNL d   1      26.024 -17.836   0.572  0.00  0.00     0.037 C 
BRANCH   7   9
ATOM      9  C   UNL d   1      26.576 -16.433  -1.344  0.00  0.00    -0.036 A 
ATOM     10  C   UNL d   1      25.199 -16.158  -1.365  0.00  0.00     0.012 A 
ATOM     11  C   UNL d   1      24.625 -15.387  -2.385  0.00  0.00     0.037 A 
ATOM     12  C   UNL d   1      25.406 -14.911  -3.433  0.00  0.00     0.068 A 
ATOM     13  C   UNL d   1      26.765 -15.212  -3.459  0.00  0.00     0.037 A 
ATOM     14  C   UNL d   1      27.347 -15.965  -2.423  0.00  0.00     0.012 A 
BRANCH  12  15
ATOM     15  O   UNL d   1      24.781 -14.075  -4.318  0.00  0.00    -0.356 OA
ATOM     16  C   UNL d   1      25.490 -12.876  -4.611  0.00  0.00     0.210 C 
ENDBRANCH  12  15
ENDBRANCH   7   9
ENDBRANCH   1   7
BRANCH   4  17
ATOM     17  C   UNL d   1      28.372 -13.670   2.816  0.00  0.00     0.069 A 
ATOM     18  C   UNL d   1      28.264 -12.430   2.161  0.00  0.00     0.032 A 
ATOM     19  C   UNL d   1      27.907 -11.261   2.863  0.00  0.00     0.002 A 
ATOM     20  C   UNL d   1      27.633 -11.313   4.224  0.00  0.00     0.003 A 
ATOM     21  C   UNL d   1      27.781 -12.517   4.890  0.00  0.00     0.039 A 
ATOM     22  C   UNL d   1      28.169 -13.686   4.213  0.00  0.00     0.095 A 
BRANCH  22  23
ATOM     23  O   UNL d   1      28.375 -14.674   5.131  0.00  0.00    -0.354 OA
ATOM     24  C   UNL d   1      29.689 -15.008   5.468  0.00  0.00     0.210 C 
ENDBRANCH  22  23
ENDBRANCH   4  17
TORSDOF 5
ENDMDL
MODEL 9
REMARK VINA RESULT:    -6.463      2.011      7.427
REMARK INTER + INTRA:          -8.721
REMARK INTER:                  -7.954
REMARK INTRA:                  -0.767
REMARK CONF_INDEPENDENT:        1.492
REMARK UNBOUND:                -0.767
REMARK  5 active torsions:
REMARK  status: ('A' for Active; 'I' for Inactive)
REMARK    1  A    between atoms: O_2  and  C_3 
REMARK    2  A    between atoms: C_7  and  C_6 
REMARK    3  A    between atoms: C_7  and  N_9 
REMARK       I    between atoms: N_9  and  C_10 
REMARK       I    between atoms: C_10  and  N_12 
REMARK    4  A    between atoms: N_12  and  C_13 
REMARK    5  A    between atoms: C_18  and  O_19 
ROOT
ATOM      1  N   UNL d   1      26.678 -14.391  -2.673  0.00  0.00    -0.335 N 
ATOM      2  C   UNL d   1      25.443 -14.894  -2.291  0.00  0.00     0.321 C 
ATOM      3  O   UNL d   1      24.453 -14.820  -3.024  0.00  0.00    -0.247 OA
ATOM      4  N   UNL d   1      25.489 -15.660  -1.128  0.00  0.00    -0.306 N 
ATOM      5  H   UNL d   1      27.396 -14.271  -1.976  0.00  0.00     0.165 HD
ATOM      6  H   UNL d   1      26.059 -15.338  -0.358  0.00  0.00     0.171 HD
ENDROOT
BRANCH   1   7
ATOM      7  C   UNL d   1      26.956 -13.945  -4.061  0.00  0.00     0.115 C 
ATOM      8  C   UNL d   1      26.275 -14.851  -5.092  0.00  0.00     0.037 C 
BRANCH   7   9
ATOM      9  C   UNL d   1      26.478 -12.524  -4.391  0.00  0.00    -0.036 A 
ATOM     10  C   UNL d   1      25.978 -11.670  -3.395  0.00  0.00     0.012 A 
ATOM     11  C   UNL d   1      25.532 -10.377  -3.700  0.00  0.00     0.037 A 
ATOM     12  C   UNL d   1      25.532  -9.924  -5.015  0.00  0.00     0.068 A 
ATOM     13  C   UNL d   1      25.977 -10.772  -6.027  0.00  0.00     0.037 A 
ATOM     14  C   UNL d   1      26.448 -12.060  -5.718  0.00  0.00     0.012 A 
BRANCH  12  15
ATOM     15  O   UNL d   1      25.186  -8.613  -5.201  0.00  0.00    -0.356 OA
ATOM     16  C   UNL d   1      23.875  -8.407  -5.716  0.00  0.00     0.210 C 
ENDBRANCH  12  15
ENDBRANCH   7   9
ENDBRANCH   1   7
BRANCH   4  17
ATOM     17  C   UNL d   1      24.517 -16.674  -0.841  0.00  0.00     0.069 A 
ATOM     18  C   UNL d   1      23.154 -16.324  -0.829  0.00  0.00     0.032 A 
ATOM     19  C   UNL d   1      22.158 -17.280  -0.543  0.00  0.00     0.002 A 
ATOM     20  C   UNL d   1      22.500 -18.600  -0.285  0.00  0.00     0.003 A 
ATOM     21  C   UNL d   1      23.840 -18.948  -0.248  0.00  0.00     0.039 A 
ATOM     22  C   UNL d   1      24.850 -18.003  -0.497  0.00  0.00     0.095 A 
BRANCH  22  23
ATOM     23  O   UNL d   1      26.060 -18.582  -0.252  0.00  0.00    -0.354 OA
ATOM     24  C   UNL d   1      26.952 -17.927   0.600  0.00  0.00     0.210 C 
ENDBRANCH  22  23
ENDBRANCH   4  17
TORSDOF 5
ENDMDL
