MODEL 1
REMARK VINA RESULT:    -8.238      0.000      0.000
REMARK INTER + INTRA:          -9.704
REMARK INTER:                  -9.133
REMARK INTRA:                  -0.571
REMARK CONF_INDEPENDENT:        0.895
REMARK UNBOUND:                -0.571
REMARK  3 active torsions:
REMARK  status: ('A' for Active; 'I' for Inactive)
REMARK    1  A    between atoms: O_2  and  C_3 
REMARK       I    between atoms: N_11  and  C_12 
REMARK       I    between atoms: C_12  and  N_14 
REMARK    2  A    between atoms: N_14  and  C_15 
REMARK    3  A    between atoms: C_15  and  C_16 
ROOT
ATOM      1  C   UNL d   1      28.534 -13.818   6.171  0.00  0.00     0.068 A 
ATOM      2  C   UNL d   1      28.544 -14.931   5.339  0.00  0.00     0.039 A 
ATOM      3  C   UNL d   1      28.155 -14.825   4.008  0.00  0.00     0.033 A 
ATOM      4  C   UNL d   1      27.785 -13.599   3.479  0.00  0.00     0.045 A 
ATOM      5  C   UNL d   1      27.782 -12.478   4.312  0.00  0.00    -0.027 A 
ATOM      6  C   UNL d   1      28.138 -12.578   5.661  0.00  0.00     0.046 A 
ATOM      7  C   UNL d   1      27.414 -11.238   3.555  0.00  0.00     0.061 C 
ATOM      8  C   UNL d   1      26.928 -11.825   2.217  0.00  0.00     0.138 C 
ATOM      9  N   UNL d   1      27.359 -13.248   2.175  0.00  0.00    -0.299 N 
ATOM     10  C   UNL d   1      27.243 -13.992   1.013  0.00  0.00     0.323 C 
ATOM     11  O   UNL d   1      26.776 -13.534  -0.035  0.00  0.00    -0.247 OA
ATOM     12  N   UNL d   1      27.676 -15.288   1.059  0.00  0.00    -0.338 N 
ATOM     13  H   UNL d   1      28.199 -15.574   1.846  0.00  0.00     0.164 HD
ENDROOT
BRANCH  12  14
ATOM     14  C   UNL d   1      27.653 -16.199  -0.052  0.00  0.00     0.166 C 
BRANCH  14  15
ATOM     15  C   UNL d   1      26.272 -16.777  -0.315  0.00  0.00     0.004 A 
ATOM     16  C   UNL d   1      25.776 -17.828   0.489  0.00  0.00     0.014 A 
ATOM     17  C   UNL d   1      24.533 -18.400   0.230  0.00  0.00     0.018 A 
ATOM     18  C   UNL d   1      23.797 -17.917  -0.835  0.00  0.00     0.089 A 
ATOM     19  N   UNL d   1      24.283 -16.915  -1.581  0.00  0.00    -0.352 N 
ATOM     20  C   UNL d   1      25.482 -16.328  -1.389  0.00  0.00     0.111 A 
ATOM     21  H   UNL d   1      23.764 -16.597  -2.395  0.00  0.00     0.166 HD
ATOM     22  N   UNL d   1      25.851 -15.442  -2.362  0.00  0.00    -0.367 N 
ATOM     23  C   UNL d   1      25.315 -14.075  -2.411  0.00  0.00     0.124 C 
ATOM     24  C   UNL d   1      27.151 -15.570  -3.034  0.00  0.00     0.124 C 
ATOM     25  C   UNL d   1      25.019 -13.771  -3.885  0.00  0.00     0.020 C 
ATOM     26  C   UNL d   1      26.257 -13.983  -4.769  0.00  0.00     0.003 C 
ATOM     27  C   UNL d   1      26.910 -15.347  -4.521  0.00  0.00     0.020 C 
ENDBRANCH  14  15
ENDBRANCH  12  14
BRANCH   1  28
ATOM     28  O   UNL d   1      28.812 -13.898   7.508  0.00  0.00    -0.356 OA
ATOM     29  C   UNL d   1      30.192 -14.075   7.831  0.00  0.00     0.210 C 
ENDBRANCH   1  28
TORSDOF 3
ENDMDL
MODEL 2
REMARK VINA RESULT:    -7.745      4.470      7.151
REMARK INTER + INTRA:          -8.946
REMARK INTER:                  -8.640
REMARK INTRA:                  -0.305
REMARK CONF_INDEPENDENT:        0.895
REMARK UNBOUND:                -0.305
REMARK  3 active torsions:
REMARK  status: ('A' for Active; 'I' for Inactive)
REMARK    1  A    between atoms: O_2  and  C_3 
REMARK       I    between atoms: N_11  and  C_12 
REMARK       I    between atoms: C_12  and  N_14 
REMARK    2  A    between atoms: N_14  and  C_15 
REMARK    3  A    between atoms: C_15  and  C_16 
ROOT
ATOM      1  C   UNL d   1      22.450 -18.290  -0.065  0.00  0.00     0.068 A 
ATOM      2  C   UNL d   1      22.226 -17.189  -0.883  0.00  0.00     0.039 A 
ATOM      3  C   UNL d   1      23.277 -16.366  -1.270  0.00  0.00     0.033 A 
ATOM      4  C   UNL d   1      24.574 -16.649  -0.875  0.00  0.00     0.045 A 
ATOM      5  C   UNL d   1      24.804 -17.759  -0.057  0.00  0.00    -0.027 A 
ATOM      6  C   UNL d   1      23.750 -18.575   0.366  0.00  0.00     0.046 A 
ATOM      7  C   UNL d   1      26.266 -17.941   0.217  0.00  0.00     0.061 C 
ATOM      8  C   UNL d   1      26.848 -16.621  -0.322  0.00  0.00     0.138 C 
ATOM      9  N   UNL d   1      25.789 -15.970  -1.138  0.00  0.00    -0.299 N 
ATOM     10  C   UNL d   1      26.073 -14.862  -1.920  0.00  0.00     0.323 C 
ATOM     11  O   UNL d   1      27.196 -14.351  -1.978  0.00  0.00    -0.247 OA
ATOM     12  N   UNL d   1      25.044 -14.335  -2.648  0.00  0.00    -0.338 N 
ATOM     13  H   UNL d   1      24.210 -14.860  -2.719  0.00  0.00     0.164 HD
ENDROOT
BRANCH  12  14
ATOM     14  C   UNL d   1      25.157 -13.205  -3.528  0.00  0.00     0.166 C 
BRANCH  14  15
ATOM     15  C   UNL d   1      26.205 -13.402  -4.611  0.00  0.00     0.004 A 
ATOM     16  C   UNL d   1      26.763 -14.680  -4.838  0.00  0.00     0.014 A 
ATOM     17  C   UNL d   1      27.759 -14.866  -5.793  0.00  0.00     0.018 A 
ATOM     18  C   UNL d   1      28.192 -13.769  -6.513  0.00  0.00     0.089 A 
ATOM     19  N   UNL d   1      27.646 -12.566  -6.287  0.00  0.00    -0.352 N 
ATOM     20  C   UNL d   1      26.688 -12.319  -5.370  0.00  0.00     0.111 A 
ATOM     21  H   UNL d   1      28.001 -11.751  -6.780  0.00  0.00     0.166 HD
ATOM     22  N   UNL d   1      26.391 -10.997  -5.190  0.00  0.00    -0.367 N 
ATOM     23  C   UNL d   1      25.529 -10.260  -6.124  0.00  0.00     0.124 C 
ATOM     24  C   UNL d   1      26.417 -10.403  -3.847  0.00  0.00     0.124 C 
ATOM     25  C   UNL d   1      26.173  -8.883  -6.324  0.00  0.00     0.020 C 
ATOM     26  C   UNL d   1      26.397  -8.161  -4.987  0.00  0.00     0.003 C 
ATOM     27  C   UNL d   1      27.112  -9.053  -3.968  0.00  0.00     0.020 C 
ENDBRANCH  14  15
ENDBRANCH  12  14
BRANCH   1  28
ATOM     28  O   UNL d   1      21.433 -19.064   0.419  0.00  0.00    -0.356 OA
ATOM     29  C   UNL d   1      20.413 -19.388  -0.527  0.00  0.00     0.210 C 
ENDBRANCH   1  28
TORSDOF 3
ENDMDL
MODEL 3
REMARK VINA RESULT:    -6.936      4.798      7.016
REMARK INTER + INTRA:          -8.412
REMARK INTER:                  -7.830
REMARK INTRA:                  -0.581
REMARK CONF_INDEPENDENT:        0.895
REMARK UNBOUND:                -0.581
REMARK  3 active torsions:
REMARK  status: ('A' for Active; 'I' for Inactive)
REMARK    1  A    between atoms: O_2  and  C_3 
REMARK       I    between atoms: N_11  and  C_12 
REMARK       I    between atoms: C_12  and  N_14 
REMARK    2  A    between atoms: N_14  and  C_15 
REMARK    3  A    between atoms: C_15  and  C_16 
ROOT
ATOM      1  C   UNL d   1      22.811 -18.076   0.165  0.00  0.00     0.068 A 
ATOM      2  C   UNL d   1      22.653 -17.191  -0.895  0.00  0.00     0.039 A 
ATOM      3  C   UNL d   1      23.760 -16.622  -1.516  0.00  0.00     0.033 A 
ATOM      4  C   UNL d   1      25.042 -16.955  -1.111  0.00  0.00     0.045 A 
ATOM      5  C   UNL d   1      25.204 -17.851  -0.050  0.00  0.00    -0.027 A 
ATOM      6  C   UNL d   1      24.098 -18.403   0.604  0.00  0.00     0.046 A 
ATOM      7  C   UNL d   1      26.653 -18.136   0.206  0.00  0.00     0.061 C 
ATOM      8  C   UNL d   1      27.337 -17.070  -0.669  0.00  0.00     0.138 C 
ATOM      9  N   UNL d   1      26.303 -16.515  -1.582  0.00  0.00    -0.299 N 
ATOM     10  C   UNL d   1      26.652 -15.676  -2.627  0.00  0.00     0.323 C 
ATOM     11  O   UNL d   1      27.818 -15.335  -2.854  0.00  0.00    -0.247 OA
ATOM     12  N   UNL d   1      25.640 -15.222  -3.426  0.00  0.00    -0.338 N 
ATOM     13  H   UNL d   1      24.751 -15.643  -3.331  0.00  0.00     0.164 HD
ENDROOT
BRANCH  12  14
ATOM     14  C   UNL d   1      25.816 -14.364  -4.565  0.00  0.00     0.166 C 
BRANCH  14  15
ATOM     15  C   UNL d   1      26.363 -12.995  -4.194  0.00  0.00     0.004 A 
ATOM     16  C   UNL d   1      25.530 -12.042  -3.566  0.00  0.00     0.014 A 
ATOM     17  C   UNL d   1      26.003 -10.768  -3.265  0.00  0.00     0.018 A 
ATOM     18  C   UNL d   1      27.307 -10.455  -3.599  0.00  0.00     0.089 A 
ATOM     19  N   UNL d   1      28.082 -11.375  -4.188  0.00  0.00    -0.352 N 
ATOM     20  C   UNL d   1      27.681 -12.621  -4.516  0.00  0.00     0.111 A 
ATOM     21  H   UNL d   1      29.024 -11.127  -4.481  0.00  0.00     0.166 HD
ATOM     22  N   UNL d   1      28.578 -13.337  -5.257  0.00  0.00    -0.367 N 
ATOM     23  C   UNL d   1      29.741 -13.995  -4.646  0.00  0.00     0.124 C 
ATOM     24  C   UNL d   1      28.171 -13.961  -6.523  0.00  0.00     0.124 C 
ATOM     25  C   UNL d   1      30.927 -13.759  -5.590  0.00  0.00     0.020 C 
ATOM     26  C   UNL d   1      30.621 -14.242  -7.016  0.00  0.00     0.003 C 
ATOM     27  C   UNL d   1      29.283 -13.700  -7.529  0.00  0.00     0.020 C 
ENDBRANCH  14  15
ENDBRANCH  12  14
BRANCH   1  28
ATOM     28  O   UNL d   1      21.751 -18.579   0.866  0.00  0.00    -0.356 OA
ATOM     29  C   UNL d   1      20.862 -19.406   0.113  0.00  0.00     0.210 C 
ENDBRANCH   1  28
TORSDOF 3
ENDMDL
MODEL 4
REMARK VINA RESULT:    -6.916      1.864      3.232
REMARK INTER + INTRA:          -8.189
REMARK INTER:                  -7.811
REMARK INTRA:                  -0.379
REMARK CONF_INDEPENDENT:        0.895
REMARK UNBOUND:                -0.379
REMARK  3 active torsions:
REMARK  status: ('A' for Active; 'I' for Inactive)
REMARK    1  A    between atoms: O_2  and  C_3 
REMARK       I    between atoms: N_11  and  C_12 
REMARK       I    between atoms: C_12  and  N_14 
REMARK    2  A    between atoms: N_14  and  C_15 
REMARK    3  A    between atoms: C_15  and  C_16 
ROOT
ATOM      1  C   UNL d   1      28.897 -13.882   6.957  0.00  0.00     0.068 A 
ATOM      2  C   UNL d   1      28.567 -14.718   5.897  0.00  0.00     0.039 A 
ATOM      3  C   UNL d   1      28.086 -14.194   4.702  0.00  0.00     0.033 A 
ATOM      4  C   UNL d   1      27.960 -12.825   4.535  0.00  0.00     0.045 A 
ATOM      5  C   UNL d   1      28.298 -11.981   5.597  0.00  0.00    -0.027 A 
ATOM      6  C   UNL d   1      28.750 -12.498   6.815  0.00  0.00     0.046 A 
ATOM      7  C   UNL d   1      28.155 -10.539   5.213  0.00  0.00     0.061 C 
ATOM      8  C   UNL d   1      27.419 -10.648   3.866  0.00  0.00     0.138 C 
ATOM      9  N   UNL d   1      27.502 -12.068   3.429  0.00  0.00    -0.299 N 
ATOM     10  C   UNL d   1      27.105 -12.446   2.157  0.00  0.00     0.323 C 
ATOM     11  O   UNL d   1      26.656 -11.646   1.328  0.00  0.00    -0.247 OA
ATOM     12  N   UNL d   1      27.228 -13.768   1.834  0.00  0.00    -0.338 N 
ATOM     13  H   UNL d   1      27.745 -14.348   2.445  0.00  0.00     0.164 HD
ENDROOT
BRANCH  12  14
ATOM     14  C   UNL d   1      26.887 -14.335   0.559  0.00  0.00     0.166 C 
BRANCH  14  15
ATOM     15  C   UNL d   1      27.798 -15.485   0.161  0.00  0.00     0.004 A 
ATOM     16  C   UNL d   1      29.197 -15.295   0.096  0.00  0.00     0.014 A 
ATOM     17  C   UNL d   1      30.039 -16.325  -0.315  0.00  0.00     0.018 A 
ATOM     18  C   UNL d   1      29.475 -17.538  -0.659  0.00  0.00     0.089 A 
ATOM     19  N   UNL d   1      28.146 -17.700  -0.583  0.00  0.00    -0.352 N 
ATOM     20  C   UNL d   1      27.277 -16.740  -0.206  0.00  0.00     0.111 A 
ATOM     21  H   UNL d   1      27.728 -18.575  -0.887  0.00  0.00     0.166 HD
ATOM     22  N   UNL d   1      25.959 -17.066  -0.358  0.00  0.00    -0.367 N 
ATOM     23  C   UNL d   1      25.255 -17.924   0.605  0.00  0.00     0.124 C 
ATOM     24  C   UNL d   1      25.052 -16.182  -1.103  0.00  0.00     0.124 C 
ATOM     25  C   UNL d   1      24.376 -18.877  -0.214  0.00  0.00     0.020 C 
ATOM     26  C   UNL d   1      23.440 -18.112  -1.162  0.00  0.00     0.003 C 
ATOM     27  C   UNL d   1      24.194 -17.070  -1.994  0.00  0.00     0.020 C 
ENDBRANCH  14  15
ENDBRANCH  12  14
BRANCH   1  28
ATOM     28  O   UNL d   1      29.277 -14.361   8.179  0.00  0.00    -0.356 OA
ATOM     29  C   UNL d   1      30.600 -14.007   8.585  0.00  0.00     0.210 C 
ENDBRANCH   1  28
TORSDOF 3
ENDMDL
MODEL 5
REMARK VINA RESULT:    -6.803      2.572      7.769
REMARK INTER + INTRA:          -8.157
REMARK INTER:                  -7.698
REMARK INTRA:                  -0.459
REMARK CONF_INDEPENDENT:        0.895
REMARK UNBOUND:                -0.459
REMARK  3 active torsions:
REMARK  status: ('A' for Active; 'I' for Inactive)
REMARK    1  A    between atoms: O_2  and  C_3 
REMARK       I    between atoms: N_11  and  C_12 
REMARK       I    between atoms: C_12  and  N_14 
REMARK    2  A    between atoms: N_14  and  C_15 
REMARK    3  A    between atoms: C_15  and  C_16 
ROOT
ATOM      1  C   UNL d   1      24.605 -17.841  -0.747  0.00  0.00     0.068 A 
ATOM      2  C   UNL d   1      25.527 -17.444   0.213  0.00  0.00     0.039 A 
ATOM      3  C   UNL d   1      26.256 -16.270   0.055  0.00  0.00     0.033 A 
ATOM      4  C   UNL d   1      26.048 -15.457  -1.047  0.00  0.00     0.045 A 
ATOM      5  C   UNL d   1      25.116 -15.851  -2.011  0.00  0.00    -0.027 A 
ATOM      6  C   UNL d   1      24.402 -17.046  -1.880  0.00  0.00     0.046 A 
ATOM      7  C   UNL d   1      24.985 -14.823  -3.094  0.00  0.00     0.061 C 
ATOM      8  C   UNL d   1      26.173 -13.893  -2.784  0.00  0.00     0.138 C 
ATOM      9  N   UNL d   1      26.658 -14.234  -1.420  0.00  0.00    -0.299 N 
ATOM     10  C   UNL d   1      27.592 -13.439  -0.778  0.00  0.00     0.323 C 
ATOM     11  O   UNL d   1      28.078 -12.424  -1.291  0.00  0.00    -0.247 OA
ATOM     12  N   UNL d   1      27.973 -13.817   0.479  0.00  0.00    -0.338 N 
ATOM     13  H   UNL d   1      27.448 -14.523   0.929  0.00  0.00     0.164 HD
ENDROOT
BRANCH  12  14
ATOM     14  C   UNL d   1      28.911 -13.104   1.301  0.00  0.00     0.166 C 
BRANCH  14  15
ATOM     15  C   UNL d   1      30.169 -13.906   1.593  0.00  0.00     0.004 A 
ATOM     16  C   UNL d   1      30.953 -14.412   0.531  0.00  0.00     0.014 A 
ATOM     17  C   UNL d   1      32.080 -15.189   0.783  0.00  0.00     0.018 A 
ATOM     18  C   UNL d   1      32.414 -15.456   2.097  0.00  0.00     0.089 A 
ATOM     19  N   UNL d   1      31.662 -14.961   3.089  0.00  0.00    -0.352 N 
ATOM     20  C   UNL d   1      30.554 -14.213   2.911  0.00  0.00     0.111 A 
ATOM     21  H   UNL d   1      31.878 -15.201   4.053  0.00  0.00     0.166 HD
ATOM     22  N   UNL d   1      29.847 -13.952   4.051  0.00  0.00    -0.367 N 
ATOM     23  C   UNL d   1      30.261 -12.909   5.000  0.00  0.00     0.124 C 
ATOM     24  C   UNL d   1      28.411 -14.252   4.124  0.00  0.00     0.124 C 
ATOM     25  C   UNL d   1      30.059 -13.488   6.406  0.00  0.00     0.020 C 
ATOM     26  C   UNL d   1      28.619 -13.981   6.616  0.00  0.00     0.003 C 
ATOM     27  C   UNL d   1      28.157 -14.897   5.480  0.00  0.00     0.020 C 
ENDBRANCH  14  15
ENDBRANCH  12  14
BRANCH   1  28
ATOM     28  O   UNL d   1      23.943 -19.035  -0.680  0.00  0.00    -0.356 OA
ATOM     29  C   UNL d   1      22.555 -18.942  -0.354  0.00  0.00     0.210 C 
ENDBRANCH   1  28
TORSDOF 3
ENDMDL
MODEL 6
REMARK VINA RESULT:    -6.724      2.263      7.221
REMARK INTER + INTRA:          -8.232
REMARK INTER:                  -7.619
REMARK INTRA:                  -0.613
REMARK CONF_INDEPENDENT:        0.895
REMARK UNBOUND:                -0.613
REMARK  3 active torsions:
REMARK  status: ('A' for Active; 'I' for Inactive)
REMARK    1  A    between atoms: O_2  and  C_3 
REMARK       I    between atoms: N_11  and  C_12 
REMARK       I    between atoms: C_12  and  N_14 
REMARK    2  A    between atoms: N_14  and  C_15 
REMARK    3  A    between atoms: C_15  and  C_16 
ROOT
ATOM      1  C   UNL d   1      24.501 -17.988  -0.664  0.00  0.00     0.068 A 
ATOM      2  C   UNL d   1      25.475 -17.712   0.288  0.00  0.00     0.039 A 
ATOM      3  C   UNL d   1      26.211 -16.534   0.230  0.00  0.00     0.033 A 
ATOM      4  C   UNL d   1      25.960 -15.596  -0.759  0.00  0.00     0.045 A 
ATOM      5  C   UNL d   1      24.976 -15.868  -1.713  0.00  0.00    -0.027 A 
ATOM      6  C   UNL d   1      24.254 -17.065  -1.686  0.00  0.00     0.046 A 
ATOM      7  C   UNL d   1      24.806 -14.720  -2.662  0.00  0.00     0.061 C 
ATOM      8  C   UNL d   1      26.020 -13.842  -2.307  0.00  0.00     0.138 C 
ATOM      9  N   UNL d   1      26.568 -14.343  -1.018  0.00  0.00    -0.299 N 
ATOM     10  C   UNL d   1      27.543 -13.636  -0.336  0.00  0.00     0.323 C 
ATOM     11  O   UNL d   1      28.017 -12.572  -0.752  0.00  0.00    -0.247 OA
ATOM     12  N   UNL d   1      27.980 -14.161   0.847  0.00  0.00    -0.338 N 
ATOM     13  H   UNL d   1      27.469 -14.910   1.239  0.00  0.00     0.164 HD
ENDROOT
BRANCH  12  14
ATOM     14  C   UNL d   1      28.968 -13.556   1.697  0.00  0.00     0.166 C 
BRANCH  14  15
ATOM     15  C   UNL d   1      28.578 -13.581   3.166  0.00  0.00     0.004 A 
ATOM     16  C   UNL d   1      28.687 -14.777   3.912  0.00  0.00     0.014 A 
ATOM     17  C   UNL d   1      28.288 -14.827   5.244  0.00  0.00     0.018 A 
ATOM     18  C   UNL d   1      27.780 -13.679   5.822  0.00  0.00     0.089 A 
ATOM     19  N   UNL d   1      27.691 -12.554   5.100  0.00  0.00    -0.352 N 
ATOM     20  C   UNL d   1      28.049 -12.443   3.804  0.00  0.00     0.111 A 
ATOM     21  H   UNL d   1      27.269 -11.725   5.510  0.00  0.00     0.166 HD
ATOM     22  N   UNL d   1      27.723 -11.254   3.217  0.00  0.00    -0.367 N 
ATOM     23  C   UNL d   1      28.523 -10.039   3.424  0.00  0.00     0.124 C 
ATOM     24  C   UNL d   1      26.958 -11.226   1.963  0.00  0.00     0.124 C 
ATOM     25  C   UNL d   1      27.532  -8.883   3.603  0.00  0.00     0.020 C 
ATOM     26  C   UNL d   1      26.553  -8.786   2.423  0.00  0.00     0.003 C 
ATOM     27  C   UNL d   1      25.904 -10.137   2.105  0.00  0.00     0.020 C 
ENDBRANCH  14  15
ENDBRANCH  12  14
BRANCH   1  28
ATOM     28  O   UNL d   1      23.827 -19.177  -0.702  0.00  0.00    -0.356 OA
ATOM     29  C   UNL d   1      22.413 -19.078  -0.522  0.00  0.00     0.210 C 
ENDBRANCH   1  28
TORSDOF 3
ENDMDL
MODEL 7
REMARK VINA RESULT:    -6.661      3.510      6.967
REMARK INTER + INTRA:          -8.422
REMARK INTER:                  -7.556
REMARK INTRA:                  -0.866
REMARK CONF_INDEPENDENT:        0.895
REMARK UNBOUND:                -0.866
REMARK  3 active torsions:
REMARK  status: ('A' for Active; 'I' for Inactive)
REMARK    1  A    between atoms: O_2  and  C_3 
REMARK       I    between atoms: N_11  and  C_12 
REMARK       I    between atoms: C_12  and  N_14 
REMARK    2  A    between atoms: N_14  and  C_15 
REMARK    3  A    between atoms: C_15  and  C_16 
ROOT
ATOM      1  C   UNL d   1      23.047 -17.862  -0.302  0.00  0.00     0.068 A 
ATOM      2  C   UNL d   1      23.269 -16.890  -1.270  0.00  0.00     0.039 A 
ATOM      3  C   UNL d   1      24.562 -16.502  -1.603  0.00  0.00     0.033 A 
ATOM      4  C   UNL d   1      25.654 -17.104  -1.000  0.00  0.00     0.045 A 
ATOM      5  C   UNL d   1      25.433 -18.088  -0.031  0.00  0.00    -0.027 A 
ATOM      6  C   UNL d   1      24.137 -18.462   0.336  0.00  0.00     0.046 A 
ATOM      7  C   UNL d   1      26.726 -18.664   0.464  0.00  0.00     0.061 C 
ATOM      8  C   UNL d   1      27.752 -17.690  -0.143  0.00  0.00     0.138 C 
ATOM      9  N   UNL d   1      27.043 -16.882  -1.171  0.00  0.00    -0.299 N 
ATOM     10  C   UNL d   1      27.742 -16.054  -2.033  0.00  0.00     0.323 C 
ATOM     11  O   UNL d   1      28.971 -15.929  -1.995  0.00  0.00    -0.247 OA
ATOM     12  N   UNL d   1      27.012 -15.358  -2.956  0.00  0.00    -0.338 N 
ATOM     13  H   UNL d   1      26.063 -15.605  -3.078  0.00  0.00     0.164 HD
ENDROOT
BRANCH  12  14
ATOM     14  C   UNL d   1      27.568 -14.472  -3.940  0.00  0.00     0.166 C 
BRANCH  14  15
ATOM     15  C   UNL d   1      26.940 -13.088  -3.911  0.00  0.00     0.004 A 
ATOM     16  C   UNL d   1      26.439 -12.509  -5.100  0.00  0.00     0.014 A 
ATOM     17  C   UNL d   1      25.905 -11.223  -5.098  0.00  0.00     0.018 A 
ATOM     18  C   UNL d   1      25.878 -10.524  -3.906  0.00  0.00     0.089 A 
ATOM     19  N   UNL d   1      26.352 -11.094  -2.789  0.00  0.00    -0.352 N 
ATOM     20  C   UNL d   1      26.891 -12.329  -2.727  0.00  0.00     0.111 A 
ATOM     21  H   UNL d   1      26.380 -10.560  -1.924  0.00  0.00     0.166 HD
ATOM     22  N   UNL d   1      27.461 -12.648  -1.527  0.00  0.00    -0.367 N 
ATOM     23  C   UNL d   1      26.655 -13.065  -0.372  0.00  0.00     0.124 C 
ATOM     24  C   UNL d   1      28.844 -13.138  -1.464  0.00  0.00     0.124 C 
ATOM     25  C   UNL d   1      27.254 -12.370   0.858  0.00  0.00     0.020 C 
ATOM     26  C   UNL d   1      28.753 -12.672   1.006  0.00  0.00     0.003 C 
ATOM     27  C   UNL d   1      29.518 -12.427  -0.298  0.00  0.00     0.020 C 
ENDBRANCH  14  15
ENDBRANCH  12  14
BRANCH   1  28
ATOM     28  O   UNL d   1      21.793 -18.200   0.125  0.00  0.00    -0.356 OA
ATOM     29  C   UNL d   1      21.016 -18.953  -0.808  0.00  0.00     0.210 C 
ENDBRANCH   1  28
TORSDOF 3
ENDMDL
MODEL 8
REMARK VINA RESULT:    -6.405      3.918      7.684
REMARK INTER + INTRA:          -8.212
REMARK INTER:                  -7.299
REMARK INTRA:                  -0.913
REMARK CONF_INDEPENDENT:        0.895
REMARK UNBOUND:                -0.913
REMARK  3 active torsions:
REMARK  status: ('A' for Active; 'I' for Inactive)
REMARK    1  A    between atoms: O_2  and  C_3 
REMARK       I    between atoms: N_11  and  C_12 
REMARK       I    between atoms: C_12  and  N_14 
REMARK    2  A    between atoms: N_14  and  C_15 
REMARK    3  A    between atoms: C_15  and  C_16 
ROOT
ATOM      1  C   UNL d   1      30.057 -15.767  -6.131  0.00  0.00     0.068 A 
ATOM      2  C   UNL d   1      29.280 -16.303  -5.112  0.00  0.00     0.039 A 
ATOM      3  C   UNL d   1      28.152 -15.632  -4.652  0.00  0.00     0.033 A 
ATOM      4  C   UNL d   1      27.762 -14.434  -5.228  0.00  0.00     0.045 A 
ATOM      5  C   UNL d   1      28.538 -13.897  -6.258  0.00  0.00    -0.027 A 
ATOM      6  C   UNL d   1      29.694 -14.544  -6.706  0.00  0.00     0.046 A 
ATOM      7  C   UNL d   1      27.932 -12.635  -6.795  0.00  0.00     0.061 C 
ATOM      8  C   UNL d   1      26.837 -12.349  -5.751  0.00  0.00     0.138 C 
ATOM      9  N   UNL d   1      26.669 -13.582  -4.936  0.00  0.00    -0.299 N 
ATOM     10  C   UNL d   1      25.619 -13.706  -4.042  0.00  0.00     0.323 C 
ATOM     11  O   UNL d   1      24.780 -12.817  -3.863  0.00  0.00    -0.247 OA
ATOM     12  N   UNL d   1      25.532 -14.878  -3.343  0.00  0.00    -0.338 N 
ATOM     13  H   UNL d   1      26.105 -15.631  -3.628  0.00  0.00     0.164 HD
ENDROOT
BRANCH  12  14
ATOM     14  C   UNL d   1      24.501 -15.191  -2.393  0.00  0.00     0.166 C 
BRANCH  14  15
ATOM     15  C   UNL d   1      24.864 -16.359  -1.491  0.00  0.00     0.004 A 
ATOM     16  C   UNL d   1      23.939 -17.406  -1.275  0.00  0.00     0.014 A 
ATOM     17  C   UNL d   1      24.238 -18.457  -0.413  0.00  0.00     0.018 A 
ATOM     18  C   UNL d   1      25.462 -18.452   0.230  0.00  0.00     0.089 A 
ATOM     19  N   UNL d   1      26.327 -17.454   0.006  0.00  0.00    -0.352 N 
ATOM     20  C   UNL d   1      26.093 -16.403  -0.806  0.00  0.00     0.111 A 
ATOM     21  H   UNL d   1      27.205 -17.424   0.519  0.00  0.00     0.166 HD
ATOM     22  N   UNL d   1      27.040 -15.419  -0.762  0.00  0.00    -0.367 N 
ATOM     23  C   UNL d   1      28.320 -15.539  -1.474  0.00  0.00     0.124 C 
ATOM     24  C   UNL d   1      26.655 -14.023  -0.513  0.00  0.00     0.124 C 
ATOM     25  C   UNL d   1      29.402 -15.004  -0.528  0.00  0.00     0.020 C 
ATOM     26  C   UNL d   1      29.088 -13.577  -0.056  0.00  0.00     0.003 C 
ATOM     27  C   UNL d   1      27.659 -13.453   0.480  0.00  0.00     0.020 C 
ENDBRANCH  14  15
ENDBRANCH  12  14
BRANCH   1  28
ATOM     28  O   UNL d   1      31.227 -16.342  -6.543  0.00  0.00    -0.356 OA
ATOM     29  C   UNL d   1      31.087 -17.614  -7.178  0.00  0.00     0.210 C 
ENDBRANCH   1  28
TORSDOF 3
ENDMDL
MODEL 9
REMARK VINA RESULT:    -6.361      3.506      6.629
REMARK INTER + INTRA:          -8.354
REMARK INTER:                  -7.256
REMARK INTRA:                  -1.098
REMARK CONF_INDEPENDENT:        0.895
REMARK UNBOUND:                -1.098
REMARK  3 active torsions:
REMARK  status: ('A' for Active; 'I' for Inactive)
REMARK    1  A    between atoms: O_2  and  C_3 
REMARK       I    between atoms: N_11  and  C_12 
REMARK       I    between atoms: C_12  and  N_14 
REMARK    2  A    between atoms: N_14  and  C_15 
REMARK    3  A    between atoms: C_15  and  C_16 
ROOT
ATOM      1  C   UNL d   1      23.096 -18.136  -0.884  0.00  0.00     0.068 A 
ATOM      2  C   UNL d   1      23.102 -16.749  -0.964  0.00  0.00     0.039 A 
ATOM      3  C   UNL d   1      24.237 -16.023  -0.619  0.00  0.00     0.033 A 
ATOM      4  C   UNL d   1      25.394 -16.674  -0.223  0.00  0.00     0.045 A 
ATOM      5  C   UNL d   1      25.393 -18.069  -0.149  0.00  0.00    -0.027 A 
ATOM      6  C   UNL d   1      24.247 -18.808  -0.460  0.00  0.00     0.046 A 
ATOM      7  C   UNL d   1      26.742 -18.595   0.238  0.00  0.00     0.061 C 
ATOM      8  C   UNL d   1      27.470 -17.305   0.654  0.00  0.00     0.138 C 
ATOM      9  N   UNL d   1      26.654 -16.159   0.170  0.00  0.00    -0.299 N 
ATOM     10  C   UNL d   1      27.145 -14.865   0.217  0.00  0.00     0.323 C 
ATOM     11  O   UNL d   1      28.263 -14.587   0.664  0.00  0.00    -0.247 OA
ATOM     12  N   UNL d   1      26.334 -13.874  -0.261  0.00  0.00    -0.338 N 
ATOM     13  H   UNL d   1      25.528 -14.139  -0.766  0.00  0.00     0.164 HD
ENDROOT
BRANCH  12  14
ATOM     14  C   UNL d   1      26.684 -12.482  -0.311  0.00  0.00     0.166 C 
BRANCH  14  15
ATOM     15  C   UNL d   1      27.913 -12.211  -1.164  0.00  0.00     0.004 A 
ATOM     16  C   UNL d   1      28.879 -11.270  -0.743  0.00  0.00     0.014 A 
ATOM     17  C   UNL d   1      29.984 -10.976  -1.537  0.00  0.00     0.018 A 
ATOM     18  C   UNL d   1      30.113 -11.625  -2.750  0.00  0.00     0.089 A 
ATOM     19  N   UNL d   1      29.190 -12.520  -3.128  0.00  0.00    -0.352 N 
ATOM     20  C   UNL d   1      28.093 -12.840  -2.411  0.00  0.00     0.111 A 
ATOM     21  H   UNL d   1      29.258 -12.958  -4.043  0.00  0.00     0.166 HD
ATOM     22  N   UNL d   1      27.201 -13.650  -3.055  0.00  0.00    -0.367 N 
ATOM     23  C   UNL d   1      27.410 -15.100  -3.169  0.00  0.00     0.124 C 
ATOM     24  C   UNL d   1      25.786 -13.268  -3.160  0.00  0.00     0.124 C 
ATOM     25  C   UNL d   1      27.010 -15.492  -4.597  0.00  0.00     0.020 C 
ATOM     26  C   UNL d   1      25.578 -15.045  -4.928  0.00  0.00     0.003 C 
ATOM     27  C   UNL d   1      25.346 -13.570  -4.586  0.00  0.00     0.020 C 
ENDBRANCH  14  15
ENDBRANCH  12  14
BRANCH   1  28
ATOM     28  O   UNL d   1      21.973 -18.880  -1.117  0.00  0.00    -0.356 OA
ATOM     29  C   UNL d   1      21.063 -18.965  -0.019  0.00  0.00     0.210 C 
ENDBRANCH   1  28
TORSDOF 3
ENDMDL
