MODEL 1
REMARK VINA RESULT:    -8.370      0.000      0.000
REMARK INTER + INTRA:         -14.245
REMARK INTER:                 -11.950
REMARK INTRA:                  -2.295
REMARK CONF_INDEPENDENT:        3.580
REMARK UNBOUND:                -2.295
REMARK  12 active torsions:
REMARK  status: ('A' for Active; 'I' for Inactive)
REMARK    1  A    between atoms: C_2  and  O_3 
REMARK    2  A    between atoms: O_3  and  C_4 
REMARK    3  A    between atoms: C_7  and  C_8 
REMARK    4  A    between atoms: C_8  and  O_9 
REMARK    5  A    between atoms: C_8  and  C_10 
REMARK    6  A    between atoms: C_10  and  C_11 
REMARK    7  A    between atoms: C_11  and  C_12 
REMARK       I    between atoms: C_12  and  N_14 
REMARK    8  A    between atoms: N_14  and  N_15 
REMARK    9  A    between atoms: C_16  and  C_17 
REMARK   10  A    between atoms: C_19  and  O_20 
REMARK   11  A    between atoms: O_20  and  C_21 
REMARK   12  A    between atoms: C_23  and  O_24 
ROOT
ATOM      1  C   UNL d   1      26.497 -14.197  -1.607  0.00  0.00     0.237 C 
ATOM      2  O   UNL d   1      26.476 -12.964  -1.613  0.00  0.00    -0.272 OA
ATOM      3  N   UNL d   1      25.690 -15.002  -2.391  0.00  0.00    -0.247 N 
ATOM      4  H   UNL d   1      25.639 -15.982  -2.151  0.00  0.00     0.192 HD
ENDROOT
BRANCH   1   5
ATOM      5  C   UNL d   1      27.429 -14.997  -0.697  0.00  0.00     0.107 C 
BRANCH   5   6
ATOM      6  C   UNL d   1      26.578 -15.781   0.292  0.00  0.00     0.046 C 
BRANCH   6   7
ATOM      7  C   UNL d   1      26.227 -17.211  -0.120  0.00  0.00     0.151 C 
BRANCH   7   8
ATOM      8  C   UNL d   1      24.733 -17.407  -0.327  0.00  0.00    -0.029 A 
ATOM      9  C   UNL d   1      24.209 -18.695  -0.505  0.00  0.00     0.012 A 
ATOM     10  C   UNL d   1      22.855 -18.875  -0.816  0.00  0.00     0.037 A 
ATOM     11  C   UNL d   1      21.989 -17.783  -0.887  0.00  0.00     0.068 A 
ATOM     12  C   UNL d   1      22.484 -16.508  -0.650  0.00  0.00     0.037 A 
ATOM     13  C   UNL d   1      23.838 -16.325  -0.377  0.00  0.00     0.012 A 
BRANCH  11  14
ATOM     14  O   UNL d   1      20.667 -18.062  -1.097  0.00  0.00    -0.352 OA
BRANCH  14  15
ATOM     15  C   UNL d   1      20.287 -19.425  -0.895  0.00  0.00     0.171 C 
ATOM     16  C   UNL d   1      19.935 -19.605   0.570  0.00  0.00     0.034 C 
ENDBRANCH  14  15
ENDBRANCH  11  14
ENDBRANCH   7   8
BRANCH   7  17
ATOM     17  O   UNL d   1      26.907 -17.503  -1.343  0.00  0.00    -0.391 OA
ATOM     18  H   UNL d   1      27.780 -17.859  -1.099  0.00  0.00     0.210 HD
ENDBRANCH   7  17
ENDBRANCH   6   7
ENDBRANCH   5   6
ENDBRANCH   1   5
BRANCH   3  19
ATOM     19  N   UNL d   1      24.687 -14.451  -3.148  0.00  0.00    -0.184 NA
ATOM     20  C   UNL d   1      24.968 -13.951  -4.318  0.00  0.00     0.151 C 
BRANCH  20  21
ATOM     21  C   UNL d   1      26.272 -13.940  -5.019  0.00  0.00     0.003 A 
ATOM     22  C   UNL d   1      27.036 -15.129  -5.084  0.00  0.00     0.054 A 
ATOM     23  C   UNL d   1      28.299 -15.143  -5.725  0.00  0.00     0.102 A 
ATOM     24  C   UNL d   1      28.696 -13.983  -6.406  0.00  0.00     0.100 A 
ATOM     25  C   UNL d   1      27.947 -12.817  -6.321  0.00  0.00     0.059 A 
ATOM     26  C   UNL d   1      26.781 -12.766  -5.580  0.00  0.00     0.025 A 
ATOM     27 BR   UNL d   1      26.048 -11.024  -5.380  0.00  0.00    -0.050 Br
BRANCH  23  28
ATOM     28  O   UNL d   1      29.025 -16.303  -5.559  0.00  0.00    -0.349 OA
BRANCH  28  29
ATOM     29  C   UNL d   1      30.301 -16.350  -6.199  0.00  0.00     0.171 C 
ATOM     30  C   UNL d   1      30.757 -17.751  -6.534  0.00  0.00     0.034 C 
ENDBRANCH  28  29
ENDBRANCH  23  28
BRANCH  24  31
ATOM     31  O   UNL d   1      29.809 -13.781  -7.169  0.00  0.00    -0.358 OA
ATOM     32  H   UNL d   1      29.691 -14.076  -8.078  0.00  0.00     0.217 HD
ENDBRANCH  24  31
ENDBRANCH  20  21
ENDBRANCH   3  19
TORSDOF 12
ENDMDL
MODEL 2
REMARK VINA RESULT:    -8.283      0.680      1.190
REMARK INTER + INTRA:         -14.365
REMARK INTER:                 -11.862
REMARK INTRA:                  -2.503
REMARK CONF_INDEPENDENT:        3.580
REMARK UNBOUND:                -2.503
REMARK  12 active torsions:
REMARK  status: ('A' for Active; 'I' for Inactive)
REMARK    1  A    between atoms: C_2  and  O_3 
REMARK    2  A    between atoms: O_3  and  C_4 
REMARK    3  A    between atoms: C_7  and  C_8 
REMARK    4  A    between atoms: C_8  and  O_9 
REMARK    5  A    between atoms: C_8  and  C_10 
REMARK    6  A    between atoms: C_10  and  C_11 
REMARK    7  A    between atoms: C_11  and  C_12 
REMARK       I    between atoms: C_12  and  N_14 
REMARK    8  A    between atoms: N_14  and  N_15 
REMARK    9  A    between atoms: C_16  and  C_17 
REMARK   10  A    between atoms: C_19  and  O_20 
REMARK   11  A    between atoms: O_20  and  C_21 
REMARK   12  A    between atoms: C_23  and  O_24 
ROOT
ATOM      1  C   UNL d   1      26.426 -14.148  -1.501  0.00  0.00     0.237 C 
ATOM      2  O   UNL d   1      26.285 -12.926  -1.410  0.00  0.00    -0.272 OA
ATOM      3  N   UNL d   1      25.712 -14.961  -2.363  0.00  0.00    -0.247 N 
ATOM      4  H   UNL d   1      25.754 -15.958  -2.202  0.00  0.00     0.192 HD
ENDROOT
BRANCH   1   5
ATOM      5  C   UNL d   1      27.418 -14.926  -0.637  0.00  0.00     0.107 C 
BRANCH   5   6
ATOM      6  C   UNL d   1      26.633 -15.794   0.335  0.00  0.00     0.046 C 
BRANCH   6   7
ATOM      7  C   UNL d   1      26.347 -17.222  -0.130  0.00  0.00     0.151 C 
BRANCH   7   8
ATOM      8  C   UNL d   1      24.867 -17.465  -0.385  0.00  0.00    -0.029 A 
ATOM      9  C   UNL d   1      23.988 -16.383  -0.520  0.00  0.00     0.012 A 
ATOM     10  C   UNL d   1      22.608 -16.597  -0.634  0.00  0.00     0.037 A 
ATOM     11  C   UNL d   1      22.090 -17.893  -0.683  0.00  0.00     0.068 A 
ATOM     12  C   UNL d   1      22.958 -18.973  -0.614  0.00  0.00     0.037 A 
ATOM     13  C   UNL d   1      24.326 -18.760  -0.464  0.00  0.00     0.012 A 
BRANCH  11  14
ATOM     14  O   UNL d   1      20.744 -18.006  -0.896  0.00  0.00    -0.352 OA
BRANCH  14  15
ATOM     15  C   UNL d   1      20.277 -19.325  -1.191  0.00  0.00     0.171 C 
ATOM     16  C   UNL d   1      19.248 -19.706  -0.144  0.00  0.00     0.034 C 
ENDBRANCH  14  15
ENDBRANCH  11  14
ENDBRANCH   7   8
BRANCH   7  17
ATOM     17  O   UNL d   1      27.070 -17.450  -1.340  0.00  0.00    -0.391 OA
ATOM     18  H   UNL d   1      27.932 -17.006  -1.239  0.00  0.00     0.210 HD
ENDBRANCH   7  17
ENDBRANCH   6   7
ENDBRANCH   5   6
ENDBRANCH   1   5
BRANCH   3  19
ATOM     19  N   UNL d   1      24.670 -14.450  -3.095  0.00  0.00    -0.184 NA
ATOM     20  C   UNL d   1      24.903 -13.939  -4.271  0.00  0.00     0.151 C 
BRANCH  20  21
ATOM     21  C   UNL d   1      26.188 -13.878  -5.004  0.00  0.00     0.003 A 
ATOM     22  C   UNL d   1      26.969 -15.050  -5.137  0.00  0.00     0.054 A 
ATOM     23  C   UNL d   1      28.215 -15.017  -5.810  0.00  0.00     0.102 A 
ATOM     24  C   UNL d   1      28.576 -13.823  -6.451  0.00  0.00     0.100 A 
ATOM     25  C   UNL d   1      27.812 -12.675  -6.299  0.00  0.00     0.059 A 
ATOM     26  C   UNL d   1      26.664 -12.673  -5.527  0.00  0.00     0.025 A 
ATOM     27 BR   UNL d   1      25.909 -10.954  -5.236  0.00  0.00    -0.050 Br
BRANCH  23  28
ATOM     28  O   UNL d   1      28.962 -16.171  -5.711  0.00  0.00    -0.349 OA
BRANCH  28  29
ATOM     29  C   UNL d   1      29.922 -16.216  -4.654  0.00  0.00     0.171 C 
ATOM     30  C   UNL d   1      29.332 -16.610  -3.319  0.00  0.00     0.034 C 
ENDBRANCH  28  29
ENDBRANCH  23  28
BRANCH  24  31
ATOM     31  O   UNL d   1      29.666 -13.572  -7.232  0.00  0.00    -0.358 OA
ATOM     32  H   UNL d   1      29.655 -14.074  -8.053  0.00  0.00     0.217 HD
ENDBRANCH  24  31
ENDBRANCH  20  21
ENDBRANCH   3  19
TORSDOF 12
ENDMDL
MODEL 3
REMARK VINA RESULT:    -8.163      2.297      3.296
REMARK INTER + INTRA:         -13.943
REMARK INTER:                 -11.743
REMARK INTRA:                  -2.200
REMARK CONF_INDEPENDENT:        3.580
REMARK UNBOUND:                -2.200
REMARK  12 active torsions:
REMARK  status: ('A' for Active; 'I' for Inactive)
REMARK    1  A    between atoms: C_2  and  O_3 
REMARK    2  A    between atoms: O_3  and  C_4 
REMARK    3  A    between atoms: C_7  and  C_8 
REMARK    4  A    between atoms: C_8  and  O_9 
REMARK    5  A    between atoms: C_8  and  C_10 
REMARK    6  A    between atoms: C_10  and  C_11 
REMARK    7  A    between atoms: C_11  and  C_12 
REMARK       I    between atoms: C_12  and  N_14 
REMARK    8  A    between atoms: N_14  and  N_15 
REMARK    9  A    between atoms: C_16  and  C_17 
REMARK   10  A    between atoms: C_19  and  O_20 
REMARK   11  A    between atoms: O_20  and  C_21 
REMARK   12  A    between atoms: C_23  and  O_24 
ROOT
ATOM      1  C   UNL d   1      28.658 -16.882  -0.521  0.00  0.00     0.237 C 
ATOM      2  O   UNL d   1      28.979 -17.187  -1.672  0.00  0.00    -0.272 OA
ATOM      3  N   UNL d   1      29.056 -15.727   0.128  0.00  0.00    -0.247 N 
ATOM      4  H   UNL d   1      28.915 -15.684   1.128  0.00  0.00     0.192 HD
ENDROOT
BRANCH   1   5
ATOM      5  C   UNL d   1      27.774 -17.776   0.349  0.00  0.00     0.107 C 
BRANCH   5   6
ATOM      6  C   UNL d   1      26.523 -18.129  -0.442  0.00  0.00     0.046 C 
BRANCH   6   7
ATOM      7  C   UNL d   1      25.618 -16.955  -0.814  0.00  0.00     0.151 C 
BRANCH   7   8
ATOM      8  C   UNL d   1      24.143 -17.323  -0.779  0.00  0.00    -0.029 A 
ATOM      9  C   UNL d   1      23.753 -18.668  -0.711  0.00  0.00     0.012 A 
ATOM     10  C   UNL d   1      22.400 -19.022  -0.801  0.00  0.00     0.037 A 
ATOM     11  C   UNL d   1      21.411 -18.041  -0.891  0.00  0.00     0.068 A 
ATOM     12  C   UNL d   1      21.782 -16.703  -0.896  0.00  0.00     0.037 A 
ATOM     13  C   UNL d   1      23.129 -16.352  -0.844  0.00  0.00     0.012 A 
BRANCH  11  14
ATOM     14  O   UNL d   1      20.115 -18.474  -0.873  0.00  0.00    -0.352 OA
BRANCH  14  15
ATOM     15  C   UNL d   1      19.922 -19.816  -0.418  0.00  0.00     0.171 C 
ATOM     16  C   UNL d   1      19.459 -19.762   1.026  0.00  0.00     0.034 C 
ENDBRANCH  14  15
ENDBRANCH  11  14
ENDBRANCH   7   8
BRANCH   7  17
ATOM     17  O   UNL d   1      25.854 -15.897   0.116  0.00  0.00    -0.391 OA
ATOM     18  H   UNL d   1      26.821 -15.820   0.212  0.00  0.00     0.210 HD
ENDBRANCH   7  17
ENDBRANCH   6   7
ENDBRANCH   5   6
ENDBRANCH   1   5
BRANCH   3  19
ATOM     19  N   UNL d   1      29.979 -14.891  -0.449  0.00  0.00    -0.184 NA
ATOM     20  C   UNL d   1      29.696 -14.304  -1.577  0.00  0.00     0.151 C 
BRANCH  20  21
ATOM     21  C   UNL d   1      28.431 -14.360  -2.345  0.00  0.00     0.003 A 
ATOM     22  C   UNL d   1      28.440 -14.878  -3.662  0.00  0.00     0.054 A 
ATOM     23  C   UNL d   1      27.251 -14.920  -4.430  0.00  0.00     0.102 A 
ATOM     24  C   UNL d   1      26.053 -14.562  -3.796  0.00  0.00     0.100 A 
ATOM     25  C   UNL d   1      26.058 -14.039  -2.510  0.00  0.00     0.059 A 
ATOM     26  C   UNL d   1      27.238 -13.870  -1.809  0.00  0.00     0.025 A 
ATOM     27 BR   UNL d   1      27.059 -12.906  -0.180  0.00  0.00    -0.050 Br
BRANCH  23  28
ATOM     28  O   UNL d   1      27.424 -15.268  -5.753  0.00  0.00    -0.349 OA
BRANCH  28  29
ATOM     29  C   UNL d   1      28.584 -14.744  -6.400  0.00  0.00     0.171 C 
ATOM     30  C   UNL d   1      28.651 -13.235  -6.391  0.00  0.00     0.034 C 
ENDBRANCH  28  29
ENDBRANCH  23  28
BRANCH  24  31
ATOM     31  O   UNL d   1      24.781 -14.609  -4.287  0.00  0.00    -0.358 OA
ATOM     32  H   UNL d   1      24.675 -14.078  -5.083  0.00  0.00     0.217 HD
ENDBRANCH  24  31
ENDBRANCH  20  21
ENDBRANCH   3  19
TORSDOF 12
ENDMDL
MODEL 4
REMARK VINA RESULT:    -7.630      2.794      4.479
REMARK INTER + INTRA:         -13.409
REMARK INTER:                 -11.209
REMARK INTRA:                  -2.200
REMARK CONF_INDEPENDENT:        3.580
REMARK UNBOUND:                -2.200
REMARK  12 active torsions:
REMARK  status: ('A' for Active; 'I' for Inactive)
REMARK    1  A    between atoms: C_2  and  O_3 
REMARK    2  A    between atoms: O_3  and  C_4 
REMARK    3  A    between atoms: C_7  and  C_8 
REMARK    4  A    between atoms: C_8  and  O_9 
REMARK    5  A    between atoms: C_8  and  C_10 
REMARK    6  A    between atoms: C_10  and  C_11 
REMARK    7  A    between atoms: C_11  and  C_12 
REMARK       I    between atoms: C_12  and  N_14 
REMARK    8  A    between atoms: N_14  and  N_15 
REMARK    9  A    between atoms: C_16  and  C_17 
REMARK   10  A    between atoms: C_19  and  O_20 
REMARK   11  A    between atoms: O_20  and  C_21 
REMARK   12  A    between atoms: C_23  and  O_24 
ROOT
ATOM      1  C   UNL d   1      26.191 -14.781  -4.372  0.00  0.00     0.237 C 
ATOM      2  O   UNL d   1      25.496 -15.604  -4.973  0.00  0.00    -0.272 OA
ATOM      3  N   UNL d   1      27.469 -14.406  -4.747  0.00  0.00    -0.247 N 
ATOM      4  H   UNL d   1      28.020 -13.896  -4.070  0.00  0.00     0.192 HD
ENDROOT
BRANCH   1   5
ATOM      5  C   UNL d   1      25.714 -14.077  -3.102  0.00  0.00     0.107 C 
BRANCH   5   6
ATOM      6  C   UNL d   1      24.644 -14.939  -2.448  0.00  0.00     0.046 C 
BRANCH   6   7
ATOM      7  C   UNL d   1      25.126 -15.865  -1.332  0.00  0.00     0.151 C 
BRANCH   7   8
ATOM      8  C   UNL d   1      24.097 -16.926  -0.972  0.00  0.00    -0.029 A 
ATOM      9  C   UNL d   1      24.499 -18.246  -0.732  0.00  0.00     0.012 A 
ATOM     10  C   UNL d   1      23.548 -19.253  -0.520  0.00  0.00     0.037 A 
ATOM     11  C   UNL d   1      22.187 -18.948  -0.475  0.00  0.00     0.068 A 
ATOM     12  C   UNL d   1      21.780 -17.632  -0.647  0.00  0.00     0.037 A 
ATOM     13  C   UNL d   1      22.723 -16.638  -0.895  0.00  0.00     0.012 A 
BRANCH  11  14
ATOM     14  O   UNL d   1      21.340 -19.975  -0.163  0.00  0.00    -0.352 OA
BRANCH  14  15
ATOM     15  C   UNL d   1      20.292 -19.651   0.755  0.00  0.00     0.171 C 
ATOM     16  C   UNL d   1      19.062 -20.449   0.368  0.00  0.00     0.034 C 
ENDBRANCH  14  15
ENDBRANCH  11  14
ENDBRANCH   7   8
BRANCH   7  17
ATOM     17  O   UNL d   1      26.322 -16.510  -1.772  0.00  0.00    -0.391 OA
ATOM     18  H   UNL d   1      27.048 -15.876  -1.633  0.00  0.00     0.210 HD
ENDBRANCH   7  17
ENDBRANCH   6   7
ENDBRANCH   5   6
ENDBRANCH   1   5
BRANCH   3  19
ATOM     19  N   UNL d   1      28.111 -15.057  -5.770  0.00  0.00    -0.184 NA
ATOM     20  C   UNL d   1      29.018 -15.950  -5.493  0.00  0.00     0.151 C 
BRANCH  20  21
ATOM     21  C   UNL d   1      29.442 -16.441  -4.161  0.00  0.00     0.003 A 
ATOM     22  C   UNL d   1      28.940 -15.812  -2.997  0.00  0.00     0.054 A 
ATOM     23  C   UNL d   1      29.348 -16.242  -1.710  0.00  0.00     0.102 A 
ATOM     24  C   UNL d   1      30.149 -17.390  -1.632  0.00  0.00     0.100 A 
ATOM     25  C   UNL d   1      30.650 -17.988  -2.780  0.00  0.00     0.059 A 
ATOM     26  C   UNL d   1      30.362 -17.484  -4.035  0.00  0.00     0.025 A 
ATOM     27 BR   UNL d   1      31.345 -18.283  -5.452  0.00  0.00    -0.050 Br
BRANCH  23  28
ATOM     28  O   UNL d   1      28.940 -15.435  -0.669  0.00  0.00    -0.349 OA
BRANCH  28  29
ATOM     29  C   UNL d   1      28.196 -16.070   0.371  0.00  0.00     0.171 C 
ATOM     30  C   UNL d   1      27.937 -15.176   1.562  0.00  0.00     0.034 C 
ENDBRANCH  28  29
ENDBRANCH  23  28
BRANCH  24  31
ATOM     31  O   UNL d   1      30.588 -18.048  -0.520  0.00  0.00    -0.358 OA
ATOM     32  H   UNL d   1      30.066 -17.839   0.262  0.00  0.00     0.217 HD
ENDBRANCH  24  31
ENDBRANCH  20  21
ENDBRANCH   3  19
TORSDOF 12
ENDMDL
MODEL 5
REMARK VINA RESULT:    -7.397      2.270      3.751
REMARK INTER + INTRA:         -12.750
REMARK INTER:                 -10.977
REMARK INTRA:                  -1.773
REMARK CONF_INDEPENDENT:        3.580
REMARK UNBOUND:                -1.773
REMARK  12 active torsions:
REMARK  status: ('A' for Active; 'I' for Inactive)
REMARK    1  A    between atoms: C_2  and  O_3 
REMARK    2  A    between atoms: O_3  and  C_4 
REMARK    3  A    between atoms: C_7  and  C_8 
REMARK    4  A    between atoms: C_8  and  O_9 
REMARK    5  A    between atoms: C_8  and  C_10 
REMARK    6  A    between atoms: C_10  and  C_11 
REMARK    7  A    between atoms: C_11  and  C_12 
REMARK       I    between atoms: C_12  and  N_14 
REMARK    8  A    between atoms: N_14  and  N_15 
REMARK    9  A    between atoms: C_16  and  C_17 
REMARK   10  A    between atoms: C_19  and  O_20 
REMARK   11  A    between atoms: O_20  and  C_21 
REMARK   12  A    between atoms: C_23  and  O_24 
ROOT
ATOM      1  C   UNL d   1      25.691 -15.346  -4.086  0.00  0.00     0.237 C 
ATOM      2  O   UNL d   1      24.874 -14.536  -4.529  0.00  0.00    -0.272 OA
ATOM      3  N   UNL d   1      26.983 -15.498  -4.555  0.00  0.00    -0.247 N 
ATOM      4  H   UNL d   1      27.487 -16.327  -4.269  0.00  0.00     0.192 HD
ENDROOT
BRANCH   1   5
ATOM      5  C   UNL d   1      25.355 -16.312  -2.949  0.00  0.00     0.107 C 
BRANCH   5   6
ATOM      6  C   UNL d   1      26.260 -15.996  -1.767  0.00  0.00     0.046 C 
BRANCH   6   7
ATOM      7  C   UNL d   1      25.718 -16.384  -0.392  0.00  0.00     0.151 C 
BRANCH   7   8
ATOM      8  C   UNL d   1      24.419 -17.172  -0.480  0.00  0.00    -0.029 A 
ATOM      9  C   UNL d   1      24.429 -18.566  -0.338  0.00  0.00     0.012 A 
ATOM     10  C   UNL d   1      23.259 -19.310  -0.538  0.00  0.00     0.037 A 
ATOM     11  C   UNL d   1      22.048 -18.673  -0.815  0.00  0.00     0.068 A 
ATOM     12  C   UNL d   1      22.014 -17.287  -0.895  0.00  0.00     0.037 A 
ATOM     13  C   UNL d   1      23.184 -16.550  -0.733  0.00  0.00     0.012 A 
BRANCH  11  14
ATOM     14  O   UNL d   1      20.941 -19.470  -0.895  0.00  0.00    -0.352 OA
BRANCH  14  15
ATOM     15  C   UNL d   1      19.998 -19.324   0.170  0.00  0.00     0.171 C 
ATOM     16  C   UNL d   1      19.014 -20.475   0.091  0.00  0.00     0.034 C 
ENDBRANCH  14  15
ENDBRANCH  11  14
ENDBRANCH   7   8
BRANCH   7  17
ATOM     17  O   UNL d   1      26.701 -17.183   0.267  0.00  0.00    -0.391 OA
ATOM     18  H   UNL d   1      27.569 -16.877  -0.053  0.00  0.00     0.210 HD
ENDBRANCH   7  17
ENDBRANCH   6   7
ENDBRANCH   5   6
ENDBRANCH   1   5
BRANCH   3  19
ATOM     19  N   UNL d   1      27.398 -14.823  -5.675  0.00  0.00    -0.184 NA
ATOM     20  C   UNL d   1      27.554 -13.531  -5.624  0.00  0.00     0.151 C 
BRANCH  20  21
ATOM     21  C   UNL d   1      27.400 -12.636  -4.454  0.00  0.00     0.003 A 
ATOM     22  C   UNL d   1      27.837 -13.075  -3.182  0.00  0.00     0.054 A 
ATOM     23  C   UNL d   1      27.679 -12.252  -2.039  0.00  0.00     0.102 A 
ATOM     24  C   UNL d   1      27.206 -10.947  -2.238  0.00  0.00     0.100 A 
ATOM     25  C   UNL d   1      26.762 -10.534  -3.487  0.00  0.00     0.059 A 
ATOM     26  C   UNL d   1      26.790 -11.385  -4.576  0.00  0.00     0.025 A 
ATOM     27 BR   UNL d   1      25.907 -10.720  -6.122  0.00  0.00    -0.050 Br
BRANCH  23  28
ATOM     28  O   UNL d   1      27.969 -12.861  -0.837  0.00  0.00    -0.349 OA
BRANCH  28  29
ATOM     29  C   UNL d   1      27.013 -12.686   0.209  0.00  0.00     0.171 C 
ATOM     30  C   UNL d   1      27.186 -13.658   1.354  0.00  0.00     0.034 C 
ENDBRANCH  28  29
ENDBRANCH  23  28
BRANCH  24  31
ATOM     31  O   UNL d   1      27.057  -9.946  -1.323  0.00  0.00    -0.358 OA
ATOM     32  H   UNL d   1      27.797  -9.896  -0.709  0.00  0.00     0.217 HD
ENDBRANCH  24  31
ENDBRANCH  20  21
ENDBRANCH   3  19
TORSDOF 12
ENDMDL
MODEL 6
REMARK VINA RESULT:    -7.232      2.095      3.614
REMARK INTER + INTRA:         -13.332
REMARK INTER:                 -10.811
REMARK INTRA:                  -2.521
REMARK CONF_INDEPENDENT:        3.580
REMARK UNBOUND:                -2.521
REMARK  12 active torsions:
REMARK  status: ('A' for Active; 'I' for Inactive)
REMARK    1  A    between atoms: C_2  and  O_3 
REMARK    2  A    between atoms: O_3  and  C_4 
REMARK    3  A    between atoms: C_7  and  C_8 
REMARK    4  A    between atoms: C_8  and  O_9 
REMARK    5  A    between atoms: C_8  and  C_10 
REMARK    6  A    between atoms: C_10  and  C_11 
REMARK    7  A    between atoms: C_11  and  C_12 
REMARK       I    between atoms: C_12  and  N_14 
REMARK    8  A    between atoms: N_14  and  N_15 
REMARK    9  A    between atoms: C_16  and  C_17 
REMARK   10  A    between atoms: C_19  and  O_20 
REMARK   11  A    between atoms: O_20  and  C_21 
REMARK   12  A    between atoms: C_23  and  O_24 
ROOT
ATOM      1  C   UNL d   1      26.420 -14.495  -2.020  0.00  0.00     0.237 C 
ATOM      2  O   UNL d   1      25.687 -13.503  -1.985  0.00  0.00    -0.272 OA
ATOM      3  N   UNL d   1      26.442 -15.422  -3.046  0.00  0.00    -0.247 N 
ATOM      4  H   UNL d   1      26.917 -16.297  -2.871  0.00  0.00     0.192 HD
ENDROOT
BRANCH   1   5
ATOM      5  C   UNL d   1      27.401 -14.829  -0.896  0.00  0.00     0.107 C 
BRANCH   5   6
ATOM      6  C   UNL d   1      26.644 -15.565   0.200  0.00  0.00     0.046 C 
BRANCH   6   7
ATOM      7  C   UNL d   1      26.384 -17.049  -0.053  0.00  0.00     0.151 C 
BRANCH   7   8
ATOM      8  C   UNL d   1      24.915 -17.345  -0.320  0.00  0.00    -0.029 A 
ATOM      9  C   UNL d   1      24.051 -16.319  -0.723  0.00  0.00     0.012 A 
ATOM     10  C   UNL d   1      22.677 -16.556  -0.853  0.00  0.00     0.037 A 
ATOM     11  C   UNL d   1      22.151 -17.833  -0.649  0.00  0.00     0.068 A 
ATOM     12  C   UNL d   1      23.008 -18.872  -0.311  0.00  0.00     0.037 A 
ATOM     13  C   UNL d   1      24.369 -18.629  -0.146  0.00  0.00     0.012 A 
BRANCH  11  14
ATOM     14  O   UNL d   1      20.816 -17.993  -0.896  0.00  0.00    -0.352 OA
BRANCH  14  15
ATOM     15  C   UNL d   1      20.404 -19.325  -1.210  0.00  0.00     0.171 C 
ATOM     16  C   UNL d   1      19.613 -19.865  -0.033  0.00  0.00     0.034 C 
ENDBRANCH  14  15
ENDBRANCH  11  14
ENDBRANCH   7   8
BRANCH   7  17
ATOM     17  O   UNL d   1      27.151 -17.450  -1.189  0.00  0.00    -0.391 OA
ATOM     18  H   UNL d   1      28.071 -17.178  -1.015  0.00  0.00     0.210 HD
ENDBRANCH   7  17
ENDBRANCH   6   7
ENDBRANCH   5   6
ENDBRANCH   1   5
BRANCH   3  19
ATOM     19  N   UNL d   1      25.515 -15.361  -4.055  0.00  0.00    -0.184 NA
ATOM     20  C   UNL d   1      25.548 -14.368  -4.898  0.00  0.00     0.151 C 
BRANCH  20  21
ATOM     21  C   UNL d   1      26.531 -13.262  -4.970  0.00  0.00     0.003 A 
ATOM     22  C   UNL d   1      26.081 -11.925  -4.863  0.00  0.00     0.054 A 
ATOM     23  C   UNL d   1      26.994 -10.846  -4.954  0.00  0.00     0.102 A 
ATOM     24  C   UNL d   1      28.360 -11.153  -5.014  0.00  0.00     0.100 A 
ATOM     25  C   UNL d   1      28.789 -12.467  -5.136  0.00  0.00     0.059 A 
ATOM     26  C   UNL d   1      27.888 -13.515  -5.185  0.00  0.00     0.025 A 
ATOM     27 BR   UNL d   1      28.656 -15.200  -5.611  0.00  0.00    -0.050 Br
BRANCH  23  28
ATOM     28  O   UNL d   1      26.414  -9.597  -5.025  0.00  0.00    -0.349 OA
BRANCH  28  29
ATOM     29  C   UNL d   1      25.156  -9.444  -4.367  0.00  0.00     0.171 C 
ATOM     30  C   UNL d   1      24.253  -8.423  -5.020  0.00  0.00     0.034 C 
ENDBRANCH  28  29
ENDBRANCH  23  28
BRANCH  24  31
ATOM     31  O   UNL d   1      29.426 -10.301  -5.013  0.00  0.00    -0.358 OA
ATOM     32  H   UNL d   1      29.188  -9.413  -5.300  0.00  0.00     0.217 HD
ENDBRANCH  24  31
ENDBRANCH  20  21
ENDBRANCH   3  19
TORSDOF 12
ENDMDL
MODEL 7
REMARK VINA RESULT:    -7.102      2.264      3.393
REMARK INTER + INTRA:         -12.870
REMARK INTER:                 -10.682
REMARK INTRA:                  -2.188
REMARK CONF_INDEPENDENT:        3.580
REMARK UNBOUND:                -2.188
REMARK  12 active torsions:
REMARK  status: ('A' for Active; 'I' for Inactive)
REMARK    1  A    between atoms: C_2  and  O_3 
REMARK    2  A    between atoms: O_3  and  C_4 
REMARK    3  A    between atoms: C_7  and  C_8 
REMARK    4  A    between atoms: C_8  and  O_9 
REMARK    5  A    between atoms: C_8  and  C_10 
REMARK    6  A    between atoms: C_10  and  C_11 
REMARK    7  A    between atoms: C_11  and  C_12 
REMARK       I    between atoms: C_12  and  N_14 
REMARK    8  A    between atoms: N_14  and  N_15 
REMARK    9  A    between atoms: C_16  and  C_17 
REMARK   10  A    between atoms: C_19  and  O_20 
REMARK   11  A    between atoms: O_20  and  C_21 
REMARK   12  A    between atoms: C_23  and  O_24 
ROOT
ATOM      1  C   UNL d   1      28.556 -15.719  -1.470  0.00  0.00     0.237 C 
ATOM      2  O   UNL d   1      29.381 -14.838  -1.217  0.00  0.00    -0.272 OA
ATOM      3  N   UNL d   1      28.872 -16.982  -1.938  0.00  0.00    -0.247 N 
ATOM      4  H   UNL d   1      28.116 -17.540  -2.312  0.00  0.00     0.192 HD
ENDROOT
BRANCH   1   5
ATOM      5  C   UNL d   1      27.051 -15.505  -1.307  0.00  0.00     0.107 C 
BRANCH   5   6
ATOM      6  C   UNL d   1      26.658 -15.913   0.105  0.00  0.00     0.046 C 
BRANCH   6   7
ATOM      7  C   UNL d   1      26.204 -17.363   0.276  0.00  0.00     0.151 C 
BRANCH   7   8
ATOM      8  C   UNL d   1      24.758 -17.574  -0.147  0.00  0.00    -0.029 A 
ATOM      9  C   UNL d   1      23.964 -16.479  -0.512  0.00  0.00     0.012 A 
ATOM     10  C   UNL d   1      22.600 -16.649  -0.785  0.00  0.00     0.037 A 
ATOM     11  C   UNL d   1      22.022 -17.919  -0.764  0.00  0.00     0.068 A 
ATOM     12  C   UNL d   1      22.814 -19.019  -0.465  0.00  0.00     0.037 A 
ATOM     13  C   UNL d   1      24.161 -18.846  -0.158  0.00  0.00     0.012 A 
BRANCH  11  14
ATOM     14  O   UNL d   1      20.710 -18.002  -1.140  0.00  0.00    -0.352 OA
BRANCH  14  15
ATOM     15  C   UNL d   1      20.148 -19.316  -1.126  0.00  0.00     0.171 C 
ATOM     16  C   UNL d   1      19.588 -19.575   0.260  0.00  0.00     0.034 C 
ENDBRANCH  14  15
ENDBRANCH  11  14
ENDBRANCH   7   8
BRANCH   7  17
ATOM     17  O   UNL d   1      27.047 -18.192  -0.526  0.00  0.00    -0.391 OA
ATOM     18  H   UNL d   1      27.942 -18.133  -0.144  0.00  0.00     0.210 HD
ENDBRANCH   7  17
ENDBRANCH   6   7
ENDBRANCH   5   6
ENDBRANCH   1   5
BRANCH   3  19
ATOM     19  N   UNL d   1      30.162 -17.289  -2.291  0.00  0.00    -0.184 NA
ATOM     20  C   UNL d   1      30.646 -16.831  -3.410  0.00  0.00     0.151 C 
BRANCH  20  21
ATOM     21  C   UNL d   1      29.996 -15.928  -4.387  0.00  0.00     0.003 A 
ATOM     22  C   UNL d   1      28.588 -15.949  -4.523  0.00  0.00     0.054 A 
ATOM     23  C   UNL d   1      27.940 -15.115  -5.467  0.00  0.00     0.102 A 
ATOM     24  C   UNL d   1      28.724 -14.180  -6.156  0.00  0.00     0.100 A 
ATOM     25  C   UNL d   1      30.107 -14.180  -6.028  0.00  0.00     0.059 A 
ATOM     26  C   UNL d   1      30.752 -15.087  -5.208  0.00  0.00     0.025 A 
ATOM     27 BR   UNL d   1      32.645 -15.092  -5.369  0.00  0.00    -0.050 Br
BRANCH  23  28
ATOM     28  O   UNL d   1      26.594 -15.362  -5.636  0.00  0.00    -0.349 OA
BRANCH  28  29
ATOM     29  C   UNL d   1      25.778 -15.254  -4.468  0.00  0.00     0.171 C 
ATOM     30  C   UNL d   1      25.157 -13.888  -4.289  0.00  0.00     0.034 C 
ENDBRANCH  28  29
ENDBRANCH  23  28
BRANCH  24  31
ATOM     31  O   UNL d   1      28.326 -13.215  -7.035  0.00  0.00    -0.358 OA
ATOM     32  H   UNL d   1      27.449 -12.872  -6.832  0.00  0.00     0.217 HD
ENDBRANCH  24  31
ENDBRANCH  20  21
ENDBRANCH   3  19
TORSDOF 12
ENDMDL
MODEL 8
REMARK VINA RESULT:    -6.452      2.298      3.085
REMARK INTER + INTRA:         -13.200
REMARK INTER:                 -10.032
REMARK INTRA:                  -3.169
REMARK CONF_INDEPENDENT:        3.580
REMARK UNBOUND:                -3.169
REMARK  12 active torsions:
REMARK  status: ('A' for Active; 'I' for Inactive)
REMARK    1  A    between atoms: C_2  and  O_3 
REMARK    2  A    between atoms: O_3  and  C_4 
REMARK    3  A    between atoms: C_7  and  C_8 
REMARK    4  A    between atoms: C_8  and  O_9 
REMARK    5  A    between atoms: C_8  and  C_10 
REMARK    6  A    between atoms: C_10  and  C_11 
REMARK    7  A    between atoms: C_11  and  C_12 
REMARK       I    between atoms: C_12  and  N_14 
REMARK    8  A    between atoms: N_14  and  N_15 
REMARK    9  A    between atoms: C_16  and  C_17 
REMARK   10  A    between atoms: C_19  and  O_20 
REMARK   11  A    between atoms: O_20  and  C_21 
REMARK   12  A    between atoms: C_23  and  O_24 
ROOT
ATOM      1  C   UNL d   1      28.535 -13.438   0.395  0.00  0.00     0.237 C 
ATOM      2  O   UNL d   1      28.242 -12.424   1.033  0.00  0.00    -0.272 OA
ATOM      3  N   UNL d   1      29.296 -13.449  -0.760  0.00  0.00    -0.247 N 
ATOM      4  H   UNL d   1      29.291 -14.297  -1.311  0.00  0.00     0.192 HD
ENDROOT
BRANCH   1   5
ATOM      5  C   UNL d   1      28.065 -14.832   0.809  0.00  0.00     0.107 C 
BRANCH   5   6
ATOM      6  C   UNL d   1      29.023 -15.857   0.221  0.00  0.00     0.046 C 
BRANCH   6   7
ATOM      7  C   UNL d   1      28.485 -16.675  -0.952  0.00  0.00     0.151 C 
BRANCH   7   8
ATOM      8  C   UNL d   1      26.989 -16.931  -0.845  0.00  0.00    -0.029 A 
ATOM      9  C   UNL d   1      26.088 -16.177  -1.610  0.00  0.00     0.012 A 
ATOM     10  C   UNL d   1      24.707 -16.321  -1.429  0.00  0.00     0.037 A 
ATOM     11  C   UNL d   1      24.200 -17.265  -0.534  0.00  0.00     0.068 A 
ATOM     12  C   UNL d   1      25.083 -18.062   0.183  0.00  0.00     0.037 A 
ATOM     13  C   UNL d   1      26.457 -17.893   0.030  0.00  0.00     0.012 A 
BRANCH  11  14
ATOM     14  O   UNL d   1      22.841 -17.406  -0.496  0.00  0.00    -0.352 OA
BRANCH  14  15
ATOM     15  C   UNL d   1      22.365 -18.746  -0.350  0.00  0.00     0.171 C 
ATOM     16  C   UNL d   1      20.945 -18.804  -0.881  0.00  0.00     0.034 C 
ENDBRANCH  14  15
ENDBRANCH  11  14
ENDBRANCH   7   8
BRANCH   7  17
ATOM     17  O   UNL d   1      28.747 -15.953  -2.157  0.00  0.00    -0.391 OA
ATOM     18  H   UNL d   1      27.977 -16.091  -2.738  0.00  0.00     0.210 HD
ENDBRANCH   7  17
ENDBRANCH   6   7
ENDBRANCH   5   6
ENDBRANCH   1   5
BRANCH   3  19
ATOM     19  N   UNL d   1      29.665 -12.271  -1.359  0.00  0.00    -0.184 NA
ATOM     20  C   UNL d   1      29.080 -11.902  -2.463  0.00  0.00     0.151 C 
BRANCH  20  21
ATOM     21  C   UNL d   1      27.969 -12.573  -3.178  0.00  0.00     0.003 A 
ATOM     22  C   UNL d   1      28.196 -13.825  -3.794  0.00  0.00     0.054 A 
ATOM     23  C   UNL d   1      27.160 -14.478  -4.507  0.00  0.00     0.102 A 
ATOM     24  C   UNL d   1      25.880 -13.909  -4.462  0.00  0.00     0.100 A 
ATOM     25  C   UNL d   1      25.673 -12.671  -3.870  0.00  0.00     0.059 A 
ATOM     26  C   UNL d   1      26.715 -11.968  -3.292  0.00  0.00     0.025 A 
ATOM     27 BR   UNL d   1      26.278 -10.194  -2.769  0.00  0.00    -0.050 Br
BRANCH  23  28
ATOM     28  O   UNL d   1      27.554 -15.593  -5.217  0.00  0.00    -0.349 OA
BRANCH  28  29
ATOM     29  C   UNL d   1      28.891 -15.585  -5.720  0.00  0.00     0.171 C 
ATOM     30  C   UNL d   1      29.849 -16.419  -4.901  0.00  0.00     0.034 C 
ENDBRANCH  28  29
ENDBRANCH  23  28
BRANCH  24  31
ATOM     31  O   UNL d   1      24.714 -14.391  -4.982  0.00  0.00    -0.358 OA
ATOM     32  H   UNL d   1      24.026 -13.719  -5.026  0.00  0.00     0.217 HD
ENDBRANCH  24  31
ENDBRANCH  20  21
ENDBRANCH   3  19
TORSDOF 12
ENDMDL
MODEL 9
REMARK VINA RESULT:    -5.849      2.979      4.273
REMARK INTER + INTRA:         -12.795
REMARK INTER:                  -9.429
REMARK INTRA:                  -3.366
REMARK CONF_INDEPENDENT:        3.580
REMARK UNBOUND:                -3.366
REMARK  12 active torsions:
REMARK  status: ('A' for Active; 'I' for Inactive)
REMARK    1  A    between atoms: C_2  and  O_3 
REMARK    2  A    between atoms: O_3  and  C_4 
REMARK    3  A    between atoms: C_7  and  C_8 
REMARK    4  A    between atoms: C_8  and  O_9 
REMARK    5  A    between atoms: C_8  and  C_10 
REMARK    6  A    between atoms: C_10  and  C_11 
REMARK    7  A    between atoms: C_11  and  C_12 
REMARK       I    between atoms: C_12  and  N_14 
REMARK    8  A    between atoms: N_14  and  N_15 
REMARK    9  A    between atoms: C_16  and  C_17 
REMARK   10  A    between atoms: C_19  and  O_20 
REMARK   11  A    between atoms: O_20  and  C_21 
REMARK   12  A    between atoms: C_23  and  O_24 
ROOT
ATOM      1  C   UNL d   1      29.412 -12.348  -1.241  0.00  0.00     0.237 C 
ATOM      2  O   UNL d   1      29.338 -11.277  -1.847  0.00  0.00    -0.272 OA
ATOM      3  N   UNL d   1      30.144 -13.443  -1.664  0.00  0.00    -0.247 N 
ATOM      4  H   UNL d   1      29.962 -14.327  -1.209  0.00  0.00     0.192 HD
ENDROOT
BRANCH   1   5
ATOM      5  C   UNL d   1      28.670 -12.602   0.072  0.00  0.00     0.107 C 
BRANCH   5   6
ATOM      6  C   UNL d   1      27.521 -13.561  -0.203  0.00  0.00     0.046 C 
BRANCH   6   7
ATOM      7  C   UNL d   1      27.589 -14.904   0.522  0.00  0.00     0.151 C 
BRANCH   7   8
ATOM      8  C   UNL d   1      26.581 -15.908  -0.016  0.00  0.00    -0.029 A 
ATOM      9  C   UNL d   1      25.550 -15.484  -0.866  0.00  0.00     0.012 A 
ATOM     10  C   UNL d   1      24.548 -16.377  -1.268  0.00  0.00     0.037 A 
ATOM     11  C   UNL d   1      24.594 -17.719  -0.887  0.00  0.00     0.068 A 
ATOM     12  C   UNL d   1      25.645 -18.164  -0.098  0.00  0.00     0.037 A 
ATOM     13  C   UNL d   1      26.621 -17.269   0.333  0.00  0.00     0.012 A 
BRANCH  11  14
ATOM     14  O   UNL d   1      23.630 -18.537  -1.408  0.00  0.00    -0.352 OA
BRANCH  14  15
ATOM     15  C   UNL d   1      22.806 -19.205  -0.450  0.00  0.00     0.171 C 
ATOM     16  C   UNL d   1      21.356 -18.948  -0.814  0.00  0.00     0.034 C 
ENDBRANCH  14  15
ENDBRANCH  11  14
ENDBRANCH   7   8
BRANCH   7  17
ATOM     17  O   UNL d   1      28.905 -15.435   0.357  0.00  0.00    -0.391 OA
ATOM     18  H   UNL d   1      29.076 -16.003   1.130  0.00  0.00     0.210 HD
ENDBRANCH   7  17
ENDBRANCH   6   7
ENDBRANCH   5   6
ENDBRANCH   1   5
BRANCH   3  19
ATOM     19  N   UNL d   1      30.741 -13.443  -2.899  0.00  0.00    -0.184 NA
ATOM     20  C   UNL d   1      30.011 -13.624  -3.963  0.00  0.00     0.151 C 
BRANCH  20  21
ATOM     21  C   UNL d   1      28.541 -13.780  -4.049  0.00  0.00     0.003 A 
ATOM     22  C   UNL d   1      27.759 -12.719  -4.563  0.00  0.00     0.054 A 
ATOM     23  C   UNL d   1      26.348 -12.829  -4.633  0.00  0.00     0.102 A 
ATOM     24  C   UNL d   1      25.775 -14.067  -4.308  0.00  0.00     0.100 A 
ATOM     25  C   UNL d   1      26.550 -15.094  -3.787  0.00  0.00     0.059 A 
ATOM     26  C   UNL d   1      27.910 -14.939  -3.590  0.00  0.00     0.025 A 
ATOM     27 BR   UNL d   1      28.738 -16.359  -2.636  0.00  0.00    -0.050 Br
BRANCH  23  28
ATOM     28  O   UNL d   1      25.689 -11.667  -4.973  0.00  0.00    -0.349 OA
BRANCH  28  29
ATOM     29  C   UNL d   1      25.920 -10.537  -4.131  0.00  0.00     0.171 C 
ATOM     30  C   UNL d   1      26.294 -10.906  -2.714  0.00  0.00     0.034 C 
ENDBRANCH  28  29
ENDBRANCH  23  28
BRANCH  24  31
ATOM     31  O   UNL d   1      24.467 -14.447  -4.385  0.00  0.00    -0.358 OA
ATOM     32  H   UNL d   1      23.993 -13.994  -5.090  0.00  0.00     0.217 HD
ENDBRANCH  24  31
ENDBRANCH  20  21
ENDBRANCH   3  19
TORSDOF 12
ENDMDL
