MODEL 1
REMARK VINA RESULT:    -8.344      0.000      0.000
REMARK INTER + INTRA:         -11.977
REMARK INTER:                 -11.029
REMARK INTRA:                  -0.949
REMARK CONF_INDEPENDENT:        2.685
REMARK UNBOUND:                -0.949
REMARK  9 active torsions:
REMARK  status: ('A' for Active; 'I' for Inactive)
REMARK    1  A    between atoms: C_2  and  C_3 
REMARK       I    between atoms: C_2  and  N_10 
REMARK    2  A    between atoms: C_3  and  C_4 
REMARK    3  A    between atoms: N_10  and  N_11 
REMARK    4  A    between atoms: N_11  and  C_12 
REMARK    5  A    between atoms: C_12  and  N_14 
REMARK       I    between atoms: N_14  and  C_15 
REMARK    6  A    between atoms: C_15  and  C_17 
REMARK    7  A    between atoms: C_17  and  O_18 
REMARK    8  A    between atoms: O_18  and  C_19 
REMARK    9  A    between atoms: C_22  and  N_23 
ROOT
ATOM      1  C   UNL d   1      28.365 -14.405   3.666  0.00  0.00     0.193 C 
ATOM      2  S   UNL d   1      27.420 -13.216   4.408  0.00  0.00    -0.039 SA
ENDROOT
BRANCH   1   3
ATOM      3  N   UNL d   1      29.441 -14.981   4.375  0.00  0.00    -0.273 N 
ATOM      4  H   UNL d   1      29.679 -15.965   4.371  0.00  0.00     0.189 HD
BRANCH   3   5
ATOM      5  N   UNL d   1      30.262 -14.106   5.154  0.00  0.00    -0.268 N 
ATOM      6  C   UNL d   1      30.032 -13.577   6.399  0.00  0.00     0.240 C 
ATOM      7  O   UNL d   1      30.886 -12.829   6.884  0.00  0.00    -0.272 OA
ATOM      8  H   UNL d   1      31.148 -13.826   4.723  0.00  0.00     0.190 HD
BRANCH   6   9
ATOM      9  C   UNL d   1      28.745 -13.946   7.112  0.00  0.00     0.143 C 
BRANCH   9  10
ATOM     10  C   UNL d   1      28.804 -13.732   8.612  0.00  0.00    -0.049 A 
ATOM     11  C   UNL d   1      29.009 -14.807   9.488  0.00  0.00     0.007 A 
ATOM     12  C   UNL d   1      28.895 -14.623  10.868  0.00  0.00     0.001 A 
ATOM     13  C   UNL d   1      28.651 -13.354  11.389  0.00  0.00     0.000 A 
ATOM     14  C   UNL d   1      28.485 -12.271  10.530  0.00  0.00     0.001 A 
ATOM     15  C   UNL d   1      28.557 -12.458   9.149  0.00  0.00     0.007 A 
ENDBRANCH   9  10
ENDBRANCH   6   9
ENDBRANCH   3   5
ENDBRANCH   1   3
BRANCH   1  16
ATOM     16  N   UNL d   1      28.178 -14.900   2.350  0.00  0.00    -0.301 N 
ATOM     17  C   UNL d   1      27.384 -14.298   1.343  0.00  0.00     0.248 C 
ATOM     18  O   UNL d   1      26.743 -13.262   1.529  0.00  0.00    -0.271 OA
ATOM     19  H   UNL d   1      28.656 -15.755   2.108  0.00  0.00     0.171 HD
BRANCH  17  20
ATOM     20  C   UNL d   1      27.302 -14.975  -0.052  0.00  0.00     0.278 C 
BRANCH  20  21
ATOM     21  O   UNL d   1      26.885 -16.344   0.156  0.00  0.00    -0.342 OA
BRANCH  21  22
ATOM     22  C   UNL d   1      25.611 -16.732  -0.141  0.00  0.00     0.069 A 
ATOM     23  C   UNL d   1      25.277 -18.057   0.183  0.00  0.00     0.039 A 
ATOM     24  C   UNL d   1      24.023 -18.593  -0.149  0.00  0.00     0.039 A 
ATOM     25  C   UNL d   1      23.076 -17.771  -0.769  0.00  0.00     0.103 A 
ATOM     26  C   UNL d   1      23.412 -16.459  -1.128  0.00  0.00     0.039 A 
ATOM     27  C   UNL d   1      24.682 -15.948  -0.822  0.00  0.00     0.039 A 
BRANCH  25  28
ATOM     28  N   UNL d   1      21.709 -18.265  -0.990  0.00  0.00    -0.116 N 
ATOM     29  O   UNL d   1      20.782 -17.449  -0.953  0.00  0.00    -0.532 OA
ATOM     30  O   UNL d   1      21.571 -19.477  -1.235  0.00  0.00    -0.532 OA
ENDBRANCH  25  28
ENDBRANCH  21  22
ENDBRANCH  20  21
ENDBRANCH  17  20
ENDBRANCH   1  16
TORSDOF 9
ENDMDL
MODEL 2
REMARK VINA RESULT:    -7.241      6.698      9.939
REMARK INTER + INTRA:         -12.276
REMARK INTER:                  -9.925
REMARK INTRA:                  -2.350
REMARK CONF_INDEPENDENT:        2.685
REMARK UNBOUND:                -2.350
REMARK  9 active torsions:
REMARK  status: ('A' for Active; 'I' for Inactive)
REMARK    1  A    between atoms: C_2  and  C_3 
REMARK       I    between atoms: C_2  and  N_10 
REMARK    2  A    between atoms: C_3  and  C_4 
REMARK    3  A    between atoms: N_10  and  N_11 
REMARK    4  A    between atoms: N_11  and  C_12 
REMARK    5  A    between atoms: C_12  and  N_14 
REMARK       I    between atoms: N_14  and  C_15 
REMARK    6  A    between atoms: C_15  and  C_17 
REMARK    7  A    between atoms: C_17  and  O_18 
REMARK    8  A    between atoms: O_18  and  C_19 
REMARK    9  A    between atoms: C_22  and  N_23 
ROOT
ATOM      1  C   UNL d   1      25.705 -14.796  -3.748  0.00  0.00     0.193 C 
ATOM      2  S   UNL d   1      25.892 -15.500  -5.273  0.00  0.00    -0.039 SA
ENDROOT
BRANCH   1   3
ATOM      3  N   UNL d   1      25.437 -13.413  -3.648  0.00  0.00    -0.273 N 
ATOM      4  H   UNL d   1      25.393 -12.891  -2.783  0.00  0.00     0.189 HD
BRANCH   3   5
ATOM      5  N   UNL d   1      25.219 -12.694  -4.865  0.00  0.00    -0.268 N 
ATOM      6  C   UNL d   1      26.094 -11.922  -5.589  0.00  0.00     0.240 C 
ATOM      7  O   UNL d   1      25.682 -11.382  -6.620  0.00  0.00    -0.272 OA
ATOM      8  H   UNL d   1      24.274 -12.755  -5.255  0.00  0.00     0.190 HD
BRANCH   6   9
ATOM      9  C   UNL d   1      27.518 -11.784  -5.085  0.00  0.00     0.143 C 
BRANCH   9  10
ATOM     10  C   UNL d   1      28.527 -12.556  -5.912  0.00  0.00    -0.049 A 
ATOM     11  C   UNL d   1      28.513 -13.957  -5.946  0.00  0.00     0.007 A 
ATOM     12  C   UNL d   1      29.545 -14.659  -6.573  0.00  0.00     0.001 A 
ATOM     13  C   UNL d   1      30.559 -13.970  -7.237  0.00  0.00     0.000 A 
ATOM     14  C   UNL d   1      30.562 -12.577  -7.245  0.00  0.00     0.001 A 
ATOM     15  C   UNL d   1      29.554 -11.874  -6.584  0.00  0.00     0.007 A 
ENDBRANCH   9  10
ENDBRANCH   6   9
ENDBRANCH   3   5
ENDBRANCH   1   3
BRANCH   1  16
ATOM     16  N   UNL d   1      25.794 -15.482  -2.511  0.00  0.00    -0.301 N 
ATOM     17  C   UNL d   1      26.088 -14.894  -1.256  0.00  0.00     0.248 C 
ATOM     18  O   UNL d   1      26.323 -13.692  -1.121  0.00  0.00    -0.271 OA
ATOM     19  H   UNL d   1      25.629 -16.478  -2.524  0.00  0.00     0.171 HD
BRANCH  17  20
ATOM     20  C   UNL d   1      26.135 -15.800   0.005  0.00  0.00     0.278 C 
BRANCH  20  21
ATOM     21  O   UNL d   1      25.880 -17.156  -0.427  0.00  0.00    -0.342 OA
BRANCH  21  22
ATOM     22  C   UNL d   1      24.601 -17.599  -0.600  0.00  0.00     0.069 A 
ATOM     23  C   UNL d   1      23.621 -16.607  -0.771  0.00  0.00     0.039 A 
ATOM     24  C   UNL d   1      22.262 -16.939  -0.876  0.00  0.00     0.039 A 
ATOM     25  C   UNL d   1      21.888 -18.287  -0.858  0.00  0.00     0.103 A 
ATOM     26  C   UNL d   1      22.854 -19.281  -0.652  0.00  0.00     0.039 A 
ATOM     27  C   UNL d   1      24.206 -18.932  -0.512  0.00  0.00     0.039 A 
BRANCH  25  28
ATOM     28  N   UNL d   1      20.491 -18.664  -1.116  0.00  0.00    -0.116 N 
ATOM     29  O   UNL d   1      19.611 -17.825  -0.895  0.00  0.00    -0.532 OA
ATOM     30  O   UNL d   1      20.280 -19.801  -1.575  0.00  0.00    -0.532 OA
ENDBRANCH  25  28
ENDBRANCH  21  22
ENDBRANCH  20  21
ENDBRANCH  17  20
ENDBRANCH   1  16
TORSDOF 9
ENDMDL
MODEL 3
REMARK VINA RESULT:    -7.205      1.820      2.423
REMARK INTER + INTRA:         -12.044
REMARK INTER:                  -9.890
REMARK INTRA:                  -2.154
REMARK CONF_INDEPENDENT:        2.685
REMARK UNBOUND:                -2.154
REMARK  9 active torsions:
REMARK  status: ('A' for Active; 'I' for Inactive)
REMARK    1  A    between atoms: C_2  and  C_3 
REMARK       I    between atoms: C_2  and  N_10 
REMARK    2  A    between atoms: C_3  and  C_4 
REMARK    3  A    between atoms: N_10  and  N_11 
REMARK    4  A    between atoms: N_11  and  C_12 
REMARK    5  A    between atoms: C_12  and  N_14 
REMARK       I    between atoms: N_14  and  C_15 
REMARK    6  A    between atoms: C_15  and  C_17 
REMARK    7  A    between atoms: C_17  and  O_18 
REMARK    8  A    between atoms: O_18  and  C_19 
REMARK    9  A    between atoms: C_22  and  N_23 
ROOT
ATOM      1  C   UNL d   1      27.389 -13.184   1.701  0.00  0.00     0.193 C 
ATOM      2  S   UNL d   1      26.696 -11.643   1.734  0.00  0.00    -0.039 SA
ENDROOT
BRANCH   1   3
ATOM      3  N   UNL d   1      28.570 -13.432   2.433  0.00  0.00    -0.273 N 
ATOM      4  H   UNL d   1      29.428 -12.900   2.348  0.00  0.00     0.189 HD
BRANCH   3   5
ATOM      5  N   UNL d   1      28.552 -14.512   3.370  0.00  0.00    -0.268 N 
ATOM      6  C   UNL d   1      28.160 -14.516   4.685  0.00  0.00     0.240 C 
ATOM      7  O   UNL d   1      28.237 -15.576   5.315  0.00  0.00    -0.272 OA
ATOM      8  H   UNL d   1      28.884 -15.414   3.016  0.00  0.00     0.190 HD
BRANCH   6   9
ATOM      9  C   UNL d   1      27.647 -13.222   5.288  0.00  0.00     0.143 C 
BRANCH   9  10
ATOM     10  C   UNL d   1      28.353 -12.834   6.572  0.00  0.00    -0.049 A 
ATOM     11  C   UNL d   1      28.905 -13.807   7.416  0.00  0.00     0.007 A 
ATOM     12  C   UNL d   1      29.402 -13.451   8.672  0.00  0.00     0.001 A 
ATOM     13  C   UNL d   1      29.424 -12.114   9.065  0.00  0.00     0.000 A 
ATOM     14  C   UNL d   1      28.915 -11.133   8.218  0.00  0.00     0.001 A 
ATOM     15  C   UNL d   1      28.379 -11.490   6.980  0.00  0.00     0.007 A 
ENDBRANCH   9  10
ENDBRANCH   6   9
ENDBRANCH   3   5
ENDBRANCH   1   3
BRANCH   1  16
ATOM     16  N   UNL d   1      26.882 -14.296   0.982  0.00  0.00    -0.301 N 
ATOM     17  C   UNL d   1      27.618 -15.448   0.608  0.00  0.00     0.248 C 
ATOM     18  O   UNL d   1      28.816 -15.585   0.864  0.00  0.00    -0.271 OA
ATOM     19  H   UNL d   1      25.908 -14.268   0.717  0.00  0.00     0.171 HD
BRANCH  17  20
ATOM     20  C   UNL d   1      26.895 -16.580  -0.170  0.00  0.00     0.278 C 
BRANCH  20  21
ATOM     21  O   UNL d   1      25.565 -16.108  -0.485  0.00  0.00    -0.342 OA
BRANCH  21  22
ATOM     22  C   UNL d   1      24.514 -16.978  -0.525  0.00  0.00     0.069 A 
ATOM     23  C   UNL d   1      23.274 -16.431  -0.897  0.00  0.00     0.039 A 
ATOM     24  C   UNL d   1      22.107 -17.211  -0.894  0.00  0.00     0.039 A 
ATOM     25  C   UNL d   1      22.196 -18.566  -0.563  0.00  0.00     0.103 A 
ATOM     26  C   UNL d   1      23.421 -19.111  -0.156  0.00  0.00     0.039 A 
ATOM     27  C   UNL d   1      24.573 -18.311  -0.128  0.00  0.00     0.039 A 
BRANCH  25  28
ATOM     28  N   UNL d   1      21.016 -19.433  -0.698  0.00  0.00    -0.116 N 
ATOM     29  O   UNL d   1      20.496 -19.539  -1.814  0.00  0.00    -0.532 OA
ATOM     30  O   UNL d   1      20.630 -20.038   0.319  0.00  0.00    -0.532 OA
ENDBRANCH  25  28
ENDBRANCH  21  22
ENDBRANCH  20  21
ENDBRANCH  17  20
ENDBRANCH   1  16
TORSDOF 9
ENDMDL
MODEL 4
REMARK VINA RESULT:    -7.174      5.482      8.969
REMARK INTER + INTRA:         -12.037
REMARK INTER:                  -9.859
REMARK INTRA:                  -2.179
REMARK CONF_INDEPENDENT:        2.685
REMARK UNBOUND:                -2.179
REMARK  9 active torsions:
REMARK  status: ('A' for Active; 'I' for Inactive)
REMARK    1  A    between atoms: C_2  and  C_3 
REMARK       I    between atoms: C_2  and  N_10 
REMARK    2  A    between atoms: C_3  and  C_4 
REMARK    3  A    between atoms: N_10  and  N_11 
REMARK    4  A    between atoms: N_11  and  C_12 
REMARK    5  A    between atoms: C_12  and  N_14 
REMARK       I    between atoms: N_14  and  C_15 
REMARK    6  A    between atoms: C_15  and  C_17 
REMARK    7  A    between atoms: C_17  and  O_18 
REMARK    8  A    between atoms: O_18  and  C_19 
REMARK    9  A    between atoms: C_22  and  N_23 
ROOT
ATOM      1  C   UNL d   1      26.492 -17.149   0.084  0.00  0.00     0.193 C 
ATOM      2  S   UNL d   1      26.312 -18.573   0.978  0.00  0.00    -0.039 SA
ENDROOT
BRANCH   1   3
ATOM      3  N   UNL d   1      25.637 -16.904  -1.013  0.00  0.00    -0.273 N 
ATOM      4  H   UNL d   1      25.844 -17.140  -1.975  0.00  0.00     0.189 HD
BRANCH   3   5
ATOM      5  N   UNL d   1      24.379 -16.279  -0.742  0.00  0.00    -0.268 N 
ATOM      6  C   UNL d   1      23.121 -16.827  -0.726  0.00  0.00     0.240 C 
ATOM      7  O   UNL d   1      22.164 -16.088  -0.471  0.00  0.00    -0.272 OA
ATOM      8  H   UNL d   1      24.416 -15.276  -0.536  0.00  0.00     0.190 HD
BRANCH   6   9
ATOM      9  C   UNL d   1      22.977 -18.309  -1.014  0.00  0.00     0.143 C 
BRANCH   9  10
ATOM     10  C   UNL d   1      21.673 -18.897  -0.513  0.00  0.00    -0.049 A 
ATOM     11  C   UNL d   1      20.676 -19.311  -1.408  0.00  0.00     0.007 A 
ATOM     12  C   UNL d   1      19.419 -19.693  -0.936  0.00  0.00     0.001 A 
ATOM     13  C   UNL d   1      19.168 -19.738   0.435  0.00  0.00     0.000 A 
ATOM     14  C   UNL d   1      20.163 -19.368   1.336  0.00  0.00     0.001 A 
ATOM     15  C   UNL d   1      21.408 -18.946   0.865  0.00  0.00     0.007 A 
ENDBRANCH   9  10
ENDBRANCH   6   9
ENDBRANCH   3   5
ENDBRANCH   1   3
BRANCH   1  16
ATOM     16  N   UNL d   1      27.454 -16.139   0.335  0.00  0.00    -0.301 N 
ATOM     17  C   UNL d   1      27.180 -14.763   0.530  0.00  0.00     0.248 C 
ATOM     18  O   UNL d   1      26.040 -14.295   0.476  0.00  0.00    -0.271 OA
ATOM     19  H   UNL d   1      28.420 -16.426   0.384  0.00  0.00     0.171 HD
BRANCH  17  20
ATOM     20  C   UNL d   1      28.361 -13.794   0.806  0.00  0.00     0.278 C 
BRANCH  20  21
ATOM     21  O   UNL d   1      29.054 -13.588  -0.446  0.00  0.00    -0.342 OA
BRANCH  21  22
ATOM     22  C   UNL d   1      28.541 -14.082  -1.610  0.00  0.00     0.069 A 
ATOM     23  C   UNL d   1      27.567 -13.291  -2.241  0.00  0.00     0.039 A 
ATOM     24  C   UNL d   1      26.910 -13.733  -3.399  0.00  0.00     0.039 A 
ATOM     25  C   UNL d   1      27.272 -14.963  -3.958  0.00  0.00     0.103 A 
ATOM     26  C   UNL d   1      28.217 -15.775  -3.316  0.00  0.00     0.039 A 
ATOM     27  C   UNL d   1      28.839 -15.336  -2.138  0.00  0.00     0.039 A 
BRANCH  25  28
ATOM     28  N   UNL d   1      26.706 -15.377  -5.250  0.00  0.00    -0.116 N 
ATOM     29  O   UNL d   1      27.384 -15.198  -6.267  0.00  0.00    -0.532 OA
ATOM     30  O   UNL d   1      25.584 -15.916  -5.237  0.00  0.00    -0.532 OA
ENDBRANCH  25  28
ENDBRANCH  21  22
ENDBRANCH  20  21
ENDBRANCH  17  20
ENDBRANCH   1  16
TORSDOF 9
ENDMDL
MODEL 5
REMARK VINA RESULT:    -6.907      6.665      9.208
REMARK INTER + INTRA:         -11.942
REMARK INTER:                  -9.592
REMARK INTRA:                  -2.350
REMARK CONF_INDEPENDENT:        2.685
REMARK UNBOUND:                -2.350
REMARK  9 active torsions:
REMARK  status: ('A' for Active; 'I' for Inactive)
REMARK    1  A    between atoms: C_2  and  C_3 
REMARK       I    between atoms: C_2  and  N_10 
REMARK    2  A    between atoms: C_3  and  C_4 
REMARK    3  A    between atoms: N_10  and  N_11 
REMARK    4  A    between atoms: N_11  and  C_12 
REMARK    5  A    between atoms: C_12  and  N_14 
REMARK       I    between atoms: N_14  and  C_15 
REMARK    6  A    between atoms: C_15  and  C_17 
REMARK    7  A    between atoms: C_17  and  O_18 
REMARK    8  A    between atoms: O_18  and  C_19 
REMARK    9  A    between atoms: C_22  and  N_23 
ROOT
ATOM      1  C   UNL d   1      28.516 -14.060  -1.594  0.00  0.00     0.193 C 
ATOM      2  S   UNL d   1      30.082 -13.795  -1.014  0.00  0.00    -0.039 SA
ENDROOT
BRANCH   1   3
ATOM      3  N   UNL d   1      28.018 -13.256  -2.642  0.00  0.00    -0.273 N 
ATOM      4  H   UNL d   1      28.571 -12.613  -3.195  0.00  0.00     0.189 HD
BRANCH   3   5
ATOM      5  N   UNL d   1      26.625 -13.361  -2.949  0.00  0.00    -0.268 N 
ATOM      6  C   UNL d   1      25.954 -14.357  -3.613  0.00  0.00     0.240 C 
ATOM      7  O   UNL d   1      24.735 -14.235  -3.774  0.00  0.00    -0.272 OA
ATOM      8  H   UNL d   1      26.040 -12.580  -2.637  0.00  0.00     0.190 HD
BRANCH   6   9
ATOM      9  C   UNL d   1      26.744 -15.555  -4.103  0.00  0.00     0.143 C 
BRANCH   9  10
ATOM     10  C   UNL d   1      27.893 -15.185  -5.020  0.00  0.00    -0.049 A 
ATOM     11  C   UNL d   1      27.775 -14.134  -5.939  0.00  0.00     0.007 A 
ATOM     12  C   UNL d   1      28.774 -13.911  -6.889  0.00  0.00     0.001 A 
ATOM     13  C   UNL d   1      29.933 -14.685  -6.882  0.00  0.00     0.000 A 
ATOM     14  C   UNL d   1      30.081 -15.707  -5.948  0.00  0.00     0.001 A 
ATOM     15  C   UNL d   1      29.066 -15.958  -5.024  0.00  0.00     0.007 A 
ENDBRANCH   9  10
ENDBRANCH   6   9
ENDBRANCH   3   5
ENDBRANCH   1   3
BRANCH   1  16
ATOM     16  N   UNL d   1      27.618 -15.045  -1.112  0.00  0.00    -0.301 N 
ATOM     17  C   UNL d   1      27.900 -16.426  -0.972  0.00  0.00     0.248 C 
ATOM     18  O   UNL d   1      28.984 -16.921  -1.287  0.00  0.00    -0.271 OA
ATOM     19  H   UNL d   1      26.697 -14.734  -0.840  0.00  0.00     0.171 HD
BRANCH  17  20
ATOM     20  C   UNL d   1      26.796 -17.365  -0.415  0.00  0.00     0.278 C 
BRANCH  20  21
ATOM     21  O   UNL d   1      25.565 -16.608  -0.375  0.00  0.00    -0.342 OA
BRANCH  21  22
ATOM     22  C   UNL d   1      24.365 -17.227  -0.575  0.00  0.00     0.069 A 
ATOM     23  C   UNL d   1      23.257 -16.382  -0.760  0.00  0.00     0.039 A 
ATOM     24  C   UNL d   1      21.961 -16.904  -0.893  0.00  0.00     0.039 A 
ATOM     25  C   UNL d   1      21.783 -18.290  -0.890  0.00  0.00     0.103 A 
ATOM     26  C   UNL d   1      22.876 -19.139  -0.670  0.00  0.00     0.039 A 
ATOM     27  C   UNL d   1      24.161 -18.603  -0.502  0.00  0.00     0.039 A 
BRANCH  25  28
ATOM     28  N   UNL d   1      20.458 -18.860  -1.177  0.00  0.00    -0.116 N 
ATOM     29  O   UNL d   1      20.405 -20.001  -1.649  0.00  0.00    -0.532 OA
ATOM     30  O   UNL d   1      19.463 -18.168  -0.896  0.00  0.00    -0.532 OA
ENDBRANCH  25  28
ENDBRANCH  21  22
ENDBRANCH  20  21
ENDBRANCH  17  20
ENDBRANCH   1  16
TORSDOF 9
ENDMDL
MODEL 6
REMARK VINA RESULT:    -6.852      6.844     10.192
REMARK INTER + INTRA:         -12.145
REMARK INTER:                  -9.537
REMARK INTRA:                  -2.608
REMARK CONF_INDEPENDENT:        2.685
REMARK UNBOUND:                -2.608
REMARK  9 active torsions:
REMARK  status: ('A' for Active; 'I' for Inactive)
REMARK    1  A    between atoms: C_2  and  C_3 
REMARK       I    between atoms: C_2  and  N_10 
REMARK    2  A    between atoms: C_3  and  C_4 
REMARK    3  A    between atoms: N_10  and  N_11 
REMARK    4  A    between atoms: N_11  and  C_12 
REMARK    5  A    between atoms: C_12  and  N_14 
REMARK       I    between atoms: N_14  and  C_15 
REMARK    6  A    between atoms: C_15  and  C_17 
REMARK    7  A    between atoms: C_17  and  O_18 
REMARK    8  A    between atoms: O_18  and  C_19 
REMARK    9  A    between atoms: C_22  and  N_23 
ROOT
ATOM      1  C   UNL d   1      27.069 -15.462  -3.872  0.00  0.00     0.193 C 
ATOM      2  S   UNL d   1      25.848 -14.840  -4.862  0.00  0.00    -0.039 SA
ENDROOT
BRANCH   1   3
ATOM      3  N   UNL d   1      28.390 -15.543  -4.364  0.00  0.00    -0.273 N 
ATOM      4  H   UNL d   1      29.147 -16.046  -3.918  0.00  0.00     0.189 HD
BRANCH   3   5
ATOM      5  N   UNL d   1      28.680 -14.866  -5.591  0.00  0.00    -0.268 N 
ATOM      6  C   UNL d   1      29.824 -14.891  -6.348  0.00  0.00     0.240 C 
ATOM      7  O   UNL d   1      29.857 -14.215  -7.381  0.00  0.00    -0.272 OA
ATOM      8  H   UNL d   1      27.932 -14.272  -5.959  0.00  0.00     0.190 HD
BRANCH   6   9
ATOM      9  C   UNL d   1      30.981 -15.753  -5.879  0.00  0.00     0.143 C 
BRANCH   9  10
ATOM     10  C   UNL d   1      30.750 -17.236  -6.087  0.00  0.00    -0.049 A 
ATOM     11  C   UNL d   1      30.452 -18.080  -5.007  0.00  0.00     0.007 A 
ATOM     12  C   UNL d   1      30.407 -19.464  -5.186  0.00  0.00     0.001 A 
ATOM     13  C   UNL d   1      30.584 -20.015  -6.454  0.00  0.00     0.000 A 
ATOM     14  C   UNL d   1      30.841 -19.184  -7.542  0.00  0.00     0.001 A 
ATOM     15  C   UNL d   1      30.927 -17.803  -7.359  0.00  0.00     0.007 A 
ENDBRANCH   9  10
ENDBRANCH   6   9
ENDBRANCH   3   5
ENDBRANCH   1   3
BRANCH   1  16
ATOM     16  N   UNL d   1      26.892 -15.930  -2.546  0.00  0.00    -0.301 N 
ATOM     17  C   UNL d   1      27.814 -16.716  -1.813  0.00  0.00     0.248 C 
ATOM     18  O   UNL d   1      28.887 -17.099  -2.285  0.00  0.00    -0.271 OA
ATOM     19  H   UNL d   1      26.033 -15.677  -2.080  0.00  0.00     0.171 HD
BRANCH  17  20
ATOM     20  C   UNL d   1      27.459 -17.132  -0.360  0.00  0.00     0.278 C 
BRANCH  20  21
ATOM     21  O   UNL d   1      26.225 -16.464  -0.009  0.00  0.00    -0.342 OA
BRANCH  21  22
ATOM     22  C   UNL d   1      25.022 -17.058  -0.256  0.00  0.00     0.069 A 
ATOM     23  C   UNL d   1      23.918 -16.196  -0.363  0.00  0.00     0.039 A 
ATOM     24  C   UNL d   1      22.618 -16.699  -0.534  0.00  0.00     0.039 A 
ATOM     25  C   UNL d   1      22.433 -18.080  -0.649  0.00  0.00     0.103 A 
ATOM     26  C   UNL d   1      23.524 -18.949  -0.508  0.00  0.00     0.039 A 
ATOM     27  C   UNL d   1      24.812 -18.434  -0.300  0.00  0.00     0.039 A 
BRANCH  25  28
ATOM     28  N   UNL d   1      21.105 -18.617  -0.978  0.00  0.00    -0.116 N 
ATOM     29  O   UNL d   1      21.011 -19.823  -1.231  0.00  0.00    -0.532 OA
ATOM     30  O   UNL d   1      20.144 -17.827  -0.949  0.00  0.00    -0.532 OA
ENDBRANCH  25  28
ENDBRANCH  21  22
ENDBRANCH  20  21
ENDBRANCH  17  20
ENDBRANCH   1  16
TORSDOF 9
ENDMDL
MODEL 7
REMARK VINA RESULT:    -6.695      2.984      4.257
REMARK INTER + INTRA:         -11.947
REMARK INTER:                  -9.379
REMARK INTRA:                  -2.568
REMARK CONF_INDEPENDENT:        2.685
REMARK UNBOUND:                -2.568
REMARK  9 active torsions:
REMARK  status: ('A' for Active; 'I' for Inactive)
REMARK    1  A    between atoms: C_2  and  C_3 
REMARK       I    between atoms: C_2  and  N_10 
REMARK    2  A    between atoms: C_3  and  C_4 
REMARK    3  A    between atoms: N_10  and  N_11 
REMARK    4  A    between atoms: N_11  and  C_12 
REMARK    5  A    between atoms: C_12  and  N_14 
REMARK       I    between atoms: N_14  and  C_15 
REMARK    6  A    between atoms: C_15  and  C_17 
REMARK    7  A    between atoms: C_17  and  O_18 
REMARK    8  A    between atoms: O_18  and  C_19 
REMARK    9  A    between atoms: C_22  and  N_23 
ROOT
ATOM      1  C   UNL d   1      30.666 -13.993   2.570  0.00  0.00     0.193 C 
ATOM      2  S   UNL d   1      31.503 -12.626   2.033  0.00  0.00    -0.039 SA
ENDROOT
BRANCH   1   3
ATOM      3  N   UNL d   1      30.762 -14.378   3.925  0.00  0.00    -0.273 N 
ATOM      4  H   UNL d   1      31.530 -14.148   4.542  0.00  0.00     0.189 HD
BRANCH   3   5
ATOM      5  N   UNL d   1      29.686 -15.149   4.469  0.00  0.00    -0.268 N 
ATOM      6  C   UNL d   1      28.500 -14.723   5.013  0.00  0.00     0.240 C 
ATOM      7  O   UNL d   1      27.710 -15.575   5.434  0.00  0.00    -0.272 OA
ATOM      8  H   UNL d   1      29.817 -16.164   4.460  0.00  0.00     0.190 HD
BRANCH   6   9
ATOM      9  C   UNL d   1      28.222 -13.233   5.059  0.00  0.00     0.143 C 
BRANCH   9  10
ATOM     10  C   UNL d   1      27.718 -12.672   3.744  0.00  0.00    -0.049 A 
ATOM     11  C   UNL d   1      27.114 -13.502   2.789  0.00  0.00     0.007 A 
ATOM     12  C   UNL d   1      26.808 -13.008   1.519  0.00  0.00     0.001 A 
ATOM     13  C   UNL d   1      27.029 -11.666   1.216  0.00  0.00     0.000 A 
ATOM     14  C   UNL d   1      27.592 -10.822   2.170  0.00  0.00     0.001 A 
ATOM     15  C   UNL d   1      27.937 -11.322   3.426  0.00  0.00     0.007 A 
ENDBRANCH   9  10
ENDBRANCH   6   9
ENDBRANCH   3   5
ENDBRANCH   1   3
BRANCH   1  16
ATOM     16  N   UNL d   1      29.849 -14.825   1.764  0.00  0.00    -0.301 N 
ATOM     17  C   UNL d   1      29.679 -14.713   0.363  0.00  0.00     0.248 C 
ATOM     18  O   UNL d   1      30.229 -13.838  -0.308  0.00  0.00    -0.271 OA
ATOM     19  H   UNL d   1      29.346 -15.566   2.231  0.00  0.00     0.171 HD
BRANCH  17  20
ATOM     20  C   UNL d   1      28.748 -15.722  -0.363  0.00  0.00     0.278 C 
BRANCH  20  21
ATOM     21  O   UNL d   1      27.774 -16.183   0.601  0.00  0.00    -0.342 OA
BRANCH  21  22
ATOM     22  C   UNL d   1      26.527 -16.564   0.197  0.00  0.00     0.069 A 
ATOM     23  C   UNL d   1      26.109 -17.842   0.605  0.00  0.00     0.039 A 
ATOM     24  C   UNL d   1      24.881 -18.373   0.183  0.00  0.00     0.039 A 
ATOM     25  C   UNL d   1      24.042 -17.592  -0.618  0.00  0.00     0.103 A 
ATOM     26  C   UNL d   1      24.466 -16.332  -1.059  0.00  0.00     0.039 A 
ATOM     27  C   UNL d   1      25.712 -15.828  -0.659  0.00  0.00     0.039 A 
BRANCH  25  28
ATOM     28  N   UNL d   1      22.690 -18.069  -0.947  0.00  0.00    -0.116 N 
ATOM     29  O   UNL d   1      21.726 -17.425  -0.521  0.00  0.00    -0.532 OA
ATOM     30  O   UNL d   1      22.599 -19.079  -1.668  0.00  0.00    -0.532 OA
ENDBRANCH  25  28
ENDBRANCH  21  22
ENDBRANCH  20  21
ENDBRANCH  17  20
ENDBRANCH   1  16
TORSDOF 9
ENDMDL
MODEL 8
REMARK VINA RESULT:    -6.310      6.565      8.511
REMARK INTER + INTRA:         -12.075
REMARK INTER:                  -8.994
REMARK INTRA:                  -3.081
REMARK CONF_INDEPENDENT:        2.685
REMARK UNBOUND:                -3.081
REMARK  9 active torsions:
REMARK  status: ('A' for Active; 'I' for Inactive)
REMARK    1  A    between atoms: C_2  and  C_3 
REMARK       I    between atoms: C_2  and  N_10 
REMARK    2  A    between atoms: C_3  and  C_4 
REMARK    3  A    between atoms: N_10  and  N_11 
REMARK    4  A    between atoms: N_11  and  C_12 
REMARK    5  A    between atoms: C_12  and  N_14 
REMARK       I    between atoms: N_14  and  C_15 
REMARK    6  A    between atoms: C_15  and  C_17 
REMARK    7  A    between atoms: C_17  and  O_18 
REMARK    8  A    between atoms: O_18  and  C_19 
REMARK    9  A    between atoms: C_22  and  N_23 
ROOT
ATOM      1  C   UNL d   1      28.988 -14.675  -1.568  0.00  0.00     0.193 C 
ATOM      2  S   UNL d   1      29.260 -13.047  -1.203  0.00  0.00    -0.039 SA
ENDROOT
BRANCH   1   3
ATOM      3  N   UNL d   1      29.799 -15.318  -2.528  0.00  0.00    -0.273 N 
ATOM      4  H   UNL d   1      30.109 -16.280  -2.477  0.00  0.00     0.189 HD
BRANCH   3   5
ATOM      5  N   UNL d   1      30.211 -14.551  -3.664  0.00  0.00    -0.268 N 
ATOM      6  C   UNL d   1      29.669 -14.505  -4.924  0.00  0.00     0.240 C 
ATOM      7  O   UNL d   1      30.199 -13.768  -5.762  0.00  0.00    -0.272 OA
ATOM      8  H   UNL d   1      31.030 -13.953  -3.524  0.00  0.00     0.190 HD
BRANCH   6   9
ATOM      9  C   UNL d   1      28.447 -15.355  -5.215  0.00  0.00     0.143 C 
BRANCH   9  10
ATOM     10  C   UNL d   1      27.188 -14.853  -4.537  0.00  0.00    -0.049 A 
ATOM     11  C   UNL d   1      26.589 -15.576  -3.496  0.00  0.00     0.007 A 
ATOM     12  C   UNL d   1      25.344 -15.191  -2.995  0.00  0.00     0.001 A 
ATOM     13  C   UNL d   1      24.720 -14.040  -3.473  0.00  0.00     0.000 A 
ATOM     14  C   UNL d   1      25.324 -13.290  -4.479  0.00  0.00     0.001 A 
ATOM     15  C   UNL d   1      26.549 -13.695  -5.011  0.00  0.00     0.007 A 
ENDBRANCH   9  10
ENDBRANCH   6   9
ENDBRANCH   3   5
ENDBRANCH   1   3
BRANCH   1  16
ATOM     16  N   UNL d   1      27.985 -15.490  -0.985  0.00  0.00    -0.301 N 
ATOM     17  C   UNL d   1      28.071 -16.889  -0.777  0.00  0.00     0.248 C 
ATOM     18  O   UNL d   1      29.052 -17.555  -1.115  0.00  0.00    -0.271 OA
ATOM     19  H   UNL d   1      27.136 -15.033  -0.687  0.00  0.00     0.171 HD
BRANCH  17  20
ATOM     20  C   UNL d   1      26.876 -17.623  -0.110  0.00  0.00     0.278 C 
BRANCH  20  21
ATOM     21  O   UNL d   1      25.759 -16.705  -0.095  0.00  0.00    -0.342 OA
BRANCH  21  22
ATOM     22  C   UNL d   1      24.491 -17.154  -0.326  0.00  0.00     0.069 A 
ATOM     23  C   UNL d   1      24.345 -18.543  -0.474  0.00  0.00     0.039 A 
ATOM     24  C   UNL d   1      23.103 -19.112  -0.796  0.00  0.00     0.039 A 
ATOM     25  C   UNL d   1      21.986 -18.280  -0.920  0.00  0.00     0.103 A 
ATOM     26  C   UNL d   1      22.129 -16.891  -0.810  0.00  0.00     0.039 A 
ATOM     27  C   UNL d   1      23.384 -16.332  -0.525  0.00  0.00     0.039 A 
BRANCH  25  28
ATOM     28  N   UNL d   1      20.651 -18.868  -1.109  0.00  0.00    -0.116 N 
ATOM     29  O   UNL d   1      20.576 -19.996  -1.608  0.00  0.00    -0.532 OA
ATOM     30  O   UNL d   1      19.673 -18.203  -0.721  0.00  0.00    -0.532 OA
ENDBRANCH  25  28
ENDBRANCH  21  22
ENDBRANCH  20  21
ENDBRANCH  17  20
ENDBRANCH   1  16
TORSDOF 9
ENDMDL
MODEL 9
REMARK VINA RESULT:    -6.163      5.452      7.658
REMARK INTER + INTRA:         -11.933
REMARK INTER:                  -8.848
REMARK INTRA:                  -3.086
REMARK CONF_INDEPENDENT:        2.685
REMARK UNBOUND:                -3.086
REMARK  9 active torsions:
REMARK  status: ('A' for Active; 'I' for Inactive)
REMARK    1  A    between atoms: C_2  and  C_3 
REMARK       I    between atoms: C_2  and  N_10 
REMARK    2  A    between atoms: C_3  and  C_4 
REMARK    3  A    between atoms: N_10  and  N_11 
REMARK    4  A    between atoms: N_11  and  C_12 
REMARK    5  A    between atoms: C_12  and  N_14 
REMARK       I    between atoms: N_14  and  C_15 
REMARK    6  A    between atoms: C_15  and  C_17 
REMARK    7  A    between atoms: C_17  and  O_18 
REMARK    8  A    between atoms: O_18  and  C_19 
REMARK    9  A    between atoms: C_22  and  N_23 
ROOT
ATOM      1  C   UNL d   1      30.093 -14.538   1.140  0.00  0.00     0.193 C 
ATOM      2  S   UNL d   1      31.400 -14.020   2.080  0.00  0.00    -0.039 SA
ENDROOT
BRANCH   1   3
ATOM      3  N   UNL d   1      30.008 -15.893   0.754  0.00  0.00    -0.273 N 
ATOM      4  H   UNL d   1      30.303 -16.678   1.321  0.00  0.00     0.189 HD
BRANCH   3   5
ATOM      5  N   UNL d   1      29.455 -16.179  -0.534  0.00  0.00    -0.268 N 
ATOM      6  C   UNL d   1      28.226 -16.697  -0.857  0.00  0.00     0.240 C 
ATOM      7  O   UNL d   1      27.960 -16.870  -2.051  0.00  0.00    -0.272 OA
ATOM      8  H   UNL d   1      30.061 -15.975  -1.333  0.00  0.00     0.190 HD
BRANCH   6   9
ATOM      9  C   UNL d   1      27.262 -17.021   0.268  0.00  0.00     0.143 C 
BRANCH   9  10
ATOM     10  C   UNL d   1      25.833 -17.214  -0.199  0.00  0.00    -0.049 A 
ATOM     11  C   UNL d   1      25.159 -16.205  -0.900  0.00  0.00     0.007 A 
ATOM     12  C   UNL d   1      23.795 -16.328  -1.177  0.00  0.00     0.001 A 
ATOM     13  C   UNL d   1      23.111 -17.490  -0.827  0.00  0.00     0.000 A 
ATOM     14  C   UNL d   1      23.779 -18.518  -0.166  0.00  0.00     0.001 A 
ATOM     15  C   UNL d   1      25.131 -18.380   0.149  0.00  0.00     0.007 A 
ENDBRANCH   9  10
ENDBRANCH   6   9
ENDBRANCH   3   5
ENDBRANCH   1   3
BRANCH   1  16
ATOM     16  N   UNL d   1      29.035 -13.714   0.682  0.00  0.00    -0.301 N 
ATOM     17  C   UNL d   1      27.737 -13.641   1.244  0.00  0.00     0.248 C 
ATOM     18  O   UNL d   1      27.387 -14.329   2.206  0.00  0.00    -0.271 OA
ATOM     19  H   UNL d   1      29.224 -13.121  -0.114  0.00  0.00     0.171 HD
BRANCH  17  20
ATOM     20  C   UNL d   1      26.700 -12.670   0.617  0.00  0.00     0.278 C 
BRANCH  20  21
ATOM     21  O   UNL d   1      27.257 -12.186  -0.626  0.00  0.00    -0.342 OA
BRANCH  21  22
ATOM     22  C   UNL d   1      27.172 -12.938  -1.762  0.00  0.00     0.069 A 
ATOM     23  C   UNL d   1      25.874 -13.202  -2.232  0.00  0.00     0.039 A 
ATOM     24  C   UNL d   1      25.659 -14.031  -3.343  0.00  0.00     0.039 A 
ATOM     25  C   UNL d   1      26.762 -14.560  -4.020  0.00  0.00     0.103 A 
ATOM     26  C   UNL d   1      28.058 -14.332  -3.538  0.00  0.00     0.039 A 
ATOM     27  C   UNL d   1      28.257 -13.531  -2.403  0.00  0.00     0.039 A 
BRANCH  25  28
ATOM     28  N   UNL d   1      26.566 -15.306  -5.272  0.00  0.00    -0.116 N 
ATOM     29  O   UNL d   1      25.531 -15.968  -5.399  0.00  0.00    -0.532 OA
ATOM     30  O   UNL d   1      27.446 -15.199  -6.146  0.00  0.00    -0.532 OA
ENDBRANCH  25  28
ENDBRANCH  21  22
ENDBRANCH  20  21
ENDBRANCH  17  20
ENDBRANCH   1  16
TORSDOF 9
ENDMDL
