MODEL 1
REMARK VINA RESULT:    -7.523      0.000      0.000
REMARK INTER + INTRA:         -14.764
REMARK INTER:                 -11.401
REMARK INTRA:                  -3.363
REMARK CONF_INDEPENDENT:        3.878
REMARK UNBOUND:                -3.363
REMARK  13 active torsions:
REMARK  status: ('A' for Active; 'I' for Inactive)
REMARK    1  A    between atoms: C_2  and  C_3 
REMARK    2  A    between atoms: C_3  and  C_4 
REMARK    3  A    between atoms: C_4  and  N_5 
REMARK       I    between atoms: N_5  and  C_6 
REMARK    4  A    between atoms: C_6  and  C_8 
REMARK    5  A    between atoms: C_8  and  C_9 
REMARK    6  A    between atoms: C_8  and  N_18 
REMARK    7  A    between atoms: C_10  and  O_11 
REMARK    8  A    between atoms: C_13  and  O_14 
REMARK    9  A    between atoms: C_16  and  O_17 
REMARK   10  A    between atoms: N_18  and  C_19 
REMARK       I    between atoms: N_18  and  C_25 
REMARK   11  A    between atoms: C_19  and  C_20 
REMARK   12  A    between atoms: C_25  and  C_27 
REMARK   13  A    between atoms: C_28  and  C_29 
ROOT
ATOM      1  C   UNL d   1      26.441 -15.577  -2.808  0.00  0.00     0.219 C 
ENDROOT
BRANCH   1   2
ATOM      2  C   UNL d   1      25.702 -14.341  -3.347  0.00  0.00     0.245 C 
ATOM      3  N   UNL d   1      26.256 -13.082  -3.213  0.00  0.00    -0.359 N 
ATOM      4  H   UNL d   1      26.808 -12.908  -2.385  0.00  0.00     0.162 HD
ATOM      5  O   UNL d   1      24.531 -14.450  -3.717  0.00  0.00    -0.271 OA
BRANCH   3   6
ATOM      6  C   UNL d   1      25.530 -11.990  -3.821  0.00  0.00     0.122 C 
BRANCH   6   7
ATOM      7  C   UNL d   1      26.289 -11.103  -4.757  0.00  0.00     0.019 C 
BRANCH   7   8
ATOM      8  C   UNL d   1      26.936 -11.947  -5.863  0.00  0.00    -0.003 C 
ATOM      9  C   UNL d   1      28.419 -12.028  -5.583  0.00  0.00     0.005 C 
ENDBRANCH   7   8
ENDBRANCH   6   7
ENDBRANCH   3   6
ENDBRANCH   1   2
BRANCH   1  10
ATOM     10  C   UNL d   1      27.779 -15.557  -3.569  0.00  0.00     0.040 A 
ATOM     11  C   UNL d   1      28.999 -15.837  -2.941  0.00  0.00     0.080 A 
ATOM     12  C   UNL d   1      30.193 -15.775  -3.661  0.00  0.00     0.073 A 
ATOM     13  C   UNL d   1      30.168 -15.571  -5.039  0.00  0.00     0.071 A 
ATOM     14  C   UNL d   1      28.994 -15.387  -5.709  0.00  0.00     0.073 A 
ATOM     15  C   UNL d   1      27.836 -15.352  -4.984  0.00  0.00     0.080 A 
BRANCH  11  16
ATOM     16  O   UNL d   1      29.113 -16.195  -1.622  0.00  0.00    -0.360 OA
ATOM     17  H   UNL d   1      29.637 -15.518  -1.159  0.00  0.00     0.217 HD
ENDBRANCH  11  16
BRANCH  13  18
ATOM     18  O   UNL d   1      31.279 -15.569  -5.818  0.00  0.00    -0.361 OA
ATOM     19  H   UNL d   1      30.986 -15.585  -6.739  0.00  0.00     0.217 HD
ENDBRANCH  13  18
BRANCH  15  20
ATOM     20  O   UNL d   1      26.742 -15.200  -5.773  0.00  0.00    -0.360 OA
ATOM     21  H   UNL d   1      25.891 -15.002  -5.367  0.00  0.00     0.217 HD
ENDBRANCH  15  20
ENDBRANCH   1  10
BRANCH   1  22
ATOM     22  N   UNL d   1      26.506 -15.721  -1.282  0.00  0.00    -0.318 N 
ATOM     23  C   UNL d   1      26.637 -14.569  -0.471  0.00  0.00     0.300 C 
ATOM     24  O   UNL d   1      26.267 -13.448  -0.783  0.00  0.00    -0.258 OA
BRANCH  22  25
ATOM     25  C   UNL d   1      26.096 -16.954  -0.548  0.00  0.00     0.193 C 
BRANCH  25  26
ATOM     26  C   UNL d   1      24.666 -17.439  -0.387  0.00  0.00     0.070 C 
ATOM     27  C   UNL d   1      23.486 -16.759  -0.688  0.00  0.00     0.036 C 
ATOM     28  C   UNL d   1      22.477 -17.726  -0.895  0.00  0.00     0.027 C 
ATOM     29  C   UNL d   1      23.034 -18.920  -0.521  0.00  0.00     0.142 C 
ATOM     30  O   UNL d   1      24.352 -18.769  -0.156  0.00  0.00    -0.325 OA
ENDBRANCH  25  26
ENDBRANCH  22  25
BRANCH  23  31
ATOM     31  C   UNL d   1      27.350 -14.590   0.805  0.00  0.00     0.000 C 
ATOM     32  C   UNL d   1      27.771 -14.434   1.910  0.00  0.00    -0.057 C 
BRANCH  32  33
ATOM     33  C   UNL d   1      28.237 -14.247   3.268  0.00  0.00     0.018 A 
ATOM     34  C   UNL d   1      27.343 -13.915   4.293  0.00  0.00     0.020 A 
ATOM     35  C   UNL d   1      27.789 -13.830   5.617  0.00  0.00     0.001 A 
ATOM     36  C   UNL d   1      29.132 -14.053   5.917  0.00  0.00     0.000 A 
ATOM     37  C   UNL d   1      30.030 -14.356   4.894  0.00  0.00     0.001 A 
ATOM     38  C   UNL d   1      29.584 -14.450   3.572  0.00  0.00     0.020 A 
ENDBRANCH  32  33
ENDBRANCH  23  31
ENDBRANCH   1  22
TORSDOF 13
ENDMDL
MODEL 2
REMARK VINA RESULT:    -7.498      0.855      1.760
REMARK INTER + INTRA:         -14.653
REMARK INTER:                 -11.376
REMARK INTRA:                  -3.277
REMARK CONF_INDEPENDENT:        3.878
REMARK UNBOUND:                -3.277
REMARK  13 active torsions:
REMARK  status: ('A' for Active; 'I' for Inactive)
REMARK    1  A    between atoms: C_2  and  C_3 
REMARK    2  A    between atoms: C_3  and  C_4 
REMARK    3  A    between atoms: C_4  and  N_5 
REMARK       I    between atoms: N_5  and  C_6 
REMARK    4  A    between atoms: C_6  and  C_8 
REMARK    5  A    between atoms: C_8  and  C_9 
REMARK    6  A    between atoms: C_8  and  N_18 
REMARK    7  A    between atoms: C_10  and  O_11 
REMARK    8  A    between atoms: C_13  and  O_14 
REMARK    9  A    between atoms: C_16  and  O_17 
REMARK   10  A    between atoms: N_18  and  C_19 
REMARK       I    between atoms: N_18  and  C_25 
REMARK   11  A    between atoms: C_19  and  C_20 
REMARK   12  A    between atoms: C_25  and  C_27 
REMARK   13  A    between atoms: C_28  and  C_29 
ROOT
ATOM      1  C   UNL d   1      26.461 -15.461  -2.810  0.00  0.00     0.219 C 
ENDROOT
BRANCH   1   2
ATOM      2  C   UNL d   1      25.853 -14.234  -3.510  0.00  0.00     0.245 C 
ATOM      3  N   UNL d   1      26.458 -12.996  -3.400  0.00  0.00    -0.359 N 
ATOM      4  H   UNL d   1      26.927 -12.788  -2.530  0.00  0.00     0.162 HD
ATOM      5  O   UNL d   1      24.724 -14.314  -3.998  0.00  0.00    -0.271 OA
BRANCH   3   6
ATOM      6  C   UNL d   1      25.863 -11.918  -4.157  0.00  0.00     0.122 C 
BRANCH   6   7
ATOM      7  C   UNL d   1      26.383 -11.686  -5.539  0.00  0.00     0.019 C 
BRANCH   7   8
ATOM      8  C   UNL d   1      27.859 -12.100  -5.616  0.00  0.00    -0.003 C 
ATOM      9  C   UNL d   1      28.116 -12.665  -6.995  0.00  0.00     0.005 C 
ENDBRANCH   7   8
ENDBRANCH   6   7
ENDBRANCH   3   6
ENDBRANCH   1   2
BRANCH   1  10
ATOM     10  C   UNL d   1      27.855 -15.587  -3.451  0.00  0.00     0.040 A 
ATOM     11  C   UNL d   1      28.042 -15.576  -4.839  0.00  0.00     0.080 A 
ATOM     12  C   UNL d   1      29.319 -15.727  -5.379  0.00  0.00     0.073 A 
ATOM     13  C   UNL d   1      30.433 -15.750  -4.543  0.00  0.00     0.071 A 
ATOM     14  C   UNL d   1      30.306 -15.670  -3.186  0.00  0.00     0.073 A 
ATOM     15  C   UNL d   1      29.046 -15.620  -2.659  0.00  0.00     0.080 A 
BRANCH  11  16
ATOM     16  O   UNL d   1      27.026 -15.407  -5.744  0.00  0.00    -0.360 OA
ATOM     17  H   UNL d   1      26.187 -15.314  -5.258  0.00  0.00     0.217 HD
ENDBRANCH  11  16
BRANCH  13  18
ATOM     18  O   UNL d   1      31.711 -15.823  -4.995  0.00  0.00    -0.361 OA
ATOM     19  H   UNL d   1      32.294 -15.684  -4.237  0.00  0.00     0.217 HD
ENDBRANCH  13  18
BRANCH  15  20
ATOM     20  O   UNL d   1      29.061 -15.505  -1.307  0.00  0.00    -0.360 OA
ATOM     21  H   UNL d   1      29.049 -16.301  -0.765  0.00  0.00     0.217 HD
ENDBRANCH  15  20
ENDBRANCH   1  10
BRANCH   1  22
ATOM     22  N   UNL d   1      26.392 -15.477  -1.277  0.00  0.00    -0.318 N 
ATOM     23  C   UNL d   1      26.540 -14.270  -0.554  0.00  0.00     0.300 C 
ATOM     24  O   UNL d   1      26.280 -13.159  -0.986  0.00  0.00    -0.258 OA
BRANCH  22  25
ATOM     25  C   UNL d   1      25.834 -16.612  -0.486  0.00  0.00     0.193 C 
BRANCH  25  26
ATOM     26  C   UNL d   1      24.458 -17.222  -0.684  0.00  0.00     0.070 C 
ATOM     27  C   UNL d   1      24.069 -18.549  -0.503  0.00  0.00     0.036 C 
ATOM     28  C   UNL d   1      22.675 -18.558  -0.272  0.00  0.00     0.027 C 
ATOM     29  C   UNL d   1      22.257 -17.277  -0.517  0.00  0.00     0.142 C 
ATOM     30  O   UNL d   1      23.315 -16.451  -0.822  0.00  0.00    -0.325 OA
ENDBRANCH  25  26
ENDBRANCH  22  25
BRANCH  23  31
ATOM     31  C   UNL d   1      27.144 -14.228   0.777  0.00  0.00     0.000 C 
ATOM     32  C   UNL d   1      27.465 -14.024   1.907  0.00  0.00    -0.057 C 
BRANCH  32  33
ATOM     33  C   UNL d   1      27.810 -13.781   3.292  0.00  0.00     0.018 A 
ATOM     34  C   UNL d   1      27.768 -12.486   3.824  0.00  0.00     0.020 A 
ATOM     35  C   UNL d   1      28.011 -12.276   5.187  0.00  0.00     0.001 A 
ATOM     36  C   UNL d   1      28.319 -13.354   6.015  0.00  0.00     0.000 A 
ATOM     37  C   UNL d   1      28.390 -14.640   5.483  0.00  0.00     0.001 A 
ATOM     38  C   UNL d   1      28.138 -14.853   4.124  0.00  0.00     0.020 A 
ENDBRANCH  32  33
ENDBRANCH  23  31
ENDBRANCH   1  22
TORSDOF 13
ENDMDL
MODEL 3
REMARK VINA RESULT:    -7.220      1.526      4.876
REMARK INTER + INTRA:         -14.673
REMARK INTER:                 -11.098
REMARK INTRA:                  -3.575
REMARK CONF_INDEPENDENT:        3.878
REMARK UNBOUND:                -3.575
REMARK  13 active torsions:
REMARK  status: ('A' for Active; 'I' for Inactive)
REMARK    1  A    between atoms: C_2  and  C_3 
REMARK    2  A    between atoms: C_3  and  C_4 
REMARK    3  A    between atoms: C_4  and  N_5 
REMARK       I    between atoms: N_5  and  C_6 
REMARK    4  A    between atoms: C_6  and  C_8 
REMARK    5  A    between atoms: C_8  and  C_9 
REMARK    6  A    between atoms: C_8  and  N_18 
REMARK    7  A    between atoms: C_10  and  O_11 
REMARK    8  A    between atoms: C_13  and  O_14 
REMARK    9  A    between atoms: C_16  and  O_17 
REMARK   10  A    between atoms: N_18  and  C_19 
REMARK       I    between atoms: N_18  and  C_25 
REMARK   11  A    between atoms: C_19  and  C_20 
REMARK   12  A    between atoms: C_25  and  C_27 
REMARK   13  A    between atoms: C_28  and  C_29 
ROOT
ATOM      1  C   UNL d   1      26.661 -16.197  -1.351  0.00  0.00     0.219 C 
ENDROOT
BRANCH   1   2
ATOM      2  C   UNL d   1      25.215 -16.716  -1.426  0.00  0.00     0.245 C 
ATOM      3  N   UNL d   1      24.381 -16.621  -0.329  0.00  0.00    -0.359 N 
ATOM      4  H   UNL d   1      24.807 -16.710   0.583  0.00  0.00     0.162 HD
ATOM      5  O   UNL d   1      24.866 -17.394  -2.395  0.00  0.00    -0.271 OA
BRANCH   3   6
ATOM      6  C   UNL d   1      23.016 -17.059  -0.517  0.00  0.00     0.122 C 
BRANCH   6   7
ATOM      7  C   UNL d   1      22.787 -18.527  -0.683  0.00  0.00     0.019 C 
BRANCH   7   8
ATOM      8  C   UNL d   1      21.526 -18.948   0.083  0.00  0.00    -0.003 C 
ATOM      9  C   UNL d   1      20.369 -18.959  -0.890  0.00  0.00     0.005 C 
ENDBRANCH   7   8
ENDBRANCH   6   7
ENDBRANCH   3   6
ENDBRANCH   1   2
BRANCH   1  10
ATOM     10  C   UNL d   1      26.989 -15.831  -2.809  0.00  0.00     0.040 A 
ATOM     11  C   UNL d   1      26.049 -15.235  -3.659  0.00  0.00     0.080 A 
ATOM     12  C   UNL d   1      26.377 -14.950  -4.984  0.00  0.00     0.073 A 
ATOM     13  C   UNL d   1      27.684 -15.128  -5.434  0.00  0.00     0.071 A 
ATOM     14  C   UNL d   1      28.657 -15.620  -4.614  0.00  0.00     0.073 A 
ATOM     15  C   UNL d   1      28.306 -15.988  -3.345  0.00  0.00     0.080 A 
BRANCH  11  16
ATOM     16  O   UNL d   1      24.783 -14.882  -3.267  0.00  0.00    -0.360 OA
ATOM     17  H   UNL d   1      24.824 -14.523  -2.363  0.00  0.00     0.217 HD
ENDBRANCH  11  16
BRANCH  13  18
ATOM     18  O   UNL d   1      28.098 -14.808  -6.686  0.00  0.00    -0.361 OA
ATOM     19  H   UNL d   1      28.830 -14.184  -6.598  0.00  0.00     0.217 HD
ENDBRANCH  13  18
BRANCH  15  20
ATOM     20  O   UNL d   1      29.371 -16.424  -2.625  0.00  0.00    -0.360 OA
ATOM     21  H   UNL d   1      29.406 -16.247  -1.680  0.00  0.00     0.217 HD
ENDBRANCH  15  20
ENDBRANCH   1  10
BRANCH   1  22
ATOM     22  N   UNL d   1      26.950 -15.136  -0.281  0.00  0.00    -0.318 N 
ATOM     23  C   UNL d   1      28.010 -15.333   0.636  0.00  0.00     0.300 C 
ATOM     24  O   UNL d   1      29.000 -16.015   0.426  0.00  0.00    -0.258 OA
BRANCH  22  25
ATOM     25  C   UNL d   1      26.427 -13.740  -0.336  0.00  0.00     0.193 C 
BRANCH  25  26
ATOM     26  C   UNL d   1      26.611 -12.784  -1.500  0.00  0.00     0.070 C 
ATOM     27  C   UNL d   1      27.801 -12.265  -2.010  0.00  0.00     0.036 C 
ATOM     28  C   UNL d   1      27.564 -11.889  -3.351  0.00  0.00     0.027 C 
ATOM     29  C   UNL d   1      26.211 -12.010  -3.529  0.00  0.00     0.142 C 
ATOM     30  O   UNL d   1      25.596 -12.504  -2.402  0.00  0.00    -0.325 OA
ENDBRANCH  25  26
ENDBRANCH  22  25
BRANCH  23  31
ATOM     31  C   UNL d   1      27.964 -14.817   2.004  0.00  0.00     0.000 C 
ATOM     32  C   UNL d   1      28.163 -14.458   3.123  0.00  0.00    -0.057 C 
BRANCH  32  33
ATOM     33  C   UNL d   1      28.444 -14.000   4.467  0.00  0.00     0.018 A 
ATOM     34  C   UNL d   1      27.728 -12.933   5.025  0.00  0.00     0.020 A 
ATOM     35  C   UNL d   1      27.943 -12.560   6.357  0.00  0.00     0.001 A 
ATOM     36  C   UNL d   1      28.889 -13.236   7.128  0.00  0.00     0.000 A 
ATOM     37  C   UNL d   1      29.623 -14.279   6.566  0.00  0.00     0.001 A 
ATOM     38  C   UNL d   1      29.403 -14.658   5.239  0.00  0.00     0.020 A 
ENDBRANCH  32  33
ENDBRANCH  23  31
ENDBRANCH   1  22
TORSDOF 13
ENDMDL
MODEL 4
REMARK VINA RESULT:    -7.162      2.864      7.697
REMARK INTER + INTRA:         -14.641
REMARK INTER:                 -11.039
REMARK INTRA:                  -3.601
REMARK CONF_INDEPENDENT:        3.878
REMARK UNBOUND:                -3.601
REMARK  13 active torsions:
REMARK  status: ('A' for Active; 'I' for Inactive)
REMARK    1  A    between atoms: C_2  and  C_3 
REMARK    2  A    between atoms: C_3  and  C_4 
REMARK    3  A    between atoms: C_4  and  N_5 
REMARK       I    between atoms: N_5  and  C_6 
REMARK    4  A    between atoms: C_6  and  C_8 
REMARK    5  A    between atoms: C_8  and  C_9 
REMARK    6  A    between atoms: C_8  and  N_18 
REMARK    7  A    between atoms: C_10  and  O_11 
REMARK    8  A    between atoms: C_13  and  O_14 
REMARK    9  A    between atoms: C_16  and  O_17 
REMARK   10  A    between atoms: N_18  and  C_19 
REMARK       I    between atoms: N_18  and  C_25 
REMARK   11  A    between atoms: C_19  and  C_20 
REMARK   12  A    between atoms: C_25  and  C_27 
REMARK   13  A    between atoms: C_28  and  C_29 
ROOT
ATOM      1  C   UNL d   1      26.207 -13.536  -4.683  0.00  0.00     0.219 C 
ENDROOT
BRANCH   1   2
ATOM      2  C   UNL d   1      25.111 -14.191  -3.826  0.00  0.00     0.245 C 
ATOM      3  N   UNL d   1      25.447 -15.085  -2.827  0.00  0.00    -0.359 N 
ATOM      4  H   UNL d   1      26.256 -15.668  -2.983  0.00  0.00     0.162 HD
ATOM      5  O   UNL d   1      23.931 -14.074  -4.161  0.00  0.00    -0.271 OA
BRANCH   3   6
ATOM      6  C   UNL d   1      24.358 -15.588  -2.019  0.00  0.00     0.122 C 
BRANCH   6   7
ATOM      7  C   UNL d   1      24.660 -16.728  -1.100  0.00  0.00     0.019 C 
BRANCH   7   8
ATOM      8  C   UNL d   1      23.762 -17.924  -1.443  0.00  0.00    -0.003 C 
ATOM      9  C   UNL d   1      23.332 -18.573  -0.147  0.00  0.00     0.005 C 
ENDBRANCH   7   8
ENDBRANCH   6   7
ENDBRANCH   3   6
ENDBRANCH   1   2
BRANCH   1  10
ATOM     10  C   UNL d   1      26.085 -12.040  -4.342  0.00  0.00     0.040 A 
ATOM     11  C   UNL d   1      25.605 -11.101  -5.263  0.00  0.00     0.080 A 
ATOM     12  C   UNL d   1      25.542  -9.749  -4.925  0.00  0.00     0.073 A 
ATOM     13  C   UNL d   1      25.825  -9.342  -3.623  0.00  0.00     0.071 A 
ATOM     14  C   UNL d   1      26.207 -10.236  -2.665  0.00  0.00     0.073 A 
ATOM     15  C   UNL d   1      26.360 -11.544  -3.028  0.00  0.00     0.080 A 
BRANCH  11  16
ATOM     16  O   UNL d   1      25.161 -11.424  -6.520  0.00  0.00    -0.360 OA
ATOM     17  H   UNL d   1      24.225 -11.689  -6.463  0.00  0.00     0.217 HD
ENDBRANCH  11  16
BRANCH  13  18
ATOM     18  O   UNL d   1      25.718  -8.057  -3.197  0.00  0.00    -0.361 OA
ATOM     19  H   UNL d   1      24.780  -7.880  -3.044  0.00  0.00     0.217 HD
ENDBRANCH  13  18
BRANCH  15  20
ATOM     20  O   UNL d   1      26.706 -12.330  -1.978  0.00  0.00    -0.360 OA
ATOM     21  H   UNL d   1      26.680 -13.288  -2.076  0.00  0.00     0.217 HD
ENDBRANCH  15  20
ENDBRANCH   1  10
BRANCH   1  22
ATOM     22  N   UNL d   1      27.606 -14.162  -4.598  0.00  0.00    -0.318 N 
ATOM     23  C   UNL d   1      28.329 -14.432  -5.784  0.00  0.00     0.300 C 
ATOM     24  O   UNL d   1      28.185 -13.840  -6.842  0.00  0.00    -0.258 OA
BRANCH  22  25
ATOM     25  C   UNL d   1      28.423 -14.196  -3.350  0.00  0.00     0.193 C 
BRANCH  25  26
ATOM     26  C   UNL d   1      28.307 -15.246  -2.259  0.00  0.00     0.070 C 
ATOM     27  C   UNL d   1      29.179 -16.298  -1.979  0.00  0.00     0.036 C 
ATOM     28  C   UNL d   1      28.990 -16.661  -0.627  0.00  0.00     0.027 C 
ATOM     29  C   UNL d   1      27.892 -15.957  -0.211  0.00  0.00     0.142 C 
ATOM     30  O   UNL d   1      27.421 -15.124  -1.200  0.00  0.00    -0.325 OA
ENDBRANCH  25  26
ENDBRANCH  22  25
BRANCH  23  31
ATOM     31  C   UNL d   1      29.262 -15.553  -5.890  0.00  0.00     0.000 C 
ATOM     32  C   UNL d   1      29.840 -16.574  -6.098  0.00  0.00    -0.057 C 
BRANCH  32  33
ATOM     33  C   UNL d   1      30.529 -17.812  -6.397  0.00  0.00     0.018 A 
ATOM     34  C   UNL d   1      30.532 -18.869  -5.479  0.00  0.00     0.020 A 
ATOM     35  C   UNL d   1      31.120 -20.095  -5.817  0.00  0.00     0.001 A 
ATOM     36  C   UNL d   1      31.725 -20.258  -7.063  0.00  0.00     0.000 A 
ATOM     37  C   UNL d   1      31.748 -19.198  -7.968  0.00  0.00     0.001 A 
ATOM     38  C   UNL d   1      31.154 -17.977  -7.634  0.00  0.00     0.020 A 
ENDBRANCH  32  33
ENDBRANCH  23  31
ENDBRANCH   1  22
TORSDOF 13
ENDMDL
MODEL 5
REMARK VINA RESULT:    -7.042      2.341      7.841
REMARK INTER + INTRA:         -15.066
REMARK INTER:                 -10.920
REMARK INTRA:                  -4.146
REMARK CONF_INDEPENDENT:        3.878
REMARK UNBOUND:                -4.146
REMARK  13 active torsions:
REMARK  status: ('A' for Active; 'I' for Inactive)
REMARK    1  A    between atoms: C_2  and  C_3 
REMARK    2  A    between atoms: C_3  and  C_4 
REMARK    3  A    between atoms: C_4  and  N_5 
REMARK       I    between atoms: N_5  and  C_6 
REMARK    4  A    between atoms: C_6  and  C_8 
REMARK    5  A    between atoms: C_8  and  C_9 
REMARK    6  A    between atoms: C_8  and  N_18 
REMARK    7  A    between atoms: C_10  and  O_11 
REMARK    8  A    between atoms: C_13  and  O_14 
REMARK    9  A    between atoms: C_16  and  O_17 
REMARK   10  A    between atoms: N_18  and  C_19 
REMARK       I    between atoms: N_18  and  C_25 
REMARK   11  A    between atoms: C_19  and  C_20 
REMARK   12  A    between atoms: C_25  and  C_27 
REMARK   13  A    between atoms: C_28  and  C_29 
ROOT
ATOM      1  C   UNL d   1      25.665 -14.615  -1.694  0.00  0.00     0.219 C 
ENDROOT
BRANCH   1   2
ATOM      2  C   UNL d   1      25.038 -15.997  -1.944  0.00  0.00     0.245 C 
ATOM      3  N   UNL d   1      24.531 -16.735  -0.892  0.00  0.00    -0.359 N 
ATOM      4  H   UNL d   1      24.998 -16.646  -0.001  0.00  0.00     0.162 HD
ATOM      5  O   UNL d   1      25.168 -16.528  -3.049  0.00  0.00    -0.271 OA
BRANCH   3   6
ATOM      6  C   UNL d   1      23.889 -17.984  -1.231  0.00  0.00     0.122 C 
BRANCH   6   7
ATOM      7  C   UNL d   1      22.892 -18.526  -0.257  0.00  0.00     0.019 C 
BRANCH   7   8
ATOM      8  C   UNL d   1      21.493 -18.527  -0.890  0.00  0.00    -0.003 C 
ATOM      9  C   UNL d   1      20.627 -19.488  -0.107  0.00  0.00     0.005 C 
ENDBRANCH   7   8
ENDBRANCH   6   7
ENDBRANCH   3   6
ENDBRANCH   1   2
BRANCH   1  10
ATOM     10  C   UNL d   1      26.992 -14.944  -0.988  0.00  0.00     0.040 A 
ATOM     11  C   UNL d   1      27.904 -15.871  -1.507  0.00  0.00     0.080 A 
ATOM     12  C   UNL d   1      29.080 -16.165  -0.818  0.00  0.00     0.073 A 
ATOM     13  C   UNL d   1      29.424 -15.438   0.320  0.00  0.00     0.071 A 
ATOM     14  C   UNL d   1      28.609 -14.459   0.810  0.00  0.00     0.073 A 
ATOM     15  C   UNL d   1      27.412 -14.243   0.186  0.00  0.00     0.080 A 
BRANCH  11  16
ATOM     16  O   UNL d   1      27.727 -16.529  -2.698  0.00  0.00    -0.360 OA
ATOM     17  H   UNL d   1      27.236 -15.949  -3.306  0.00  0.00     0.217 HD
ENDBRANCH  11  16
BRANCH  13  18
ATOM     18  O   UNL d   1      30.582 -15.615   1.004  0.00  0.00    -0.361 OA
ATOM     19  H   UNL d   1      30.407 -16.253   1.709  0.00  0.00     0.217 HD
ENDBRANCH  13  18
BRANCH  15  20
ATOM     20  O   UNL d   1      26.719 -13.222   0.749  0.00  0.00    -0.360 OA
ATOM     21  H   UNL d   1      26.685 -12.370   0.301  0.00  0.00     0.217 HD
ENDBRANCH  15  20
ENDBRANCH   1  10
BRANCH   1  22
ATOM     22  N   UNL d   1      25.729 -13.666  -2.898  0.00  0.00    -0.318 N 
ATOM     23  C   UNL d   1      26.198 -12.342  -2.727  0.00  0.00     0.300 C 
ATOM     24  O   UNL d   1      26.967 -11.980  -1.851  0.00  0.00    -0.258 OA
BRANCH  22  25
ATOM     25  C   UNL d   1      25.663 -14.123  -4.317  0.00  0.00     0.193 C 
BRANCH  25  26
ATOM     26  C   UNL d   1      26.859 -14.289  -5.238  0.00  0.00     0.070 C 
ATOM     27  C   UNL d   1      27.638 -13.293  -5.826  0.00  0.00     0.036 C 
ATOM     28  C   UNL d   1      28.897 -13.858  -6.129  0.00  0.00     0.027 C 
ATOM     29  C   UNL d   1      28.758 -15.201  -5.897  0.00  0.00     0.142 C 
ATOM     30  O   UNL d   1      27.509 -15.501  -5.403  0.00  0.00    -0.325 OA
ENDBRANCH  25  26
ENDBRANCH  22  25
BRANCH  23  31
ATOM     31  C   UNL d   1      25.702 -11.228  -3.534  0.00  0.00     0.000 C 
ATOM     32  C   UNL d   1      25.528 -10.311  -4.276  0.00  0.00    -0.057 C 
BRANCH  32  33
ATOM     33  C   UNL d   1      25.339  -9.221  -5.210  0.00  0.00     0.018 A 
ATOM     34  C   UNL d   1      26.197  -9.059  -6.304  0.00  0.00     0.020 A 
ATOM     35  C   UNL d   1      25.949  -8.059  -7.253  0.00  0.00     0.001 A 
ATOM     36  C   UNL d   1      24.857  -7.205  -7.097  0.00  0.00     0.000 A 
ATOM     37  C   UNL d   1      24.018  -7.346  -5.994  0.00  0.00     0.001 A 
ATOM     38  C   UNL d   1      24.260  -8.350  -5.050  0.00  0.00     0.020 A 
ENDBRANCH  32  33
ENDBRANCH  23  31
ENDBRANCH   1  22
TORSDOF 13
ENDMDL
MODEL 6
REMARK VINA RESULT:    -6.500      3.397      5.900
REMARK INTER + INTRA:         -15.198
REMARK INTER:                 -10.378
REMARK INTRA:                  -4.820
REMARK CONF_INDEPENDENT:        3.878
REMARK UNBOUND:                -4.820
REMARK  13 active torsions:
REMARK  status: ('A' for Active; 'I' for Inactive)
REMARK    1  A    between atoms: C_2  and  C_3 
REMARK    2  A    between atoms: C_3  and  C_4 
REMARK    3  A    between atoms: C_4  and  N_5 
REMARK       I    between atoms: N_5  and  C_6 
REMARK    4  A    between atoms: C_6  and  C_8 
REMARK    5  A    between atoms: C_8  and  C_9 
REMARK    6  A    between atoms: C_8  and  N_18 
REMARK    7  A    between atoms: C_10  and  O_11 
REMARK    8  A    between atoms: C_13  and  O_14 
REMARK    9  A    between atoms: C_16  and  O_17 
REMARK   10  A    between atoms: N_18  and  C_19 
REMARK       I    between atoms: N_18  and  C_25 
REMARK   11  A    between atoms: C_19  and  C_20 
REMARK   12  A    between atoms: C_25  and  C_27 
REMARK   13  A    between atoms: C_28  and  C_29 
ROOT
ATOM      1  C   UNL d   1      30.025 -15.206  -3.483  0.00  0.00     0.219 C 
ENDROOT
BRANCH   1   2
ATOM      2  C   UNL d   1      30.746 -16.525  -3.806  0.00  0.00     0.245 C 
ATOM      3  N   UNL d   1      30.028 -17.700  -3.936  0.00  0.00    -0.359 N 
ATOM      4  H   UNL d   1      29.209 -17.805  -3.356  0.00  0.00     0.162 HD
ATOM      5  O   UNL d   1      31.976 -16.571  -3.751  0.00  0.00    -0.271 OA
BRANCH   3   6
ATOM      6  C   UNL d   1      30.779 -18.874  -4.321  0.00  0.00     0.122 C 
BRANCH   6   7
ATOM      7  C   UNL d   1      30.151 -19.785  -5.327  0.00  0.00     0.019 C 
BRANCH   7   8
ATOM      8  C   UNL d   1      30.646 -19.425  -6.735  0.00  0.00    -0.003 C 
ATOM      9  C   UNL d   1      30.797 -17.923  -6.808  0.00  0.00     0.005 C 
ENDBRANCH   7   8
ENDBRANCH   6   7
ENDBRANCH   3   6
ENDBRANCH   1   2
BRANCH   1  10
ATOM     10  C   UNL d   1      29.722 -14.612  -4.871  0.00  0.00     0.040 A 
ATOM     11  C   UNL d   1      30.691 -13.935  -5.621  0.00  0.00     0.080 A 
ATOM     12  C   UNL d   1      30.365 -13.383  -6.860  0.00  0.00     0.073 A 
ATOM     13  C   UNL d   1      29.113 -13.619  -7.422  0.00  0.00     0.071 A 
ATOM     14  C   UNL d   1      28.166 -14.353  -6.767  0.00  0.00     0.073 A 
ATOM     15  C   UNL d   1      28.458 -14.809  -5.512  0.00  0.00     0.080 A 
BRANCH  11  16
ATOM     16  O   UNL d   1      31.994 -13.780  -5.221  0.00  0.00    -0.360 OA
ATOM     17  H   UNL d   1      32.248 -14.548  -4.679  0.00  0.00     0.217 HD
ENDBRANCH  11  16
BRANCH  13  18
ATOM     18  O   UNL d   1      28.745 -13.177  -8.651  0.00  0.00    -0.361 OA
ATOM     19  H   UNL d   1      29.231 -13.698  -9.303  0.00  0.00     0.217 HD
ENDBRANCH  13  18
BRANCH  15  20
ATOM     20  O   UNL d   1      27.450 -15.552  -4.990  0.00  0.00    -0.360 OA
ATOM     21  H   UNL d   1      27.375 -15.641  -4.035  0.00  0.00     0.217 HD
ENDBRANCH  15  20
ENDBRANCH   1  10
BRANCH   1  22
ATOM     22  N   UNL d   1      28.860 -15.290  -2.488  0.00  0.00    -0.318 N 
ATOM     23  C   UNL d   1      28.719 -16.433  -1.665  0.00  0.00     0.300 C 
ATOM     24  O   UNL d   1      29.633 -17.166  -1.323  0.00  0.00    -0.258 OA
BRANCH  22  25
ATOM     25  C   UNL d   1      28.048 -14.113  -2.062  0.00  0.00     0.193 C 
BRANCH  25  26
ATOM     26  C   UNL d   1      26.680 -13.750  -2.612  0.00  0.00     0.070 C 
ATOM     27  C   UNL d   1      26.245 -12.516  -3.093  0.00  0.00     0.036 C 
ATOM     28  C   UNL d   1      25.158 -12.756  -3.964  0.00  0.00     0.027 C 
ATOM     29  C   UNL d   1      24.862 -14.086  -3.819  0.00  0.00     0.142 C 
ATOM     30  O   UNL d   1      25.740 -14.707  -2.961  0.00  0.00    -0.325 OA
ENDBRANCH  25  26
ENDBRANCH  22  25
BRANCH  23  31
ATOM     31  C   UNL d   1      27.412 -16.924  -1.230  0.00  0.00     0.000 C 
ATOM     32  C   UNL d   1      26.261 -17.139  -1.009  0.00  0.00    -0.057 C 
BRANCH  32  33
ATOM     33  C   UNL d   1      24.853 -17.397  -0.788  0.00  0.00     0.018 A 
ATOM     34  C   UNL d   1      23.912 -16.366  -0.892  0.00  0.00     0.020 A 
ATOM     35  C   UNL d   1      22.545 -16.645  -0.770  0.00  0.00     0.001 A 
ATOM     36  C   UNL d   1      22.118 -17.949  -0.521  0.00  0.00     0.000 A 
ATOM     37  C   UNL d   1      23.055 -18.972  -0.389  0.00  0.00     0.001 A 
ATOM     38  C   UNL d   1      24.420 -18.697  -0.520  0.00  0.00     0.020 A 
ENDBRANCH  32  33
ENDBRANCH  23  31
ENDBRANCH   1  22
TORSDOF 13
ENDMDL
MODEL 7
REMARK VINA RESULT:    -6.488      1.661      4.994
REMARK INTER + INTRA:         -14.820
REMARK INTER:                 -10.366
REMARK INTRA:                  -4.454
REMARK CONF_INDEPENDENT:        3.878
REMARK UNBOUND:                -4.454
REMARK  13 active torsions:
REMARK  status: ('A' for Active; 'I' for Inactive)
REMARK    1  A    between atoms: C_2  and  C_3 
REMARK    2  A    between atoms: C_3  and  C_4 
REMARK    3  A    between atoms: C_4  and  N_5 
REMARK       I    between atoms: N_5  and  C_6 
REMARK    4  A    between atoms: C_6  and  C_8 
REMARK    5  A    between atoms: C_8  and  C_9 
REMARK    6  A    between atoms: C_8  and  N_18 
REMARK    7  A    between atoms: C_10  and  O_11 
REMARK    8  A    between atoms: C_13  and  O_14 
REMARK    9  A    between atoms: C_16  and  O_17 
REMARK   10  A    between atoms: N_18  and  C_19 
REMARK       I    between atoms: N_18  and  C_25 
REMARK   11  A    between atoms: C_19  and  C_20 
REMARK   12  A    between atoms: C_25  and  C_27 
REMARK   13  A    between atoms: C_28  and  C_29 
ROOT
ATOM      1  C   UNL d   1      26.546 -16.085  -2.264  0.00  0.00     0.219 C 
ENDROOT
BRANCH   1   2
ATOM      2  C   UNL d   1      25.135 -16.621  -1.967  0.00  0.00     0.245 C 
ATOM      3  N   UNL d   1      24.228 -15.849  -1.265  0.00  0.00    -0.359 N 
ATOM      4  H   UNL d   1      24.599 -15.237  -0.553  0.00  0.00     0.162 HD
ATOM      5  O   UNL d   1      24.883 -17.809  -2.177  0.00  0.00    -0.271 OA
BRANCH   3   6
ATOM      6  C   UNL d   1      22.902 -16.401  -1.103  0.00  0.00     0.122 C 
BRANCH   6   7
ATOM      7  C   UNL d   1      22.748 -17.539  -0.146  0.00  0.00     0.019 C 
BRANCH   7   8
ATOM      8  C   UNL d   1      22.303 -18.798  -0.901  0.00  0.00    -0.003 C 
ATOM      9  C   UNL d   1      20.859 -19.072  -0.547  0.00  0.00     0.005 C 
ENDBRANCH   7   8
ENDBRANCH   6   7
ENDBRANCH   3   6
ENDBRANCH   1   2
BRANCH   1  10
ATOM     10  C   UNL d   1      26.280 -14.742  -2.968  0.00  0.00     0.040 A 
ATOM     11  C   UNL d   1      25.963 -13.577  -2.259  0.00  0.00     0.080 A 
ATOM     12  C   UNL d   1      25.696 -12.389  -2.939  0.00  0.00     0.073 A 
ATOM     13  C   UNL d   1      25.879 -12.317  -4.318  0.00  0.00     0.071 A 
ATOM     14  C   UNL d   1      26.278 -13.404  -5.040  0.00  0.00     0.073 A 
ATOM     15  C   UNL d   1      26.444 -14.590  -4.381  0.00  0.00     0.080 A 
BRANCH  11  16
ATOM     16  O   UNL d   1      25.905 -13.510  -0.890  0.00  0.00    -0.360 OA
ATOM     17  H   UNL d   1      25.829 -14.414  -0.536  0.00  0.00     0.217 HD
ENDBRANCH  11  16
BRANCH  13  18
ATOM     18  O   UNL d   1      25.710 -11.180  -5.040  0.00  0.00    -0.361 OA
ATOM     19  H   UNL d   1      24.900 -11.285  -5.558  0.00  0.00     0.217 HD
ENDBRANCH  13  18
BRANCH  15  20
ATOM     20  O   UNL d   1      26.876 -15.577  -5.206  0.00  0.00    -0.360 OA
ATOM     21  H   UNL d   1      27.451 -16.266  -4.856  0.00  0.00     0.217 HD
ENDBRANCH  15  20
ENDBRANCH   1  10
BRANCH   1  22
ATOM     22  N   UNL d   1      27.534 -16.076  -1.090  0.00  0.00    -0.318 N 
ATOM     23  C   UNL d   1      27.050 -15.983   0.236  0.00  0.00     0.300 C 
ATOM     24  O   UNL d   1      25.945 -16.347   0.605  0.00  0.00    -0.258 OA
BRANCH  22  25
ATOM     25  C   UNL d   1      28.958 -16.507  -1.204  0.00  0.00     0.193 C 
BRANCH  25  26
ATOM     26  C   UNL d   1      29.714 -16.692  -2.508  0.00  0.00     0.070 C 
ATOM     27  C   UNL d   1      30.885 -17.415  -2.730  0.00  0.00     0.036 C 
ATOM     28  C   UNL d   1      30.922 -17.757  -4.100  0.00  0.00     0.027 C 
ATOM     29  C   UNL d   1      29.888 -17.067  -4.676  0.00  0.00     0.142 C 
ATOM     30  O   UNL d   1      29.165 -16.367  -3.738  0.00  0.00    -0.325 OA
ENDBRANCH  25  26
ENDBRANCH  22  25
BRANCH  23  31
ATOM     31  C   UNL d   1      27.805 -15.318   1.297  0.00  0.00     0.000 C 
ATOM     32  C   UNL d   1      28.224 -14.825   2.299  0.00  0.00    -0.057 C 
BRANCH  32  33
ATOM     33  C   UNL d   1      28.719 -14.266   3.538  0.00  0.00     0.018 A 
ATOM     34  C   UNL d   1      28.152 -14.630   4.766  0.00  0.00     0.020 A 
ATOM     35  C   UNL d   1      28.701 -14.156   5.964  0.00  0.00     0.001 A 
ATOM     36  C   UNL d   1      29.800 -13.299   5.937  0.00  0.00     0.000 A 
ATOM     37  C   UNL d   1      30.349 -12.913   4.716  0.00  0.00     0.001 A 
ATOM     38  C   UNL d   1      29.808 -13.392   3.519  0.00  0.00     0.020 A 
ENDBRANCH  32  33
ENDBRANCH  23  31
ENDBRANCH   1  22
TORSDOF 13
ENDMDL
MODEL 8
REMARK VINA RESULT:    -6.375      2.016      5.307
REMARK INTER + INTRA:         -14.690
REMARK INTER:                 -10.253
REMARK INTRA:                  -4.437
REMARK CONF_INDEPENDENT:        3.878
REMARK UNBOUND:                -4.437
REMARK  13 active torsions:
REMARK  status: ('A' for Active; 'I' for Inactive)
REMARK    1  A    between atoms: C_2  and  C_3 
REMARK    2  A    between atoms: C_3  and  C_4 
REMARK    3  A    between atoms: C_4  and  N_5 
REMARK       I    between atoms: N_5  and  C_6 
REMARK    4  A    between atoms: C_6  and  C_8 
REMARK    5  A    between atoms: C_8  and  C_9 
REMARK    6  A    between atoms: C_8  and  N_18 
REMARK    7  A    between atoms: C_10  and  O_11 
REMARK    8  A    between atoms: C_13  and  O_14 
REMARK    9  A    between atoms: C_16  and  O_17 
REMARK   10  A    between atoms: N_18  and  C_19 
REMARK       I    between atoms: N_18  and  C_25 
REMARK   11  A    between atoms: C_19  and  C_20 
REMARK   12  A    between atoms: C_25  and  C_27 
REMARK   13  A    between atoms: C_28  and  C_29 
ROOT
ATOM      1  C   UNL d   1      26.937 -15.380  -2.233  0.00  0.00     0.219 C 
ENDROOT
BRANCH   1   2
ATOM      2  C   UNL d   1      25.579 -16.075  -2.039  0.00  0.00     0.245 C 
ATOM      3  N   UNL d   1      24.946 -16.041  -0.811  0.00  0.00    -0.359 N 
ATOM      4  H   UNL d   1      25.534 -16.039   0.010  0.00  0.00     0.162 HD
ATOM      5  O   UNL d   1      25.155 -16.830  -2.917  0.00  0.00    -0.271 OA
BRANCH   3   6
ATOM      6  C   UNL d   1      23.638 -16.651  -0.743  0.00  0.00     0.122 C 
BRANCH   6   7
ATOM      7  C   UNL d   1      23.583 -18.143  -0.675  0.00  0.00     0.019 C 
BRANCH   7   8
ATOM      8  C   UNL d   1      22.337 -18.584   0.105  0.00  0.00    -0.003 C 
ATOM      9  C   UNL d   1      21.256 -18.926  -0.895  0.00  0.00     0.005 C 
ENDBRANCH   7   8
ENDBRANCH   6   7
ENDBRANCH   3   6
ENDBRANCH   1   2
BRANCH   1  10
ATOM     10  C   UNL d   1      26.611 -14.211  -3.180  0.00  0.00     0.040 A 
ATOM     11  C   UNL d   1      26.544 -14.372  -4.570  0.00  0.00     0.080 A 
ATOM     12  C   UNL d   1      26.279 -13.279  -5.395  0.00  0.00     0.073 A 
ATOM     13  C   UNL d   1      25.940 -12.049  -4.836  0.00  0.00     0.071 A 
ATOM     14  C   UNL d   1      25.900 -11.869  -3.484  0.00  0.00     0.073 A 
ATOM     15  C   UNL d   1      26.256 -12.917  -2.683  0.00  0.00     0.080 A 
BRANCH  11  16
ATOM     16  O   UNL d   1      26.715 -15.575  -5.207  0.00  0.00    -0.360 OA
ATOM     17  H   UNL d   1      26.221 -16.259  -4.720  0.00  0.00     0.217 HD
ENDBRANCH  11  16
BRANCH  13  18
ATOM     18  O   UNL d   1      25.599 -10.959  -5.569  0.00  0.00    -0.361 OA
ATOM     19  H   UNL d   1      24.824 -10.560  -5.152  0.00  0.00     0.217 HD
ENDBRANCH  13  18
BRANCH  15  20
ATOM     20  O   UNL d   1      26.138 -12.618  -1.365  0.00  0.00    -0.360 OA
ATOM     21  H   UNL d   1      26.616 -11.863  -1.007  0.00  0.00     0.217 HD
ENDBRANCH  15  20
ENDBRANCH   1  10
BRANCH   1  22
ATOM     22  N   UNL d   1      27.723 -15.048  -0.958  0.00  0.00    -0.318 N 
ATOM     23  C   UNL d   1      27.654 -15.917   0.157  0.00  0.00     0.300 C 
ATOM     24  O   UNL d   1      27.409 -17.111   0.099  0.00  0.00    -0.258 OA
BRANCH  22  25
ATOM     25  C   UNL d   1      28.839 -14.059  -0.906  0.00  0.00     0.193 C 
BRANCH  25  26
ATOM     26  C   UNL d   1      28.785 -12.718  -0.195  0.00  0.00     0.070 C 
ATOM     27  C   UNL d   1      29.498 -11.557  -0.490  0.00  0.00     0.036 C 
ATOM     28  C   UNL d   1      28.774 -10.465   0.037  0.00  0.00     0.027 C 
ATOM     29  C   UNL d   1      27.772 -11.021   0.788  0.00  0.00     0.142 C 
ATOM     30  O   UNL d   1      27.785 -12.394   0.708  0.00  0.00    -0.325 OA
ENDBRANCH  25  26
ENDBRANCH  22  25
BRANCH  23  31
ATOM     31  C   UNL d   1      27.759 -15.431   1.532  0.00  0.00     0.000 C 
ATOM     32  C   UNL d   1      27.912 -14.825   2.547  0.00  0.00    -0.057 C 
BRANCH  32  33
ATOM     33  C   UNL d   1      28.072 -14.053   3.761  0.00  0.00     0.018 A 
ATOM     34  C   UNL d   1      27.801 -12.680   3.778  0.00  0.00     0.020 A 
ATOM     35  C   UNL d   1      27.868 -11.963   4.979  0.00  0.00     0.001 A 
ATOM     36  C   UNL d   1      28.229 -12.611   6.160  0.00  0.00     0.000 A 
ATOM     37  C   UNL d   1      28.528 -13.972   6.140  0.00  0.00     0.001 A 
ATOM     38  C   UNL d   1      28.453 -14.691   4.943  0.00  0.00     0.020 A 
ENDBRANCH  32  33
ENDBRANCH  23  31
ENDBRANCH   1  22
TORSDOF 13
ENDMDL
MODEL 9
REMARK VINA RESULT:    -6.274      2.442      6.175
REMARK INTER + INTRA:         -14.574
REMARK INTER:                 -10.152
REMARK INTRA:                  -4.423
REMARK CONF_INDEPENDENT:        3.878
REMARK UNBOUND:                -4.423
REMARK  13 active torsions:
REMARK  status: ('A' for Active; 'I' for Inactive)
REMARK    1  A    between atoms: C_2  and  C_3 
REMARK    2  A    between atoms: C_3  and  C_4 
REMARK    3  A    between atoms: C_4  and  N_5 
REMARK       I    between atoms: N_5  and  C_6 
REMARK    4  A    between atoms: C_6  and  C_8 
REMARK    5  A    between atoms: C_8  and  C_9 
REMARK    6  A    between atoms: C_8  and  N_18 
REMARK    7  A    between atoms: C_10  and  O_11 
REMARK    8  A    between atoms: C_13  and  O_14 
REMARK    9  A    between atoms: C_16  and  O_17 
REMARK   10  A    between atoms: N_18  and  C_19 
REMARK       I    between atoms: N_18  and  C_25 
REMARK   11  A    between atoms: C_19  and  C_20 
REMARK   12  A    between atoms: C_25  and  C_27 
REMARK   13  A    between atoms: C_28  and  C_29 
ROOT
ATOM      1  C   UNL d   1      27.586 -16.496  -2.053  0.00  0.00     0.219 C 
ENDROOT
BRANCH   1   2
ATOM      2  C   UNL d   1      28.032 -15.653  -3.260  0.00  0.00     0.245 C 
ATOM      3  N   UNL d   1      28.717 -14.468  -3.070  0.00  0.00    -0.359 N 
ATOM      4  H   UNL d   1      28.484 -13.928  -2.249  0.00  0.00     0.162 HD
ATOM      5  O   UNL d   1      27.604 -15.931  -4.382  0.00  0.00    -0.271 OA
BRANCH   3   6
ATOM      6  C   UNL d   1      29.167 -13.785  -4.262  0.00  0.00     0.122 C 
BRANCH   6   7
ATOM      7  C   UNL d   1      30.117 -14.520  -5.152  0.00  0.00     0.019 C 
BRANCH   7   8
ATOM      8  C   UNL d   1      29.536 -14.614  -6.569  0.00  0.00    -0.003 C 
ATOM      9  C   UNL d   1      28.497 -13.527  -6.722  0.00  0.00     0.005 C 
ENDBRANCH   7   8
ENDBRANCH   6   7
ENDBRANCH   3   6
ENDBRANCH   1   2
BRANCH   1  10
ATOM     10  C   UNL d   1      28.714 -16.280  -1.028  0.00  0.00     0.040 A 
ATOM     11  C   UNL d   1      29.831 -17.123  -0.958  0.00  0.00     0.080 A 
ATOM     12  C   UNL d   1      30.813 -16.912   0.009  0.00  0.00     0.073 A 
ATOM     13  C   UNL d   1      30.763 -15.782   0.822  0.00  0.00     0.071 A 
ATOM     14  C   UNL d   1      29.741 -14.882   0.726  0.00  0.00     0.073 A 
ATOM     15  C   UNL d   1      28.731 -15.145  -0.157  0.00  0.00     0.080 A 
BRANCH  11  16
ATOM     16  O   UNL d   1      30.047 -18.174  -1.812  0.00  0.00    -0.360 OA
ATOM     17  H   UNL d   1      29.901 -17.870  -2.726  0.00  0.00     0.217 HD
ENDBRANCH  11  16
BRANCH  13  18
ATOM     18  O   UNL d   1      31.716 -15.470   1.736  0.00  0.00    -0.361 OA
ATOM     19  H   UNL d   1      31.565 -16.025   2.512  0.00  0.00     0.217 HD
ENDBRANCH  13  18
BRANCH  15  20
ATOM     20  O   UNL d   1      27.801 -14.158  -0.180  0.00  0.00    -0.360 OA
ATOM     21  H   UNL d   1      27.374 -13.931  -1.013  0.00  0.00     0.217 HD
ENDBRANCH  15  20
ENDBRANCH   1  10
BRANCH   1  22
ATOM     22  N   UNL d   1      26.147 -16.283  -1.566  0.00  0.00    -0.318 N 
ATOM     23  C   UNL d   1      25.700 -16.930  -0.390  0.00  0.00     0.300 C 
ATOM     24  O   UNL d   1      26.419 -17.284   0.531  0.00  0.00    -0.258 OA
BRANCH  22  25
ATOM     25  C   UNL d   1      25.269 -15.172  -2.037  0.00  0.00     0.193 C 
BRANCH  25  26
ATOM     26  C   UNL d   1      25.739 -13.958  -2.818  0.00  0.00     0.070 C 
ATOM     27  C   UNL d   1      25.248 -13.467  -4.027  0.00  0.00     0.036 C 
ATOM     28  C   UNL d   1      25.582 -12.097  -4.099  0.00  0.00     0.027 C 
ATOM     29  C   UNL d   1      26.419 -11.869  -3.039  0.00  0.00     0.142 C 
ATOM     30  O   UNL d   1      26.576 -12.999  -2.270  0.00  0.00    -0.325 OA
ENDBRANCH  25  26
ENDBRANCH  22  25
BRANCH  23  31
ATOM     31  C   UNL d   1      24.310 -17.350  -0.211  0.00  0.00     0.000 C 
ATOM     32  C   UNL d   1      23.251 -17.897  -0.178  0.00  0.00    -0.057 C 
BRANCH  32  33
ATOM     33  C   UNL d   1      21.987 -18.600  -0.123  0.00  0.00     0.018 A 
ATOM     34  C   UNL d   1      21.410 -18.940   1.107  0.00  0.00     0.020 A 
ATOM     35  C   UNL d   1      20.143 -19.535   1.150  0.00  0.00     0.001 A 
ATOM     36  C   UNL d   1      19.461 -19.812  -0.034  0.00  0.00     0.000 A 
ATOM     37  C   UNL d   1      20.046 -19.501  -1.260  0.00  0.00     0.001 A 
ATOM     38  C   UNL d   1      21.307 -18.899  -1.305  0.00  0.00     0.020 A 
ENDBRANCH  32  33
ENDBRANCH  23  31
ENDBRANCH   1  22
TORSDOF 13
ENDMDL
