MODEL 1
REMARK VINA RESULT:    -9.065      0.000      0.000
REMARK INTER + INTRA:         -13.211
REMARK INTER:                 -11.153
REMARK INTRA:                  -2.058
REMARK CONF_INDEPENDENT:        2.088
REMARK UNBOUND:                -2.058
REMARK  7 active torsions:
REMARK  status: ('A' for Active; 'I' for Inactive)
REMARK    1  A    between atoms: O_2  and  C_3 
REMARK    2  A    between atoms: C_5  and  O_6 
REMARK    3  A    between atoms: C_9  and  C_10 
REMARK       I    between atoms: C_10  and  N_12 
REMARK       I    between atoms: C_13  and  N_14 
REMARK       I    between atoms: C_13  and  N_26 
REMARK    4  A    between atoms: N_14  and  C_15 
REMARK    5  A    between atoms: C_15  and  C_16 
REMARK    6  A    between atoms: C_16  and  C_17 
REMARK    7  A    between atoms: N_26  and  C_27 
ROOT
ATOM      1  C   UNL d   1      27.493 -13.172  -1.159  0.00  0.00     0.294 C 
ATOM      2  O   UNL d   1      27.123 -12.283  -0.408  0.00  0.00    -0.265 OA
ATOM      3  N   UNL d   1      28.134 -14.326  -0.772  0.00  0.00    -0.023 NA
ATOM      4  C   UNL d   1      28.298 -14.563   0.494  0.00  0.00     0.704 C 
ATOM      5  N   UNL d   1      28.800 -15.782   0.860  0.00  0.00    -0.224 N 
ATOM      6  N   UNL d   1      27.933 -13.749   1.538  0.00  0.00    -0.190 N 
ATOM      7  H   UNL d   1      28.877 -15.949   1.856  0.00  0.00     0.177 HD
ATOM      8  H   UNL d   1      27.514 -12.859   1.243  0.00  0.00     0.184 HD
ENDROOT
BRANCH   5   9
ATOM      9  C   UNL d   1      29.496 -16.659  -0.054  0.00  0.00     0.142 C 
BRANCH   9  10
ATOM     10  C   UNL d   1      28.522 -17.468  -0.892  0.00  0.00     0.057 C 
BRANCH  10  11
ATOM     11  C   UNL d   1      27.150 -17.660  -0.324  0.00  0.00    -0.048 A 
ATOM     12  C   UNL d   1      26.103 -17.074  -0.901  0.00  0.00    -0.006 A 
ATOM     13  C   UNL d   1      26.034 -16.233  -2.040  0.00  0.00     0.014 A 
ATOM     14  C   UNL d   1      24.926 -17.418  -0.098  0.00  0.00     0.038 A 
ATOM     15  C   UNL d   1      24.860 -15.677  -2.345  0.00  0.00     0.001 A 
ATOM     16  C   UNL d   1      23.655 -16.016  -1.605  0.00  0.00     0.002 A 
ATOM     17  C   UNL d   1      23.636 -16.831  -0.527  0.00  0.00     0.030 A 
ATOM     18  N   UNL d   1      25.235 -18.200   0.868  0.00  0.00    -0.385 N 
ATOM     19  C   UNL d   1      26.713 -18.463   0.868  0.00  0.00     0.155 A 
ATOM     20  H   UNL d   1      24.540 -18.577   1.512  0.00  0.00     0.160 HD
ENDBRANCH  10  11
ENDBRANCH   9  10
ENDBRANCH   5   9
BRANCH   6  21
ATOM     21  C   UNL d   1      28.330 -13.738   2.891  0.00  0.00     0.055 A 
ATOM     22  C   UNL d   1      27.309 -13.696   3.866  0.00  0.00     0.032 A 
ATOM     23  C   UNL d   1      27.605 -13.727   5.232  0.00  0.00     0.026 A 
ATOM     24  C   UNL d   1      28.924 -13.871   5.637  0.00  0.00     0.034 A 
ATOM     25 CL   UNL d   1      29.303 -14.075   7.301  0.00  0.00    -0.084 Cl
ATOM     26  C   UNL d   1      29.950 -13.879   4.696  0.00  0.00     0.032 A 
ATOM     27  C   UNL d   1      29.673 -13.775   3.321  0.00  0.00    -0.033 A 
ATOM     28  C   UNL d   1      30.846 -13.644   2.387  0.00  0.00     0.050 C 
ENDBRANCH   6  21
BRANCH   1  29
ATOM     29  C   UNL d   1      27.230 -13.049  -2.624  0.00  0.00     0.040 A 
ATOM     30  C   UNL d   1      27.641 -14.103  -3.445  0.00  0.00     0.054 A 
ATOM     31  C   UNL d   1      27.317 -14.110  -4.798  0.00  0.00     0.071 A 
ATOM     32  C   UNL d   1      26.686 -12.993  -5.353  0.00  0.00     0.073 A 
ATOM     33  C   UNL d   1      26.294 -11.920  -4.545  0.00  0.00     0.071 A 
ATOM     34  C   UNL d   1      26.548 -11.956  -3.173  0.00  0.00     0.054 A 
BRANCH  31  35
ATOM     35  O   UNL d   1      27.539 -15.170  -5.638  0.00  0.00    -0.356 OA
ATOM     36  C   UNL d   1      28.905 -15.560  -5.802  0.00  0.00     0.210 C 
ENDBRANCH  31  35
BRANCH  33  37
ATOM     37  O   UNL d   1      25.546 -10.947  -5.152  0.00  0.00    -0.356 OA
ATOM     38  C   UNL d   1      25.837 -10.725  -6.526  0.00  0.00     0.210 C 
ENDBRANCH  33  37
ENDBRANCH   1  29
TORSDOF 7
ENDMDL
MODEL 2
REMARK VINA RESULT:    -9.064      4.142      6.375
REMARK INTER + INTRA:         -12.181
REMARK INTER:                 -11.152
REMARK INTRA:                  -1.029
REMARK CONF_INDEPENDENT:        2.088
REMARK UNBOUND:                -1.029
REMARK  7 active torsions:
REMARK  status: ('A' for Active; 'I' for Inactive)
REMARK    1  A    between atoms: O_2  and  C_3 
REMARK    2  A    between atoms: C_5  and  O_6 
REMARK    3  A    between atoms: C_9  and  C_10 
REMARK       I    between atoms: C_10  and  N_12 
REMARK       I    between atoms: C_13  and  N_14 
REMARK       I    between atoms: C_13  and  N_26 
REMARK    4  A    between atoms: N_14  and  C_15 
REMARK    5  A    between atoms: C_15  and  C_16 
REMARK    6  A    between atoms: C_16  and  C_17 
REMARK    7  A    between atoms: N_26  and  C_27 
ROOT
ATOM      1  C   UNL d   1      31.397 -19.233  -3.222  0.00  0.00     0.294 C 
ATOM      2  O   UNL d   1      32.136 -20.168  -2.959  0.00  0.00    -0.265 OA
ATOM      3  N   UNL d   1      30.767 -18.431  -2.299  0.00  0.00    -0.023 NA
ATOM      4  C   UNL d   1      31.024 -18.600  -1.037  0.00  0.00     0.704 C 
ATOM      5  N   UNL d   1      30.505 -17.697  -0.149  0.00  0.00    -0.224 N 
ATOM      6  N   UNL d   1      31.850 -19.548  -0.485  0.00  0.00    -0.190 N 
ATOM      7  H   UNL d   1      30.758 -17.835   0.822  0.00  0.00     0.177 HD
ATOM      8  H   UNL d   1      32.267 -20.185  -1.173  0.00  0.00     0.184 HD
ENDROOT
BRANCH   5   9
ATOM      9  C   UNL d   1      29.409 -16.812  -0.469  0.00  0.00     0.142 C 
BRANCH   9  10
ATOM     10  C   UNL d   1      28.088 -17.560  -0.506  0.00  0.00     0.057 C 
BRANCH  10  11
ATOM     11  C   UNL d   1      26.905 -16.806  -1.030  0.00  0.00    -0.048 A 
ATOM     12  C   UNL d   1      25.674 -17.181  -0.691  0.00  0.00    -0.006 A 
ATOM     13  C   UNL d   1      25.233 -18.246   0.135  0.00  0.00     0.014 A 
ATOM     14  C   UNL d   1      24.749 -16.281  -1.386  0.00  0.00     0.038 A 
ATOM     15  C   UNL d   1      23.921 -18.478   0.220  0.00  0.00     0.001 A 
ATOM     16  C   UNL d   1      22.960 -17.592  -0.418  0.00  0.00     0.002 A 
ATOM     17  C   UNL d   1      23.303 -16.542  -1.195  0.00  0.00     0.030 A 
ATOM     18  N   UNL d   1      25.381 -15.393  -2.057  0.00  0.00    -0.385 N 
ATOM     19  C   UNL d   1      26.861 -15.606  -1.932  0.00  0.00     0.155 A 
ATOM     20  H   UNL d   1      24.904 -14.656  -2.576  0.00  0.00     0.160 HD
ENDBRANCH  10  11
ENDBRANCH   9  10
ENDBRANCH   5   9
BRANCH   6  21
ATOM     21  C   UNL d   1      31.961 -20.029   0.836  0.00  0.00     0.055 A 
ATOM     22  C   UNL d   1      32.655 -19.223   1.764  0.00  0.00     0.032 A 
ATOM     23  C   UNL d   1      32.776 -19.597   3.106  0.00  0.00     0.026 A 
ATOM     24  C   UNL d   1      32.143 -20.750   3.549  0.00  0.00     0.034 A 
ATOM     25 CL   UNL d   1      32.138 -21.149   5.221  0.00  0.00    -0.084 Cl
ATOM     26  C   UNL d   1      31.483 -21.578   2.645  0.00  0.00     0.032 A 
ATOM     27  C   UNL d   1      31.415 -21.252   1.280  0.00  0.00    -0.033 A 
ATOM     28  C   UNL d   1      30.811 -22.274   0.354  0.00  0.00     0.050 C 
ENDBRANCH   6  21
BRANCH   1  29
ATOM     29  C   UNL d   1      31.143 -18.880  -4.651  0.00  0.00     0.040 A 
ATOM     30  C   UNL d   1      30.907 -17.535  -4.952  0.00  0.00     0.054 A 
ATOM     31  C   UNL d   1      30.788 -17.119  -6.274  0.00  0.00     0.071 A 
ATOM     32  C   UNL d   1      30.782 -18.077  -7.291  0.00  0.00     0.073 A 
ATOM     33  C   UNL d   1      30.991 -19.430  -6.999  0.00  0.00     0.071 A 
ATOM     34  C   UNL d   1      31.193 -19.830  -5.678  0.00  0.00     0.054 A 
BRANCH  31  35
ATOM     35  O   UNL d   1      30.715 -15.808  -6.666  0.00  0.00    -0.356 OA
ATOM     36  C   UNL d   1      29.442 -15.179  -6.504  0.00  0.00     0.210 C 
ENDBRANCH  31  35
BRANCH  33  37
ATOM     37  O   UNL d   1      31.123 -20.268  -8.074  0.00  0.00    -0.356 OA
ATOM     38  C   UNL d   1      30.798 -19.696  -9.335  0.00  0.00     0.210 C 
ENDBRANCH  33  37
ENDBRANCH   1  29
TORSDOF 7
ENDMDL
MODEL 3
REMARK VINA RESULT:    -8.990      0.533      2.037
REMARK INTER + INTRA:         -13.027
REMARK INTER:                 -11.078
REMARK INTRA:                  -1.949
REMARK CONF_INDEPENDENT:        2.088
REMARK UNBOUND:                -1.949
REMARK  7 active torsions:
REMARK  status: ('A' for Active; 'I' for Inactive)
REMARK    1  A    between atoms: O_2  and  C_3 
REMARK    2  A    between atoms: C_5  and  O_6 
REMARK    3  A    between atoms: C_9  and  C_10 
REMARK       I    between atoms: C_10  and  N_12 
REMARK       I    between atoms: C_13  and  N_14 
REMARK       I    between atoms: C_13  and  N_26 
REMARK    4  A    between atoms: N_14  and  C_15 
REMARK    5  A    between atoms: C_15  and  C_16 
REMARK    6  A    between atoms: C_16  and  C_17 
REMARK    7  A    between atoms: N_26  and  C_27 
ROOT
ATOM      1  C   UNL d   1      27.202 -13.256  -1.144  0.00  0.00     0.294 C 
ATOM      2  O   UNL d   1      26.797 -12.389  -0.386  0.00  0.00    -0.265 OA
ATOM      3  N   UNL d   1      27.941 -14.356  -0.774  0.00  0.00    -0.023 NA
ATOM      4  C   UNL d   1      28.171 -14.565   0.487  0.00  0.00     0.704 C 
ATOM      5  N   UNL d   1      28.776 -15.741   0.842  0.00  0.00    -0.224 N 
ATOM      6  N   UNL d   1      27.789 -13.769   1.538  0.00  0.00    -0.190 N 
ATOM      7  H   UNL d   1      28.905 -15.891   1.835  0.00  0.00     0.177 HD
ATOM      8  H   UNL d   1      27.294 -12.917   1.252  0.00  0.00     0.184 HD
ENDROOT
BRANCH   5   9
ATOM      9  C   UNL d   1      29.499 -16.574  -0.092  0.00  0.00     0.142 C 
BRANCH   9  10
ATOM     10  C   UNL d   1      28.554 -17.450  -0.896  0.00  0.00     0.057 C 
BRANCH  10  11
ATOM     11  C   UNL d   1      27.234 -17.766  -0.263  0.00  0.00    -0.048 A 
ATOM     12  C   UNL d   1      26.117 -17.233  -0.753  0.00  0.00    -0.006 A 
ATOM     13  C   UNL d   1      25.923 -16.350  -1.845  0.00  0.00     0.014 A 
ATOM     14  C   UNL d   1      25.016 -17.697   0.096  0.00  0.00     0.038 A 
ATOM     15  C   UNL d   1      24.697 -15.868  -2.058  0.00  0.00     0.001 A 
ATOM     16  C   UNL d   1      23.564 -16.326  -1.270  0.00  0.00     0.002 A 
ATOM     17  C   UNL d   1      23.665 -17.187  -0.233  0.00  0.00     0.030 A 
ATOM     18  N   UNL d   1      25.435 -18.496   1.005  0.00  0.00    -0.385 N 
ATOM     19  C   UNL d   1      26.926 -18.650   0.911  0.00  0.00     0.155 A 
ATOM     20  H   UNL d   1      24.807 -18.950   1.668  0.00  0.00     0.160 HD
ENDBRANCH  10  11
ENDBRANCH   9  10
ENDBRANCH   5   9
BRANCH   6  21
ATOM     21  C   UNL d   1      28.236 -13.714   2.873  0.00  0.00     0.055 A 
ATOM     22  C   UNL d   1      27.253 -13.706   3.887  0.00  0.00     0.032 A 
ATOM     23  C   UNL d   1      27.603 -13.698   5.241  0.00  0.00     0.026 A 
ATOM     24  C   UNL d   1      28.943 -13.769   5.596  0.00  0.00     0.034 A 
ATOM     25 CL   UNL d   1      29.395 -13.924   7.247  0.00  0.00    -0.084 Cl
ATOM     26  C   UNL d   1      29.931 -13.742   4.615  0.00  0.00     0.032 A 
ATOM     27  C   UNL d   1      29.595 -13.677   3.251  0.00  0.00    -0.033 A 
ATOM     28  C   UNL d   1      30.723 -13.504   2.269  0.00  0.00     0.050 C 
ENDBRANCH   6  21
BRANCH   1  29
ATOM     29  C   UNL d   1      26.873 -13.168  -2.598  0.00  0.00     0.040 A 
ATOM     30  C   UNL d   1      26.237 -12.007  -3.048  0.00  0.00     0.054 A 
ATOM     31  C   UNL d   1      26.015 -11.807  -4.407  0.00  0.00     0.071 A 
ATOM     32  C   UNL d   1      26.321 -12.834  -5.305  0.00  0.00     0.073 A 
ATOM     33  C   UNL d   1      26.934 -14.011  -4.862  0.00  0.00     0.071 A 
ATOM     34  C   UNL d   1      27.230 -14.171  -3.508  0.00  0.00     0.054 A 
BRANCH  31  35
ATOM     35  O   UNL d   1      25.546 -10.638  -4.947  0.00  0.00    -0.356 OA
ATOM     36  C   UNL d   1      25.708  -9.470  -4.139  0.00  0.00     0.210 C 
ENDBRANCH  31  35
BRANCH  33  37
ATOM     37  O   UNL d   1      27.335 -14.887  -5.835  0.00  0.00    -0.356 OA
ATOM     38  C   UNL d   1      28.711 -14.817  -6.187  0.00  0.00     0.210 C 
ENDBRANCH  33  37
ENDBRANCH   1  29
TORSDOF 7
ENDMDL
MODEL 4
REMARK VINA RESULT:    -8.845      1.655      2.229
REMARK INTER + INTRA:         -13.335
REMARK INTER:                 -10.933
REMARK INTRA:                  -2.401
REMARK CONF_INDEPENDENT:        2.088
REMARK UNBOUND:                -2.401
REMARK  7 active torsions:
REMARK  status: ('A' for Active; 'I' for Inactive)
REMARK    1  A    between atoms: O_2  and  C_3 
REMARK    2  A    between atoms: C_5  and  O_6 
REMARK    3  A    between atoms: C_9  and  C_10 
REMARK       I    between atoms: C_10  and  N_12 
REMARK       I    between atoms: C_13  and  N_14 
REMARK       I    between atoms: C_13  and  N_26 
REMARK    4  A    between atoms: N_14  and  C_15 
REMARK    5  A    between atoms: C_15  and  C_16 
REMARK    6  A    between atoms: C_16  and  C_17 
REMARK    7  A    between atoms: N_26  and  C_27 
ROOT
ATOM      1  C   UNL d   1      26.950 -12.796  -0.200  0.00  0.00     0.294 C 
ATOM      2  O   UNL d   1      26.281 -12.218   0.642  0.00  0.00    -0.265 OA
ATOM      3  N   UNL d   1      27.976 -13.674   0.064  0.00  0.00    -0.023 NA
ATOM      4  C   UNL d   1      28.222 -14.004   1.296  0.00  0.00     0.704 C 
ATOM      5  N   UNL d   1      29.143 -14.990   1.525  0.00  0.00    -0.224 N 
ATOM      6  N   UNL d   1      27.587 -13.532   2.418  0.00  0.00    -0.190 N 
ATOM      7  H   UNL d   1      29.282 -15.251   2.493  0.00  0.00     0.177 HD
ATOM      8  H   UNL d   1      26.866 -12.828   2.220  0.00  0.00     0.184 HD
ENDROOT
BRANCH   5   9
ATOM      9  C   UNL d   1      30.110 -15.415   0.538  0.00  0.00     0.142 C 
BRANCH   9  10
ATOM     10  C   UNL d   1      29.673 -16.699  -0.145  0.00  0.00     0.057 C 
BRANCH  10  11
ATOM     11  C   UNL d   1      28.432 -16.623  -0.980  0.00  0.00    -0.048 A 
ATOM     12  C   UNL d   1      27.282 -17.094  -0.505  0.00  0.00    -0.006 A 
ATOM     13  C   UNL d   1      26.983 -17.706   0.739  0.00  0.00     0.014 A 
ATOM     14  C   UNL d   1      26.280 -16.912  -1.559  0.00  0.00     0.038 A 
ATOM     15  C   UNL d   1      25.757 -18.200   0.922  0.00  0.00     0.001 A 
ATOM     16  C   UNL d   1      24.716 -18.011  -0.076  0.00  0.00     0.002 A 
ATOM     17  C   UNL d   1      24.916 -17.414  -1.271  0.00  0.00     0.030 A 
ATOM     18  N   UNL d   1      26.781 -16.325  -2.580  0.00  0.00    -0.385 N 
ATOM     19  C   UNL d   1      28.242 -16.060  -2.359  0.00  0.00     0.155 A 
ATOM     20  H   UNL d   1      26.225 -16.079  -3.399  0.00  0.00     0.160 HD
ENDBRANCH  10  11
ENDBRANCH   9  10
ENDBRANCH   5   9
BRANCH   6  21
ATOM     21  C   UNL d   1      27.958 -13.560   3.778  0.00  0.00     0.055 A 
ATOM     22  C   UNL d   1      28.147 -14.827   4.373  0.00  0.00     0.032 A 
ATOM     23  C   UNL d   1      28.560 -14.952   5.702  0.00  0.00     0.026 A 
ATOM     24  C   UNL d   1      28.855 -13.809   6.432  0.00  0.00     0.034 A 
ATOM     25 CL   UNL d   1      29.516 -13.937   8.013  0.00  0.00    -0.084 Cl
ATOM     26  C   UNL d   1      28.641 -12.550   5.879  0.00  0.00     0.032 A 
ATOM     27  C   UNL d   1      28.158 -12.408   4.566  0.00  0.00    -0.033 A 
ATOM     28  C   UNL d   1      27.818 -11.017   4.101  0.00  0.00     0.050 C 
ENDBRANCH   6  21
BRANCH   1  29
ATOM     29  C   UNL d   1      26.653 -12.580  -1.647  0.00  0.00     0.040 A 
ATOM     30  C   UNL d   1      26.185 -13.674  -2.381  0.00  0.00     0.054 A 
ATOM     31  C   UNL d   1      25.771 -13.513  -3.700  0.00  0.00     0.071 A 
ATOM     32  C   UNL d   1      25.946 -12.273  -4.322  0.00  0.00     0.073 A 
ATOM     33  C   UNL d   1      26.439 -11.177  -3.604  0.00  0.00     0.071 A 
ATOM     34  C   UNL d   1      26.774 -11.325  -2.258  0.00  0.00     0.054 A 
BRANCH  31  35
ATOM     35  O   UNL d   1      25.154 -14.488  -4.439  0.00  0.00    -0.356 OA
ATOM     36  C   UNL d   1      25.992 -15.201  -5.353  0.00  0.00     0.210 C 
ENDBRANCH  31  35
BRANCH  33  37
ATOM     37  O   UNL d   1      26.427  -9.973  -4.255  0.00  0.00    -0.356 OA
ATOM     38  C   UNL d   1      25.236  -9.211  -4.102  0.00  0.00     0.210 C 
ENDBRANCH  33  37
ENDBRANCH   1  29
TORSDOF 7
ENDMDL
MODEL 5
REMARK VINA RESULT:    -8.703      1.608      2.675
REMARK INTER + INTRA:         -13.261
REMARK INTER:                 -10.791
REMARK INTRA:                  -2.470
REMARK CONF_INDEPENDENT:        2.088
REMARK UNBOUND:                -2.470
REMARK  7 active torsions:
REMARK  status: ('A' for Active; 'I' for Inactive)
REMARK    1  A    between atoms: O_2  and  C_3 
REMARK    2  A    between atoms: C_5  and  O_6 
REMARK    3  A    between atoms: C_9  and  C_10 
REMARK       I    between atoms: C_10  and  N_12 
REMARK       I    between atoms: C_13  and  N_14 
REMARK       I    between atoms: C_13  and  N_26 
REMARK    4  A    between atoms: N_14  and  C_15 
REMARK    5  A    between atoms: C_15  and  C_16 
REMARK    6  A    between atoms: C_16  and  C_17 
REMARK    7  A    between atoms: N_26  and  C_27 
ROOT
ATOM      1  C   UNL d   1      26.912 -12.938  -0.167  0.00  0.00     0.294 C 
ATOM      2  O   UNL d   1      26.280 -12.329   0.682  0.00  0.00    -0.265 OA
ATOM      3  N   UNL d   1      27.928 -13.831   0.085  0.00  0.00    -0.023 NA
ATOM      4  C   UNL d   1      28.206 -14.139   1.315  0.00  0.00     0.704 C 
ATOM      5  N   UNL d   1      29.114 -15.139   1.537  0.00  0.00    -0.224 N 
ATOM      6  N   UNL d   1      27.615 -13.632   2.445  0.00  0.00    -0.190 N 
ATOM      7  H   UNL d   1      29.278 -15.382   2.506  0.00  0.00     0.177 HD
ATOM      8  H   UNL d   1      26.902 -12.918   2.255  0.00  0.00     0.184 HD
ENDROOT
BRANCH   5   9
ATOM      9  C   UNL d   1      30.042 -15.604   0.531  0.00  0.00     0.142 C 
BRANCH   9  10
ATOM     10  C   UNL d   1      29.536 -16.866  -0.145  0.00  0.00     0.057 C 
BRANCH  10  11
ATOM     11  C   UNL d   1      28.319 -16.721  -1.007  0.00  0.00    -0.048 A 
ATOM     12  C   UNL d   1      27.138 -17.146  -0.565  0.00  0.00    -0.006 A 
ATOM     13  C   UNL d   1      26.783 -17.760   0.662  0.00  0.00     0.014 A 
ATOM     14  C   UNL d   1      26.170 -16.903  -1.638  0.00  0.00     0.038 A 
ATOM     15  C   UNL d   1      25.532 -18.200   0.811  0.00  0.00     0.001 A 
ATOM     16  C   UNL d   1      24.523 -17.950  -0.207  0.00  0.00     0.002 A 
ATOM     17  C   UNL d   1      24.778 -17.345  -1.388  0.00  0.00     0.030 A 
ATOM     18  N   UNL d   1      26.721 -16.325  -2.639  0.00  0.00    -0.385 N 
ATOM     19  C   UNL d   1      28.187 -16.131  -2.381  0.00  0.00     0.155 A 
ATOM     20  H   UNL d   1      26.196 -16.042  -3.466  0.00  0.00     0.160 HD
ENDBRANCH  10  11
ENDBRANCH   9  10
ENDBRANCH   5   9
BRANCH   6  21
ATOM     21  C   UNL d   1      28.027 -13.639   3.794  0.00  0.00     0.055 A 
ATOM     22  C   UNL d   1      28.155 -14.894   4.427  0.00  0.00     0.032 A 
ATOM     23  C   UNL d   1      28.602 -15.003   5.747  0.00  0.00     0.026 A 
ATOM     24  C   UNL d   1      28.992 -13.858   6.427  0.00  0.00     0.034 A 
ATOM     25 CL   UNL d   1      29.695 -13.975   7.991  0.00  0.00    -0.084 Cl
ATOM     26  C   UNL d   1      28.841 -12.606   5.837  0.00  0.00     0.032 A 
ATOM     27  C   UNL d   1      28.325 -12.476   4.535  0.00  0.00    -0.033 A 
ATOM     28  C   UNL d   1      28.060 -11.082   4.032  0.00  0.00     0.050 C 
ENDBRANCH   6  21
BRANCH   1  29
ATOM     29  C   UNL d   1      26.574 -12.746  -1.608  0.00  0.00     0.040 A 
ATOM     30  C   UNL d   1      26.976 -11.551  -2.213  0.00  0.00     0.054 A 
ATOM     31  C   UNL d   1      26.804 -11.360  -3.581  0.00  0.00     0.071 A 
ATOM     32  C   UNL d   1      26.113 -12.323  -4.320  0.00  0.00     0.073 A 
ATOM     33  C   UNL d   1      25.682 -13.512  -3.720  0.00  0.00     0.071 A 
ATOM     34  C   UNL d   1      25.931 -13.734  -2.365  0.00  0.00     0.054 A 
BRANCH  31  35
ATOM     35  O   UNL d   1      27.309 -10.295  -4.280  0.00  0.00    -0.356 OA
ATOM     36  C   UNL d   1      26.555  -9.888  -5.424  0.00  0.00     0.210 C 
ENDBRANCH  31  35
BRANCH  33  37
ATOM     37  O   UNL d   1      25.155 -14.457  -4.558  0.00  0.00    -0.356 OA
ATOM     38  C   UNL d   1      26.095 -15.121  -5.395  0.00  0.00     0.210 C 
ENDBRANCH  33  37
ENDBRANCH   1  29
TORSDOF 7
ENDMDL
MODEL 6
REMARK VINA RESULT:    -8.472      3.148      6.426
REMARK INTER + INTRA:         -12.375
REMARK INTER:                 -10.560
REMARK INTRA:                  -1.815
REMARK CONF_INDEPENDENT:        2.088
REMARK UNBOUND:                -1.815
REMARK  7 active torsions:
REMARK  status: ('A' for Active; 'I' for Inactive)
REMARK    1  A    between atoms: O_2  and  C_3 
REMARK    2  A    between atoms: C_5  and  O_6 
REMARK    3  A    between atoms: C_9  and  C_10 
REMARK       I    between atoms: C_10  and  N_12 
REMARK       I    between atoms: C_13  and  N_14 
REMARK       I    between atoms: C_13  and  N_26 
REMARK    4  A    between atoms: N_14  and  C_15 
REMARK    5  A    between atoms: C_15  and  C_16 
REMARK    6  A    between atoms: C_16  and  C_17 
REMARK    7  A    between atoms: N_26  and  C_27 
ROOT
ATOM      1  C   UNL d   1      27.633 -17.150  -0.148  0.00  0.00     0.294 C 
ATOM      2  O   UNL d   1      28.147 -18.216   0.152  0.00  0.00    -0.265 OA
ATOM      3  N   UNL d   1      28.290 -15.944  -0.232  0.00  0.00    -0.023 NA
ATOM      4  C   UNL d   1      29.579 -15.916  -0.069  0.00  0.00     0.704 C 
ATOM      5  N   UNL d   1      30.230 -14.735  -0.306  0.00  0.00    -0.224 N 
ATOM      6  N   UNL d   1      30.394 -16.978   0.231  0.00  0.00    -0.190 N 
ATOM      7  H   UNL d   1      31.237 -14.758  -0.209  0.00  0.00     0.177 HD
ATOM      8  H   UNL d   1      29.891 -17.864   0.357  0.00  0.00     0.184 HD
ENDROOT
BRANCH   5   9
ATOM      9  C   UNL d   1      29.558 -13.456  -0.355  0.00  0.00     0.142 C 
BRANCH   9  10
ATOM     10  C   UNL d   1      28.874 -13.141   0.964  0.00  0.00     0.057 C 
BRANCH  10  11
ATOM     11  C   UNL d   1      29.700 -13.308   2.202  0.00  0.00    -0.048 A 
ATOM     12  C   UNL d   1      29.159 -13.844   3.294  0.00  0.00    -0.006 A 
ATOM     13  C   UNL d   1      27.845 -14.321   3.529  0.00  0.00     0.014 A 
ATOM     14  C   UNL d   1      30.195 -13.834   4.330  0.00  0.00     0.038 A 
ATOM     15  C   UNL d   1      27.524 -14.708   4.765  0.00  0.00     0.001 A 
ATOM     16  C   UNL d   1      28.525 -14.755   5.819  0.00  0.00     0.002 A 
ATOM     17  C   UNL d   1      29.803 -14.345   5.664  0.00  0.00     0.030 A 
ATOM     18  N   UNL d   1      31.300 -13.371   3.878  0.00  0.00    -0.385 N 
ATOM     19  C   UNL d   1      31.140 -12.958   2.444  0.00  0.00     0.155 A 
ATOM     20  H   UNL d   1      32.147 -13.323   4.444  0.00  0.00     0.160 HD
ENDBRANCH  10  11
ENDBRANCH   9  10
ENDBRANCH   5   9
BRANCH   6  21
ATOM     21  C   UNL d   1      31.710 -17.027   0.735  0.00  0.00     0.055 A 
ATOM     22  C   UNL d   1      32.061 -16.083   1.725  0.00  0.00     0.032 A 
ATOM     23  C   UNL d   1      33.328 -16.084   2.315  0.00  0.00     0.026 A 
ATOM     24  C   UNL d   1      34.237 -17.074   1.970  0.00  0.00     0.034 A 
ATOM     25 CL   UNL d   1      35.740 -17.197   2.795  0.00  0.00    -0.084 Cl
ATOM     26  C   UNL d   1      33.927 -17.993   0.971  0.00  0.00     0.032 A 
ATOM     27  C   UNL d   1      32.683 -17.960   0.318  0.00  0.00    -0.033 A 
ATOM     28  C   UNL d   1      32.488 -18.894  -0.847  0.00  0.00     0.050 C 
ENDBRANCH   6  21
BRANCH   1  29
ATOM     29  C   UNL d   1      26.178 -17.107  -0.481  0.00  0.00     0.040 A 
ATOM     30  C   UNL d   1      25.711 -16.000  -1.195  0.00  0.00     0.054 A 
ATOM     31  C   UNL d   1      24.395 -15.955  -1.646  0.00  0.00     0.071 A 
ATOM     32  C   UNL d   1      23.512 -16.971  -1.269  0.00  0.00     0.073 A 
ATOM     33  C   UNL d   1      23.963 -18.072  -0.532  0.00  0.00     0.071 A 
ATOM     34  C   UNL d   1      25.304 -18.151  -0.154  0.00  0.00     0.054 A 
BRANCH  31  35
ATOM     35  O   UNL d   1      23.899 -14.990  -2.482  0.00  0.00    -0.356 OA
ATOM     36  C   UNL d   1      24.873 -14.188  -3.155  0.00  0.00     0.210 C 
ENDBRANCH  31  35
BRANCH  33  37
ATOM     37  O   UNL d   1      23.062 -19.087  -0.348  0.00  0.00    -0.356 OA
ATOM     38  C   UNL d   1      21.734 -18.805  -0.770  0.00  0.00     0.210 C 
ENDBRANCH  33  37
ENDBRANCH   1  29
TORSDOF 7
ENDMDL
MODEL 7
REMARK VINA RESULT:    -8.362      3.747      7.922
REMARK INTER + INTRA:         -12.606
REMARK INTER:                 -10.450
REMARK INTRA:                  -2.156
REMARK CONF_INDEPENDENT:        2.088
REMARK UNBOUND:                -2.156
REMARK  7 active torsions:
REMARK  status: ('A' for Active; 'I' for Inactive)
REMARK    1  A    between atoms: O_2  and  C_3 
REMARK    2  A    between atoms: C_5  and  O_6 
REMARK    3  A    between atoms: C_9  and  C_10 
REMARK       I    between atoms: C_10  and  N_12 
REMARK       I    between atoms: C_13  and  N_14 
REMARK       I    between atoms: C_13  and  N_26 
REMARK    4  A    between atoms: N_14  and  C_15 
REMARK    5  A    between atoms: C_15  and  C_16 
REMARK    6  A    between atoms: C_16  and  C_17 
REMARK    7  A    between atoms: N_26  and  C_27 
ROOT
ATOM      1  C   UNL d   1      25.157 -14.249  -2.824  0.00  0.00     0.294 C 
ATOM      2  O   UNL d   1      24.405 -14.089  -3.773  0.00  0.00    -0.265 OA
ATOM      3  N   UNL d   1      26.187 -13.406  -2.475  0.00  0.00    -0.023 NA
ATOM      4  C   UNL d   1      26.346 -12.298  -3.134  0.00  0.00     0.704 C 
ATOM      5  N   UNL d   1      27.278 -11.406  -2.675  0.00  0.00    -0.224 N 
ATOM      6  N   UNL d   1      25.609 -11.865  -4.208  0.00  0.00    -0.190 N 
ATOM      7  H   UNL d   1      27.349 -10.536  -3.187  0.00  0.00     0.177 HD
ATOM      8  H   UNL d   1      24.883 -12.527  -4.506  0.00  0.00     0.184 HD
ENDROOT
BRANCH   5   9
ATOM      9  C   UNL d   1      28.334 -11.767  -1.756  0.00  0.00     0.142 C 
BRANCH   9  10
ATOM     10  C   UNL d   1      27.837 -11.770  -0.320  0.00  0.00     0.057 C 
BRANCH  10  11
ATOM     11  C   UNL d   1      28.006 -13.048   0.443  0.00  0.00    -0.048 A 
ATOM     12  C   UNL d   1      27.825 -13.063   1.761  0.00  0.00    -0.006 A 
ATOM     13  C   UNL d   1      27.480 -12.017   2.653  0.00  0.00     0.014 A 
ATOM     14  C   UNL d   1      28.097 -14.431   2.212  0.00  0.00     0.038 A 
ATOM     15  C   UNL d   1      27.476 -12.277   3.962  0.00  0.00     0.001 A 
ATOM     16  C   UNL d   1      27.700 -13.626   4.459  0.00  0.00     0.002 A 
ATOM     17  C   UNL d   1      28.006 -14.679   3.670  0.00  0.00     0.030 A 
ATOM     18  N   UNL d   1      28.373 -15.199   1.226  0.00  0.00    -0.385 N 
ATOM     19  C   UNL d   1      28.361 -14.418  -0.057  0.00  0.00     0.155 A 
ATOM     20  H   UNL d   1      28.553 -16.196   1.341  0.00  0.00     0.160 HD
ENDBRANCH  10  11
ENDBRANCH   9  10
ENDBRANCH   5   9
BRANCH   6  21
ATOM     21  C   UNL d   1      25.872 -10.877  -5.179  0.00  0.00     0.055 A 
ATOM     22  C   UNL d   1      26.441 -11.303  -6.400  0.00  0.00     0.032 A 
ATOM     23  C   UNL d   1      26.694 -10.402  -7.438  0.00  0.00     0.026 A 
ATOM     24  C   UNL d   1      26.317  -9.074  -7.292  0.00  0.00     0.034 A 
ATOM     25 CL   UNL d   1      26.469  -7.980  -8.608  0.00  0.00    -0.084 Cl
ATOM     26  C   UNL d   1      25.788  -8.625  -6.085  0.00  0.00     0.032 A 
ATOM     27  C   UNL d   1      25.595  -9.505  -5.006  0.00  0.00    -0.033 A 
ATOM     28  C   UNL d   1      25.157  -8.907  -3.696  0.00  0.00     0.050 C 
ENDBRANCH   6  21
BRANCH   1  29
ATOM     29  C   UNL d   1      24.968 -15.429  -1.930  0.00  0.00     0.040 A 
ATOM     30  C   UNL d   1      26.106 -15.969  -1.324  0.00  0.00     0.054 A 
ATOM     31  C   UNL d   1      25.987 -16.989  -0.384  0.00  0.00     0.071 A 
ATOM     32  C   UNL d   1      24.730 -17.551  -0.145  0.00  0.00     0.073 A 
ATOM     33  C   UNL d   1      23.587 -17.035  -0.766  0.00  0.00     0.071 A 
ATOM     34  C   UNL d   1      23.703 -15.958  -1.645  0.00  0.00     0.054 A 
BRANCH  31  35
ATOM     35  O   UNL d   1      27.027 -17.465   0.371  0.00  0.00    -0.356 OA
ATOM     36  C   UNL d   1      27.031 -18.876   0.606  0.00  0.00     0.210 C 
ENDBRANCH  31  35
BRANCH  33  37
ATOM     37  O   UNL d   1      22.388 -17.549  -0.349  0.00  0.00    -0.356 OA
ATOM     38  C   UNL d   1      22.305 -18.969  -0.341  0.00  0.00     0.210 C 
ENDBRANCH  33  37
ENDBRANCH   1  29
TORSDOF 7
ENDMDL
MODEL 8
REMARK VINA RESULT:    -7.922      2.963      4.721
REMARK INTER + INTRA:         -12.387
REMARK INTER:                 -10.010
REMARK INTRA:                  -2.377
REMARK CONF_INDEPENDENT:        2.088
REMARK UNBOUND:                -2.377
REMARK  7 active torsions:
REMARK  status: ('A' for Active; 'I' for Inactive)
REMARK    1  A    between atoms: O_2  and  C_3 
REMARK    2  A    between atoms: C_5  and  O_6 
REMARK    3  A    between atoms: C_9  and  C_10 
REMARK       I    between atoms: C_10  and  N_12 
REMARK       I    between atoms: C_13  and  N_14 
REMARK       I    between atoms: C_13  and  N_26 
REMARK    4  A    between atoms: N_14  and  C_15 
REMARK    5  A    between atoms: C_15  and  C_16 
REMARK    6  A    between atoms: C_16  and  C_17 
REMARK    7  A    between atoms: N_26  and  C_27 
ROOT
ATOM      1  C   UNL d   1      29.686 -16.583  -2.879  0.00  0.00     0.294 C 
ATOM      2  O   UNL d   1      30.455 -17.477  -3.196  0.00  0.00    -0.265 OA
ATOM      3  N   UNL d   1      29.504 -16.107  -1.601  0.00  0.00    -0.023 NA
ATOM      4  C   UNL d   1      30.255 -16.563  -0.645  0.00  0.00     0.704 C 
ATOM      5  N   UNL d   1      30.160 -15.970   0.585  0.00  0.00    -0.224 N 
ATOM      6  N   UNL d   1      31.220 -17.534  -0.747  0.00  0.00    -0.190 N 
ATOM      7  H   UNL d   1      30.787 -16.322   1.297  0.00  0.00     0.177 HD
ATOM      8  H   UNL d   1      31.308 -17.932  -1.689  0.00  0.00     0.184 HD
ENDROOT
BRANCH   5   9
ATOM      9  C   UNL d   1      29.042 -15.144   0.982  0.00  0.00     0.142 C 
BRANCH   9  10
ATOM     10  C   UNL d   1      27.766 -15.960   1.095  0.00  0.00     0.057 C 
BRANCH  10  11
ATOM     11  C   UNL d   1      26.707 -15.692   0.070  0.00  0.00    -0.048 A 
ATOM     12  C   UNL d   1      25.735 -16.580  -0.129  0.00  0.00    -0.006 A 
ATOM     13  C   UNL d   1      25.494 -17.832   0.491  0.00  0.00     0.014 A 
ATOM     14  C   UNL d   1      24.893 -16.053  -1.206  0.00  0.00     0.038 A 
ATOM     15  C   UNL d   1      24.501 -18.589   0.020  0.00  0.00     0.001 A 
ATOM     16  C   UNL d   1      23.612 -18.097  -1.021  0.00  0.00     0.002 A 
ATOM     17  C   UNL d   1      23.760 -16.905  -1.639  0.00  0.00     0.030 A 
ATOM     18  N   UNL d   1      25.300 -14.903  -1.594  0.00  0.00    -0.385 N 
ATOM     19  C   UNL d   1      26.532 -14.506  -0.834  0.00  0.00     0.155 A 
ATOM     20  H   UNL d   1      24.815 -14.363  -2.312  0.00  0.00     0.160 HD
ENDBRANCH  10  11
ENDBRANCH   9  10
ENDBRANCH   5   9
BRANCH   6  21
ATOM     21  C   UNL d   1      31.856 -18.320   0.235  0.00  0.00     0.055 A 
ATOM     22  C   UNL d   1      32.476 -17.643   1.307  0.00  0.00     0.032 A 
ATOM     23  C   UNL d   1      33.092 -18.340   2.351  0.00  0.00     0.026 A 
ATOM     24  C   UNL d   1      33.033 -19.726   2.368  0.00  0.00     0.034 A 
ATOM     25 CL   UNL d   1      33.638 -20.603   3.717  0.00  0.00    -0.084 Cl
ATOM     26  C   UNL d   1      32.459 -20.417   1.305  0.00  0.00     0.032 A 
ATOM     27  C   UNL d   1      31.899 -19.730   0.213  0.00  0.00    -0.033 A 
ATOM     28  C   UNL d   1      31.434 -20.554  -0.958  0.00  0.00     0.050 C 
ENDBRANCH   6  21
BRANCH   1  29
ATOM     29  C   UNL d   1      28.874 -15.907  -3.933  0.00  0.00     0.040 A 
ATOM     30  C   UNL d   1      27.526 -15.663  -3.653  0.00  0.00     0.054 A 
ATOM     31  C   UNL d   1      26.744 -14.927  -4.539  0.00  0.00     0.071 A 
ATOM     32  C   UNL d   1      27.287 -14.543  -5.768  0.00  0.00     0.073 A 
ATOM     33  C   UNL d   1      28.628 -14.804  -6.070  0.00  0.00     0.071 A 
ATOM     34  C   UNL d   1      29.430 -15.470  -5.142  0.00  0.00     0.054 A 
BRANCH  31  35
ATOM     35  O   UNL d   1      25.467 -14.508  -4.274  0.00  0.00    -0.356 OA
ATOM     36  C   UNL d   1      25.177 -13.147  -4.604  0.00  0.00     0.210 C 
ENDBRANCH  31  35
BRANCH  33  37
ATOM     37  O   UNL d   1      29.107 -14.252  -7.228  0.00  0.00    -0.356 OA
ATOM     38  C   UNL d   1      28.539 -12.997  -7.583  0.00  0.00     0.210 C 
ENDBRANCH  33  37
ENDBRANCH   1  29
TORSDOF 7
ENDMDL
MODEL 9
REMARK VINA RESULT:    -7.558      4.428      8.230
REMARK INTER + INTRA:         -12.200
REMARK INTER:                  -9.646
REMARK INTRA:                  -2.554
REMARK CONF_INDEPENDENT:        2.088
REMARK UNBOUND:                -2.554
REMARK  7 active torsions:
REMARK  status: ('A' for Active; 'I' for Inactive)
REMARK    1  A    between atoms: O_2  and  C_3 
REMARK    2  A    between atoms: C_5  and  O_6 
REMARK    3  A    between atoms: C_9  and  C_10 
REMARK       I    between atoms: C_10  and  N_12 
REMARK       I    between atoms: C_13  and  N_14 
REMARK       I    between atoms: C_13  and  N_26 
REMARK    4  A    between atoms: N_14  and  C_15 
REMARK    5  A    between atoms: C_15  and  C_16 
REMARK    6  A    between atoms: C_16  and  C_17 
REMARK    7  A    between atoms: N_26  and  C_27 
ROOT
ATOM      1  C   UNL d   1      25.106 -14.350  -2.906  0.00  0.00     0.294 C 
ATOM      2  O   UNL d   1      24.410 -14.194  -3.896  0.00  0.00    -0.265 OA
ATOM      3  N   UNL d   1      26.068 -13.473  -2.463  0.00  0.00    -0.023 NA
ATOM      4  C   UNL d   1      26.216 -12.337  -3.075  0.00  0.00     0.704 C 
ATOM      5  N   UNL d   1      27.072 -11.419  -2.528  0.00  0.00    -0.224 N 
ATOM      6  N   UNL d   1      25.530 -11.902  -4.181  0.00  0.00    -0.190 N 
ATOM      7  H   UNL d   1      27.133 -10.529  -3.007  0.00  0.00     0.177 HD
ATOM      8  H   UNL d   1      24.858 -12.587  -4.547  0.00  0.00     0.184 HD
ENDROOT
BRANCH   5   9
ATOM      9  C   UNL d   1      28.082 -11.761  -1.552  0.00  0.00     0.142 C 
BRANCH   9  10
ATOM     10  C   UNL d   1      29.383 -12.167  -2.224  0.00  0.00     0.057 C 
BRANCH  10  11
ATOM     11  C   UNL d   1      29.437 -12.030  -3.714  0.00  0.00    -0.048 A 
ATOM     12  C   UNL d   1      29.052 -13.043  -4.488  0.00  0.00    -0.006 A 
ATOM     13  C   UNL d   1      28.566 -14.329  -4.144  0.00  0.00     0.014 A 
ATOM     14  C   UNL d   1      29.259 -12.618  -5.876  0.00  0.00     0.038 A 
ATOM     15  C   UNL d   1      28.359 -15.210  -5.125  0.00  0.00     0.001 A 
ATOM     16  C   UNL d   1      28.510 -14.827  -6.520  0.00  0.00     0.002 A 
ATOM     17  C   UNL d   1      28.941 -13.613  -6.927  0.00  0.00     0.030 A 
ATOM     18  N   UNL d   1      29.689 -11.414  -5.934  0.00  0.00    -0.385 N 
ATOM     19  C   UNL d   1      29.874 -10.863  -4.550  0.00  0.00     0.155 A 
ATOM     20  H   UNL d   1      29.855 -10.934  -6.819  0.00  0.00     0.160 HD
ENDBRANCH  10  11
ENDBRANCH   9  10
ENDBRANCH   5   9
BRANCH   6  21
ATOM     21  C   UNL d   1      25.807 -10.871  -5.101  0.00  0.00     0.055 A 
ATOM     22  C   UNL d   1      26.352 -11.244  -6.350  0.00  0.00     0.032 A 
ATOM     23  C   UNL d   1      26.616 -10.295  -7.342  0.00  0.00     0.026 A 
ATOM     24  C   UNL d   1      26.274  -8.968  -7.121  0.00  0.00     0.034 A 
ATOM     25 CL   UNL d   1      26.438  -7.809  -8.379  0.00  0.00    -0.084 Cl
ATOM     26  C   UNL d   1      25.769  -8.571  -5.885  0.00  0.00     0.032 A 
ATOM     27  C   UNL d   1      25.565  -9.503  -4.853  0.00  0.00    -0.033 A 
ATOM     28  C   UNL d   1      25.157  -8.966  -3.507  0.00  0.00     0.050 C 
ENDBRANCH   6  21
BRANCH   1  29
ATOM     29  C   UNL d   1      24.917 -15.568  -2.063  0.00  0.00     0.040 A 
ATOM     30  C   UNL d   1      26.063 -16.261  -1.662  0.00  0.00     0.054 A 
ATOM     31  C   UNL d   1      25.968 -17.329  -0.775  0.00  0.00     0.071 A 
ATOM     32  C   UNL d   1      24.703 -17.781  -0.388  0.00  0.00     0.073 A 
ATOM     33  C   UNL d   1      23.547 -17.111  -0.804  0.00  0.00     0.071 A 
ATOM     34  C   UNL d   1      23.654 -15.989  -1.627  0.00  0.00     0.054 A 
BRANCH  31  35
ATOM     35  O   UNL d   1      27.045 -17.959  -0.209  0.00  0.00    -0.356 OA
ATOM     36  C   UNL d   1      28.251 -17.195  -0.145  0.00  0.00     0.210 C 
ENDBRANCH  31  35
BRANCH  33  37
ATOM     37  O   UNL d   1      22.369 -17.533  -0.248  0.00  0.00    -0.356 OA
ATOM     38  C   UNL d   1      21.915 -18.810  -0.680  0.00  0.00     0.210 C 
ENDBRANCH  33  37
ENDBRANCH   1  29
TORSDOF 7
ENDMDL
