MODEL 1
REMARK VINA RESULT:   -32.566      0.000      0.000
REMARK INTER + INTRA:         -35.127
REMARK INTER:                 -34.057
REMARK INTRA:                  -1.070
REMARK CONF_INDEPENDENT:        1.492
REMARK UNBOUND:                -1.070
REMARK  5 active torsions:
REMARK  status: ('A' for Active; 'I' for Inactive)
REMARK    1  A    between atoms: C_4  and  O_5 
REMARK    2  A    between atoms: O_5  and  C_6 
REMARK    3  A    between atoms: C_16  and  N_17 
REMARK       I    between atoms: N_17  and  C_18 
REMARK    4  A    between atoms: C_18  and  C_20 
REMARK    5  A    between atoms: C_24  and  N_25 
REMARK       I    between atoms: N_25  and  C_26 
REMARK       I    between atoms: C_26  and  N_27 
ROOT
ATOM      1  C   UNL d   1      24.571 -17.187  -0.312  0.00  0.00     0.076 A 
ATOM      2  C   UNL d   1      24.386 -18.570  -0.269  0.00  0.00     0.039 A 
ATOM      3  C   UNL d   1      23.127 -19.116  -0.529  0.00  0.00     0.025 A 
ATOM      4  C   UNL d   1      22.032 -18.279  -0.769  0.00  0.00     0.044 A 
ATOM      5  C   UNL d   1      20.736 -18.853  -1.038  0.00  0.00     0.099 C 
ATOM      6  N   UNL d   1      19.709 -19.325  -1.256  0.00  0.00    -0.191 NA
ATOM      7  C   UNL d   1      22.207 -16.891  -0.744  0.00  0.00     0.025 A 
ATOM      8  C   UNL d   1      23.476 -16.343  -0.510  0.00  0.00     0.039 A 
ENDROOT
BRANCH   1   9
ATOM      9  O   UNL d   1      25.811 -16.625  -0.126  0.00  0.00    -0.311 OA
BRANCH   9  10
ATOM     10  C   UNL d   1      26.613 -16.394  -1.228  0.00  0.00     0.076 C 
ATOM     11  C   UNL d   1      25.997 -15.756  -2.301  0.00  0.00     0.046 C 
ATOM     12  C   UNL d   1      26.675 -15.522  -3.518  0.00  0.00    -0.033 C 
ATOM     13  C   UNL d   1      25.834 -14.961  -4.620  0.00  0.00     0.050 C 
ATOM     14  C   UNL d   1      28.060 -15.787  -3.616  0.00  0.00     0.041 C 
ATOM     15  C   UNL d   1      28.672 -16.458  -2.537  0.00  0.00     0.033 C 
ATOM     16  C   UNL d   1      27.947 -16.773  -1.371  0.00  0.00     0.039 C 
BRANCH  14  17
ATOM     17  N   UNL d   1      28.901 -15.366  -4.700  0.00  0.00    -0.322 N 
ATOM     18  C   UNL d   1      30.263 -15.626  -4.916  0.00  0.00     0.256 C 
ATOM     19  O   UNL d   1      31.049 -14.693  -5.065  0.00  0.00    -0.267 OA
ATOM     20  H   UNL d   1      28.552 -14.577  -5.239  0.00  0.00     0.169 HD
BRANCH  18  21
ATOM     21  C   UNL d   1      30.769 -17.057  -5.010  0.00  0.00     0.034 C 
ATOM     22  C   UNL d   1      30.861 -17.894  -3.899  0.00  0.00     0.017 C 
ATOM     23  C   UNL d   1      30.963 -19.287  -4.100  0.00  0.00     0.003 C 
ATOM     24  C   UNL d   1      30.886 -19.856  -5.398  0.00  0.00     0.029 C 
ATOM     25  C   UNL d   1      30.749 -19.022  -6.515  0.00  0.00     0.037 C 
ATOM     26  C   UNL d   1      30.832 -17.649  -6.278  0.00  0.00     0.046 C 
BRANCH  25  27
ATOM     27  N   UNL d   1      30.402 -19.535  -7.800  0.00  0.00    -0.309 N 
ATOM     28  C   UNL d   1      31.007 -19.476  -9.032  0.00  0.00     0.318 C 
ATOM     29  N   UNL d   1      32.158 -18.797  -9.221  0.00  0.00    -0.352 N 
ATOM     30  O   UNL d   1      30.530 -20.073  -9.996  0.00  0.00    -0.247 OA
ATOM     31  H   UNL d   1      32.361 -17.958  -8.718  0.00  0.00     0.160 HD
ATOM     32  H   UNL d   1      32.473 -18.689 -10.176  0.00  0.00     0.160 HD
ATOM     33  H   UNL d   1      29.528 -20.049  -7.864  0.00  0.00     0.170 HD
ENDBRANCH  25  27
ENDBRANCH  18  21
ENDBRANCH  14  17
ENDBRANCH   9  10
ENDBRANCH   1   9
TORSDOF 5
ENDMDL
MODEL 2
REMARK VINA RESULT:   -32.486      1.929      2.443
REMARK INTER + INTRA:         -35.108
REMARK INTER:                 -33.977
REMARK INTRA:                  -1.131
REMARK CONF_INDEPENDENT:        1.492
REMARK UNBOUND:                -1.131
REMARK  5 active torsions:
REMARK  status: ('A' for Active; 'I' for Inactive)
REMARK    1  A    between atoms: C_4  and  O_5 
REMARK    2  A    between atoms: O_5  and  C_6 
REMARK    3  A    between atoms: C_16  and  N_17 
REMARK       I    between atoms: N_17  and  C_18 
REMARK    4  A    between atoms: C_18  and  C_20 
REMARK    5  A    between atoms: C_24  and  N_25 
REMARK       I    between atoms: N_25  and  C_26 
REMARK       I    between atoms: C_26  and  N_27 
ROOT
ATOM      1  C   UNL d   1      24.679 -17.173  -0.378  0.00  0.00     0.076 A 
ATOM      2  C   UNL d   1      24.498 -18.557  -0.331  0.00  0.00     0.039 A 
ATOM      3  C   UNL d   1      23.238 -19.107  -0.577  0.00  0.00     0.025 A 
ATOM      4  C   UNL d   1      22.139 -18.272  -0.808  0.00  0.00     0.044 A 
ATOM      5  C   UNL d   1      20.842 -18.850  -1.062  0.00  0.00     0.099 C 
ATOM      6  N   UNL d   1      19.814 -19.325  -1.269  0.00  0.00    -0.191 NA
ATOM      7  C   UNL d   1      22.311 -16.884  -0.786  0.00  0.00     0.025 A 
ATOM      8  C   UNL d   1      23.580 -16.333  -0.565  0.00  0.00     0.039 A 
ENDROOT
BRANCH   1   9
ATOM      9  O   UNL d   1      25.920 -16.608  -0.205  0.00  0.00    -0.311 OA
BRANCH   9  10
ATOM     10  C   UNL d   1      26.681 -16.311  -1.320  0.00  0.00     0.076 C 
ATOM     11  C   UNL d   1      26.010 -15.669  -2.357  0.00  0.00     0.046 C 
ATOM     12  C   UNL d   1      26.644 -15.372  -3.584  0.00  0.00    -0.033 C 
ATOM     13  C   UNL d   1      25.751 -14.816  -4.646  0.00  0.00     0.050 C 
ATOM     14  C   UNL d   1      28.036 -15.575  -3.725  0.00  0.00     0.041 C 
ATOM     15  C   UNL d   1      28.704 -16.249  -2.683  0.00  0.00     0.033 C 
ATOM     16  C   UNL d   1      28.025 -16.628  -1.509  0.00  0.00     0.039 C 
BRANCH  14  17
ATOM     17  N   UNL d   1      28.828 -15.087  -4.818  0.00  0.00    -0.322 N 
ATOM     18  C   UNL d   1      30.056 -15.564  -5.302  0.00  0.00     0.256 C 
ATOM     19  O   UNL d   1      31.021 -14.807  -5.376  0.00  0.00    -0.267 OA
ATOM     20  H   UNL d   1      28.621 -14.136  -5.114  0.00  0.00     0.169 HD
BRANCH  18  21
ATOM     21  C   UNL d   1      30.190 -17.002  -5.778  0.00  0.00     0.034 C 
ATOM     22  C   UNL d   1      30.696 -17.332  -7.035  0.00  0.00     0.017 C 
ATOM     23  C   UNL d   1      31.147 -18.649  -7.265  0.00  0.00     0.003 C 
ATOM     24  C   UNL d   1      31.179 -19.614  -6.225  0.00  0.00     0.029 C 
ATOM     25  C   UNL d   1      30.713 -19.275  -4.948  0.00  0.00     0.037 C 
ATOM     26  C   UNL d   1      30.114 -18.021  -4.819  0.00  0.00     0.046 C 
BRANCH  25  27
ATOM     27  N   UNL d   1      30.963 -20.100  -3.812  0.00  0.00    -0.309 N 
ATOM     28  C   UNL d   1      31.021 -21.460  -3.631  0.00  0.00     0.318 C 
ATOM     29  N   UNL d   1      30.780 -22.318  -4.645  0.00  0.00    -0.352 N 
ATOM     30  O   UNL d   1      31.330 -21.937  -2.540  0.00  0.00    -0.247 OA
ATOM     31  H   UNL d   1      30.112 -22.112  -5.359  0.00  0.00     0.160 HD
ATOM     32  H   UNL d   1      30.713 -23.298  -4.408  0.00  0.00     0.160 HD
ATOM     33  H   UNL d   1      31.128 -19.623  -2.930  0.00  0.00     0.170 HD
ENDBRANCH  25  27
ENDBRANCH  18  21
ENDBRANCH  14  17
ENDBRANCH   9  10
ENDBRANCH   1   9
TORSDOF 5
ENDMDL
MODEL 3
REMARK VINA RESULT:   -32.408      5.608      7.506
REMARK INTER + INTRA:         -35.240
REMARK INTER:                 -33.900
REMARK INTRA:                  -1.340
REMARK CONF_INDEPENDENT:        1.492
REMARK UNBOUND:                -1.340
REMARK  5 active torsions:
REMARK  status: ('A' for Active; 'I' for Inactive)
REMARK    1  A    between atoms: C_4  and  O_5 
REMARK    2  A    between atoms: O_5  and  C_6 
REMARK    3  A    between atoms: C_16  and  N_17 
REMARK       I    between atoms: N_17  and  C_18 
REMARK    4  A    between atoms: C_18  and  C_20 
REMARK    5  A    between atoms: C_24  and  N_25 
REMARK       I    between atoms: N_25  and  C_26 
REMARK       I    between atoms: C_26  and  N_27 
ROOT
ATOM      1  C   UNL d   1      24.847 -17.645  -0.732  0.00  0.00     0.076 A 
ATOM      2  C   UNL d   1      24.402 -18.957  -0.552  0.00  0.00     0.039 A 
ATOM      3  C   UNL d   1      23.037 -19.248  -0.610  0.00  0.00     0.025 A 
ATOM      4  C   UNL d   1      22.106 -18.219  -0.784  0.00  0.00     0.044 A 
ATOM      5  C   UNL d   1      20.698 -18.530  -0.844  0.00  0.00     0.099 C 
ATOM      6  N   UNL d   1      19.578 -18.793  -0.895  0.00  0.00    -0.191 NA
ATOM      7  C   UNL d   1      22.551 -16.897  -0.895  0.00  0.00     0.025 A 
ATOM      8  C   UNL d   1      23.921 -16.608  -0.863  0.00  0.00     0.039 A 
ENDROOT
BRANCH   1   9
ATOM      9  O   UNL d   1      26.187 -17.340  -0.745  0.00  0.00    -0.311 OA
BRANCH   9  10
ATOM     10  C   UNL d   1      26.604 -16.139  -0.203  0.00  0.00     0.076 C 
ATOM     11  C   UNL d   1      26.399 -15.014  -0.996  0.00  0.00     0.046 C 
ATOM     12  C   UNL d   1      26.842 -13.732  -0.599  0.00  0.00    -0.033 C 
ATOM     13  C   UNL d   1      26.678 -12.655  -1.623  0.00  0.00     0.050 C 
ATOM     14  C   UNL d   1      27.363 -13.537   0.700  0.00  0.00     0.041 C 
ATOM     15  C   UNL d   1      27.593 -14.684   1.488  0.00  0.00     0.033 C 
ATOM     16  C   UNL d   1      27.236 -15.966   1.028  0.00  0.00     0.039 C 
BRANCH  14  17
ATOM     17  N   UNL d   1      27.611 -12.257   1.300  0.00  0.00    -0.322 N 
ATOM     18  C   UNL d   1      27.497 -11.874   2.646  0.00  0.00     0.256 C 
ATOM     19  O   UNL d   1      26.775 -10.929   2.954  0.00  0.00    -0.267 OA
ATOM     20  H   UNL d   1      27.615 -11.469   0.656  0.00  0.00     0.169 HD
BRANCH  18  21
ATOM     21  C   UNL d   1      28.297 -12.592   3.722  0.00  0.00     0.034 C 
ATOM     22  C   UNL d   1      27.692 -13.231   4.803  0.00  0.00     0.017 C 
ATOM     23  C   UNL d   1      28.434 -14.182   5.536  0.00  0.00     0.003 C 
ATOM     24  C   UNL d   1      29.744 -14.563   5.143  0.00  0.00     0.029 C 
ATOM     25  C   UNL d   1      30.339 -13.955   4.030  0.00  0.00     0.037 C 
ATOM     26  C   UNL d   1      29.636 -12.898   3.450  0.00  0.00     0.046 C 
BRANCH  25  27
ATOM     27  N   UNL d   1      31.525 -14.475   3.433  0.00  0.00    -0.309 N 
ATOM     28  C   UNL d   1      31.783 -15.094   2.234  0.00  0.00     0.318 C 
ATOM     29  N   UNL d   1      30.797 -15.360   1.352  0.00  0.00    -0.352 N 
ATOM     30  O   UNL d   1      32.932 -15.395   1.915  0.00  0.00    -0.247 OA
ATOM     31  H   UNL d   1      29.875 -15.602   1.652  0.00  0.00     0.160 HD
ATOM     32  H   UNL d   1      31.039 -15.932   0.554  0.00  0.00     0.160 HD
ATOM     33  H   UNL d   1      32.380 -14.401   3.978  0.00  0.00     0.170 HD
ENDBRANCH  25  27
ENDBRANCH  18  21
ENDBRANCH  14  17
ENDBRANCH   9  10
ENDBRANCH   1   9
TORSDOF 5
ENDMDL
MODEL 4
REMARK VINA RESULT:   -32.242      3.748      6.336
REMARK INTER + INTRA:         -34.851
REMARK INTER:                 -33.733
REMARK INTRA:                  -1.117
REMARK CONF_INDEPENDENT:        1.492
REMARK UNBOUND:                -1.117
REMARK  5 active torsions:
REMARK  status: ('A' for Active; 'I' for Inactive)
REMARK    1  A    between atoms: C_4  and  O_5 
REMARK    2  A    between atoms: O_5  and  C_6 
REMARK    3  A    between atoms: C_16  and  N_17 
REMARK       I    between atoms: N_17  and  C_18 
REMARK    4  A    between atoms: C_18  and  C_20 
REMARK    5  A    between atoms: C_24  and  N_25 
REMARK       I    between atoms: N_25  and  C_26 
REMARK       I    between atoms: C_26  and  N_27 
ROOT
ATOM      1  C   UNL d   1      24.613 -17.216  -0.378  0.00  0.00     0.076 A 
ATOM      2  C   UNL d   1      24.426 -18.600  -0.358  0.00  0.00     0.039 A 
ATOM      3  C   UNL d   1      23.157 -19.138  -0.584  0.00  0.00     0.025 A 
ATOM      4  C   UNL d   1      22.057 -18.293  -0.766  0.00  0.00     0.044 A 
ATOM      5  C   UNL d   1      20.750 -18.859  -0.999  0.00  0.00     0.099 C 
ATOM      6  N   UNL d   1      19.715 -19.324  -1.190  0.00  0.00    -0.191 NA
ATOM      7  C   UNL d   1      22.236 -16.906  -0.716  0.00  0.00     0.025 A 
ATOM      8  C   UNL d   1      23.514 -16.367  -0.516  0.00  0.00     0.039 A 
ENDROOT
BRANCH   1   9
ATOM      9  O   UNL d   1      25.861 -16.661  -0.224  0.00  0.00    -0.311 OA
BRANCH   9  10
ATOM     10  C   UNL d   1      26.562 -16.271  -1.350  0.00  0.00     0.076 C 
ATOM     11  C   UNL d   1      25.825 -15.598  -2.319  0.00  0.00     0.046 C 
ATOM     12  C   UNL d   1      26.395 -15.206  -3.551  0.00  0.00    -0.033 C 
ATOM     13  C   UNL d   1      25.437 -14.625  -4.542  0.00  0.00     0.050 C 
ATOM     14  C   UNL d   1      27.786 -15.346  -3.760  0.00  0.00     0.041 C 
ATOM     15  C   UNL d   1      28.522 -16.052  -2.787  0.00  0.00     0.033 C 
ATOM     16  C   UNL d   1      27.908 -16.524  -1.611  0.00  0.00     0.039 C 
BRANCH  14  17
ATOM     17  N   UNL d   1      28.512 -14.766  -4.854  0.00  0.00    -0.322 N 
ATOM     18  C   UNL d   1      28.197 -13.636  -5.625  0.00  0.00     0.256 C 
ATOM     19  O   UNL d   1      28.109 -13.734  -6.846  0.00  0.00    -0.267 OA
ATOM     20  H   UNL d   1      29.191 -15.379  -5.298  0.00  0.00     0.169 HD
BRANCH  18  21
ATOM     21  C   UNL d   1      28.007 -12.280  -4.963  0.00  0.00     0.034 C 
ATOM     22  C   UNL d   1      29.078 -11.453  -4.628  0.00  0.00     0.017 C 
ATOM     23  C   UNL d   1      28.833 -10.085  -4.381  0.00  0.00     0.003 C 
ATOM     24  C   UNL d   1      27.541  -9.521  -4.551  0.00  0.00     0.029 C 
ATOM     25  C   UNL d   1      26.470 -10.340  -4.931  0.00  0.00     0.037 C 
ATOM     26  C   UNL d   1      26.728 -11.711  -4.988  0.00  0.00     0.046 C 
BRANCH  25  27
ATOM     27  N   UNL d   1      25.227  -9.798  -5.372  0.00  0.00    -0.309 N 
ATOM     28  C   UNL d   1      24.457  -8.743  -4.948  0.00  0.00     0.318 C 
ATOM     29  N   UNL d   1      24.809  -7.996  -3.880  0.00  0.00    -0.352 N 
ATOM     30  O   UNL d   1      23.433  -8.427  -5.553  0.00  0.00    -0.247 OA
ATOM     31  H   UNL d   1      25.279  -8.394  -3.093  0.00  0.00     0.160 HD
ATOM     32  H   UNL d   1      24.131  -7.324  -3.549  0.00  0.00     0.160 HD
ATOM     33  H   UNL d   1      24.780 -10.264  -6.156  0.00  0.00     0.170 HD
ENDBRANCH  25  27
ENDBRANCH  18  21
ENDBRANCH  14  17
ENDBRANCH   9  10
ENDBRANCH   1   9
TORSDOF 5
ENDMDL
MODEL 5
REMARK VINA RESULT:   -32.156      4.793      7.676
REMARK INTER + INTRA:         -34.766
REMARK INTER:                 -33.648
REMARK INTRA:                  -1.118
REMARK CONF_INDEPENDENT:        1.492
REMARK UNBOUND:                -1.118
REMARK  5 active torsions:
REMARK  status: ('A' for Active; 'I' for Inactive)
REMARK    1  A    between atoms: C_4  and  O_5 
REMARK    2  A    between atoms: O_5  and  C_6 
REMARK    3  A    between atoms: C_16  and  N_17 
REMARK       I    between atoms: N_17  and  C_18 
REMARK    4  A    between atoms: C_18  and  C_20 
REMARK    5  A    between atoms: C_24  and  N_25 
REMARK       I    between atoms: N_25  and  C_26 
REMARK       I    between atoms: C_26  and  N_27 
ROOT
ATOM      1  C   UNL d   1      24.663 -17.116  -0.616  0.00  0.00     0.076 A 
ATOM      2  C   UNL d   1      24.493 -18.495  -0.476  0.00  0.00     0.039 A 
ATOM      3  C   UNL d   1      23.222 -19.060  -0.607  0.00  0.00     0.025 A 
ATOM      4  C   UNL d   1      22.106 -18.243  -0.813  0.00  0.00     0.044 A 
ATOM      5  C   UNL d   1      20.798 -18.837  -0.948  0.00  0.00     0.099 C 
ATOM      6  N   UNL d   1      19.762 -19.325  -1.059  0.00  0.00    -0.191 NA
ATOM      7  C   UNL d   1      22.271 -16.855  -0.884  0.00  0.00     0.025 A 
ATOM      8  C   UNL d   1      23.549 -16.290  -0.779  0.00  0.00     0.039 A 
ENDROOT
BRANCH   1   9
ATOM      9  O   UNL d   1      25.909 -16.539  -0.558  0.00  0.00    -0.311 OA
BRANCH   9  10
ATOM     10  C   UNL d   1      26.263 -15.613  -1.521  0.00  0.00     0.076 C 
ATOM     11  C   UNL d   1      25.887 -15.924  -2.825  0.00  0.00     0.046 C 
ATOM     12  C   UNL d   1      26.246 -15.105  -3.918  0.00  0.00    -0.033 C 
ATOM     13  C   UNL d   1      25.896 -15.649  -5.266  0.00  0.00     0.050 C 
ATOM     14  C   UNL d   1      26.861 -13.852  -3.690  0.00  0.00     0.041 C 
ATOM     15  C   UNL d   1      27.262 -13.556  -2.371  0.00  0.00     0.033 C 
ATOM     16  C   UNL d   1      26.983 -14.438  -1.310  0.00  0.00     0.039 C 
BRANCH  14  17
ATOM     17  N   UNL d   1      27.045 -12.835  -4.687  0.00  0.00    -0.322 N 
ATOM     18  C   UNL d   1      26.245 -11.717  -4.966  0.00  0.00     0.256 C 
ATOM     19  O   UNL d   1      25.799 -11.551  -6.099  0.00  0.00    -0.267 OA
ATOM     20  H   UNL d   1      27.671 -13.083  -5.448  0.00  0.00     0.169 HD
BRANCH  18  21
ATOM     21  C   UNL d   1      25.961 -10.683  -3.888  0.00  0.00     0.034 C 
ATOM     22  C   UNL d   1      26.706 -10.603  -2.712  0.00  0.00     0.017 C 
ATOM     23  C   UNL d   1      26.653  -9.417  -1.949  0.00  0.00     0.003 C 
ATOM     24  C   UNL d   1      25.930  -8.280  -2.396  0.00  0.00     0.029 C 
ATOM     25  C   UNL d   1      25.216  -8.341  -3.600  0.00  0.00     0.037 C 
ATOM     26  C   UNL d   1      25.156  -9.588  -4.223  0.00  0.00     0.046 C 
BRANCH  25  27
ATOM     27  N   UNL d   1      24.699  -7.169  -4.228  0.00  0.00    -0.309 N 
ATOM     28  C   UNL d   1      23.604  -6.932  -5.022  0.00  0.00     0.318 C 
ATOM     29  N   UNL d   1      22.773  -7.928  -5.394  0.00  0.00    -0.352 N 
ATOM     30  O   UNL d   1      23.330  -5.791  -5.392  0.00  0.00    -0.247 OA
ATOM     31  H   UNL d   1      23.108  -8.853  -5.569  0.00  0.00     0.160 HD
ATOM     32  H   UNL d   1      22.068  -7.702  -6.082  0.00  0.00     0.160 HD
ATOM     33  H   UNL d   1      25.226  -6.310  -4.093  0.00  0.00     0.170 HD
ENDBRANCH  25  27
ENDBRANCH  18  21
ENDBRANCH  14  17
ENDBRANCH   9  10
ENDBRANCH   1   9
TORSDOF 5
ENDMDL
MODEL 6
REMARK VINA RESULT:   -31.824      2.063      3.300
REMARK INTER + INTRA:         -34.687
REMARK INTER:                 -33.315
REMARK INTRA:                  -1.371
REMARK CONF_INDEPENDENT:        1.492
REMARK UNBOUND:                -1.371
REMARK  5 active torsions:
REMARK  status: ('A' for Active; 'I' for Inactive)
REMARK    1  A    between atoms: C_4  and  O_5 
REMARK    2  A    between atoms: O_5  and  C_6 
REMARK    3  A    between atoms: C_16  and  N_17 
REMARK       I    between atoms: N_17  and  C_18 
REMARK    4  A    between atoms: C_18  and  C_20 
REMARK    5  A    between atoms: C_24  and  N_25 
REMARK       I    between atoms: N_25  and  C_26 
REMARK       I    between atoms: C_26  and  N_27 
ROOT
ATOM      1  C   UNL d   1      24.530 -17.170  -0.428  0.00  0.00     0.076 A 
ATOM      2  C   UNL d   1      24.364 -18.557  -0.454  0.00  0.00     0.039 A 
ATOM      3  C   UNL d   1      23.097 -19.106  -0.663  0.00  0.00     0.025 A 
ATOM      4  C   UNL d   1      21.980 -18.273  -0.782  0.00  0.00     0.044 A 
ATOM      5  C   UNL d   1      20.676 -18.851  -0.998  0.00  0.00     0.099 C 
ATOM      6  N   UNL d   1      19.642 -19.325  -1.176  0.00  0.00    -0.191 NA
ATOM      7  C   UNL d   1      22.140 -16.886  -0.686  0.00  0.00     0.025 A 
ATOM      8  C   UNL d   1      23.415 -16.334  -0.503  0.00  0.00     0.039 A 
ENDROOT
BRANCH   1   9
ATOM      9  O   UNL d   1      25.774 -16.601  -0.290  0.00  0.00    -0.311 OA
BRANCH   9  10
ATOM     10  C   UNL d   1      26.478 -16.251  -1.427  0.00  0.00     0.076 C 
ATOM     11  C   UNL d   1      27.863 -16.228  -1.297  0.00  0.00     0.046 C 
ATOM     12  C   UNL d   1      28.705 -15.818  -2.355  0.00  0.00    -0.033 C 
ATOM     13  C   UNL d   1      30.156 -15.709  -2.012  0.00  0.00     0.050 C 
ATOM     14  C   UNL d   1      28.159 -15.576  -3.636  0.00  0.00     0.041 C 
ATOM     15  C   UNL d   1      26.754 -15.575  -3.755  0.00  0.00     0.033 C 
ATOM     16  C   UNL d   1      25.931 -15.888  -2.656  0.00  0.00     0.039 C 
BRANCH  14  17
ATOM     17  N   UNL d   1      28.929 -15.400  -4.835  0.00  0.00    -0.322 N 
ATOM     18  C   UNL d   1      30.144 -15.998  -5.202  0.00  0.00     0.256 C 
ATOM     19  O   UNL d   1      31.109 -15.295  -5.492  0.00  0.00    -0.267 OA
ATOM     20  H   UNL d   1      28.718 -14.558  -5.366  0.00  0.00     0.169 HD
BRANCH  18  21
ATOM     21  C   UNL d   1      30.264 -17.511  -5.286  0.00  0.00     0.034 C 
ATOM     22  C   UNL d   1      30.409 -18.186  -6.497  0.00  0.00     0.017 C 
ATOM     23  C   UNL d   1      30.891 -19.512  -6.487  0.00  0.00     0.003 C 
ATOM     24  C   UNL d   1      31.311 -20.139  -5.284  0.00  0.00     0.029 C 
ATOM     25  C   UNL d   1      31.209 -19.449  -4.069  0.00  0.00     0.037 C 
ATOM     26  C   UNL d   1      30.562 -18.213  -4.111  0.00  0.00     0.046 C 
BRANCH  25  27
ATOM     27  N   UNL d   1      31.852 -19.913  -2.884  0.00  0.00    -0.309 N 
ATOM     28  C   UNL d   1      31.548 -19.815  -1.548  0.00  0.00     0.318 C 
ATOM     29  N   UNL d   1      30.462 -19.137  -1.119  0.00  0.00    -0.352 N 
ATOM     30  O   UNL d   1      32.244 -20.373  -0.701  0.00  0.00    -0.247 OA
ATOM     31  H   UNL d   1      30.135 -18.318  -1.589  0.00  0.00     0.160 HD
ATOM     32  H   UNL d   1      30.375 -18.997  -0.122  0.00  0.00     0.160 HD
ATOM     33  H   UNL d   1      32.724 -20.419  -3.008  0.00  0.00     0.170 HD
ENDBRANCH  25  27
ENDBRANCH  18  21
ENDBRANCH  14  17
ENDBRANCH   9  10
ENDBRANCH   1   9
TORSDOF 5
ENDMDL
MODEL 7
REMARK VINA RESULT:   -31.397      3.312      5.895
REMARK INTER + INTRA:         -34.683
REMARK INTER:                 -32.888
REMARK INTRA:                  -1.795
REMARK CONF_INDEPENDENT:        1.492
REMARK UNBOUND:                -1.795
REMARK  5 active torsions:
REMARK  status: ('A' for Active; 'I' for Inactive)
REMARK    1  A    between atoms: C_4  and  O_5 
REMARK    2  A    between atoms: O_5  and  C_6 
REMARK    3  A    between atoms: C_16  and  N_17 
REMARK       I    between atoms: N_17  and  C_18 
REMARK    4  A    between atoms: C_18  and  C_20 
REMARK    5  A    between atoms: C_24  and  N_25 
REMARK       I    between atoms: N_25  and  C_26 
REMARK       I    between atoms: C_26  and  N_27 
ROOT
ATOM      1  C   UNL d   1      24.613 -17.204  -0.325  0.00  0.00     0.076 A 
ATOM      2  C   UNL d   1      24.423 -18.587  -0.282  0.00  0.00     0.039 A 
ATOM      3  C   UNL d   1      23.160 -19.129  -0.534  0.00  0.00     0.025 A 
ATOM      4  C   UNL d   1      22.067 -18.287  -0.766  0.00  0.00     0.044 A 
ATOM      5  C   UNL d   1      20.767 -18.856  -1.026  0.00  0.00     0.099 C 
ATOM      6  N   UNL d   1      19.737 -19.325  -1.238  0.00  0.00    -0.191 NA
ATOM      7  C   UNL d   1      22.247 -16.900  -0.740  0.00  0.00     0.025 A 
ATOM      8  C   UNL d   1      23.519 -16.357  -0.513  0.00  0.00     0.039 A 
ENDROOT
BRANCH   1   9
ATOM      9  O   UNL d   1      25.856 -16.647  -0.146  0.00  0.00    -0.311 OA
BRANCH   9  10
ATOM     10  C   UNL d   1      26.591 -16.283  -1.259  0.00  0.00     0.076 C 
ATOM     11  C   UNL d   1      25.857 -15.789  -2.333  0.00  0.00     0.046 C 
ATOM     12  C   UNL d   1      26.470 -15.447  -3.559  0.00  0.00    -0.033 C 
ATOM     13  C   UNL d   1      25.530 -15.073  -4.661  0.00  0.00     0.050 C 
ATOM     14  C   UNL d   1      27.879 -15.444  -3.667  0.00  0.00     0.041 C 
ATOM     15  C   UNL d   1      28.615 -15.969  -2.585  0.00  0.00     0.033 C 
ATOM     16  C   UNL d   1      27.972 -16.401  -1.409  0.00  0.00     0.039 C 
BRANCH  14  17
ATOM     17  N   UNL d   1      28.617 -14.885  -4.764  0.00  0.00    -0.322 N 
ATOM     18  C   UNL d   1      28.199 -13.952  -5.726  0.00  0.00     0.256 C 
ATOM     19  O   UNL d   1      28.278 -14.227  -6.921  0.00  0.00    -0.267 OA
ATOM     20  H   UNL d   1      29.443 -15.408  -5.043  0.00  0.00     0.169 HD
BRANCH  18  21
ATOM     21  C   UNL d   1      27.691 -12.583  -5.301  0.00  0.00     0.034 C 
ATOM     22  C   UNL d   1      26.668 -11.920  -5.978  0.00  0.00     0.017 C 
ATOM     23  C   UNL d   1      25.993 -10.864  -5.330  0.00  0.00     0.003 C 
ATOM     24  C   UNL d   1      26.273 -10.522  -3.981  0.00  0.00     0.029 C 
ATOM     25  C   UNL d   1      27.270 -11.215  -3.282  0.00  0.00     0.037 C 
ATOM     26  C   UNL d   1      28.026 -12.126  -4.021  0.00  0.00     0.046 C 
BRANCH  25  27
ATOM     27  N   UNL d   1      27.413 -11.104  -1.867  0.00  0.00    -0.309 N 
ATOM     28  C   UNL d   1      27.230 -11.987  -0.831  0.00  0.00     0.318 C 
ATOM     29  N   UNL d   1      26.794 -13.246  -1.045  0.00  0.00    -0.352 N 
ATOM     30  O   UNL d   1      27.491 -11.661   0.327  0.00  0.00    -0.247 OA
ATOM     31  H   UNL d   1      26.144 -13.460  -1.774  0.00  0.00     0.160 HD
ATOM     32  H   UNL d   1      26.558 -13.793  -0.228  0.00  0.00     0.160 HD
ATOM     33  H   UNL d   1      27.699 -10.198  -1.508  0.00  0.00     0.170 HD
ENDBRANCH  25  27
ENDBRANCH  18  21
ENDBRANCH  14  17
ENDBRANCH   9  10
ENDBRANCH   1   9
TORSDOF 5
ENDMDL
MODEL 8
REMARK VINA RESULT:   -31.177      2.458      3.533
REMARK INTER + INTRA:         -34.269
REMARK INTER:                 -32.668
REMARK INTRA:                  -1.600
REMARK CONF_INDEPENDENT:        1.492
REMARK UNBOUND:                -1.600
REMARK  5 active torsions:
REMARK  status: ('A' for Active; 'I' for Inactive)
REMARK    1  A    between atoms: C_4  and  O_5 
REMARK    2  A    between atoms: O_5  and  C_6 
REMARK    3  A    between atoms: C_16  and  N_17 
REMARK       I    between atoms: N_17  and  C_18 
REMARK    4  A    between atoms: C_18  and  C_20 
REMARK    5  A    between atoms: C_24  and  N_25 
REMARK       I    between atoms: N_25  and  C_26 
REMARK       I    between atoms: C_26  and  N_27 
ROOT
ATOM      1  C   UNL d   1      24.704 -17.051  -0.644  0.00  0.00     0.076 A 
ATOM      2  C   UNL d   1      24.554 -18.429  -0.472  0.00  0.00     0.039 A 
ATOM      3  C   UNL d   1      23.288 -19.011  -0.553  0.00  0.00     0.025 A 
ATOM      4  C   UNL d   1      22.156 -18.211  -0.743  0.00  0.00     0.044 A 
ATOM      5  C   UNL d   1      20.852 -18.823  -0.826  0.00  0.00     0.099 C 
ATOM      6  N   UNL d   1      19.819 -19.325  -0.897  0.00  0.00    -0.191 NA
ATOM      7  C   UNL d   1      22.302 -16.823  -0.846  0.00  0.00     0.025 A 
ATOM      8  C   UNL d   1      23.576 -16.242  -0.791  0.00  0.00     0.039 A 
ENDROOT
BRANCH   1   9
ATOM      9  O   UNL d   1      25.944 -16.459  -0.635  0.00  0.00    -0.311 OA
BRANCH   9  10
ATOM     10  C   UNL d   1      26.249 -15.531  -1.613  0.00  0.00     0.076 C 
ATOM     11  C   UNL d   1      25.826 -15.847  -2.900  0.00  0.00     0.046 C 
ATOM     12  C   UNL d   1      26.132 -15.026  -4.008  0.00  0.00    -0.033 C 
ATOM     13  C   UNL d   1      25.734 -15.576  -5.340  0.00  0.00     0.050 C 
ATOM     14  C   UNL d   1      26.740 -13.766  -3.805  0.00  0.00     0.041 C 
ATOM     15  C   UNL d   1      27.190 -13.463  -2.504  0.00  0.00     0.033 C 
ATOM     16  C   UNL d   1      26.963 -14.347  -1.431  0.00  0.00     0.039 C 
BRANCH  14  17
ATOM     17  N   UNL d   1      26.873 -12.749  -4.809  0.00  0.00    -0.322 N 
ATOM     18  C   UNL d   1      28.023 -12.330  -5.497  0.00  0.00     0.256 C 
ATOM     19  O   UNL d   1      28.359 -11.148  -5.466  0.00  0.00    -0.267 OA
ATOM     20  H   UNL d   1      26.114 -12.073  -4.845  0.00  0.00     0.169 HD
BRANCH  18  21
ATOM     21  C   UNL d   1      28.833 -13.321  -6.319  0.00  0.00     0.034 C 
ATOM     22  C   UNL d   1      29.817 -12.919  -7.220  0.00  0.00     0.017 C 
ATOM     23  C   UNL d   1      30.774 -13.862  -7.652  0.00  0.00     0.003 C 
ATOM     24  C   UNL d   1      30.806 -15.180  -7.125  0.00  0.00     0.029 C 
ATOM     25  C   UNL d   1      29.845 -15.575  -6.185  0.00  0.00     0.037 C 
ATOM     26  C   UNL d   1      28.819 -14.665  -5.926  0.00  0.00     0.046 C 
BRANCH  25  27
ATOM     27  N   UNL d   1      29.981 -16.777  -5.429  0.00  0.00    -0.309 N 
ATOM     28  C   UNL d   1      29.989 -17.046  -4.083  0.00  0.00     0.318 C 
ATOM     29  N   UNL d   1      29.890 -16.061  -3.165  0.00  0.00    -0.352 N 
ATOM     30  O   UNL d   1      30.055 -18.204  -3.673  0.00  0.00    -0.247 OA
ATOM     31  H   UNL d   1      30.290 -15.158  -3.320  0.00  0.00     0.160 HD
ATOM     32  H   UNL d   1      30.035 -16.320  -2.199  0.00  0.00     0.160 HD
ATOM     33  H   UNL d   1      30.110 -17.635  -5.958  0.00  0.00     0.170 HD
ENDBRANCH  25  27
ENDBRANCH  18  21
ENDBRANCH  14  17
ENDBRANCH   9  10
ENDBRANCH   1   9
TORSDOF 5
ENDMDL
MODEL 9
REMARK VINA RESULT:   -31.039      4.041      5.554
REMARK INTER + INTRA:         -34.312
REMARK INTER:                 -32.531
REMARK INTRA:                  -1.781
REMARK CONF_INDEPENDENT:        1.492
REMARK UNBOUND:                -1.781
REMARK  5 active torsions:
REMARK  status: ('A' for Active; 'I' for Inactive)
REMARK    1  A    between atoms: C_4  and  O_5 
REMARK    2  A    between atoms: O_5  and  C_6 
REMARK    3  A    between atoms: C_16  and  N_17 
REMARK       I    between atoms: N_17  and  C_18 
REMARK    4  A    between atoms: C_18  and  C_20 
REMARK    5  A    between atoms: C_24  and  N_25 
REMARK       I    between atoms: N_25  and  C_26 
REMARK       I    between atoms: C_26  and  N_27 
ROOT
ATOM      1  C   UNL d   1      25.165 -17.438  -0.701  0.00  0.00     0.076 A 
ATOM      2  C   UNL d   1      24.685 -18.641  -0.176  0.00  0.00     0.039 A 
ATOM      3  C   UNL d   1      23.323 -18.942  -0.249  0.00  0.00     0.025 A 
ATOM      4  C   UNL d   1      22.425 -18.015  -0.787  0.00  0.00     0.044 A 
ATOM      5  C   UNL d   1      21.020 -18.337  -0.858  0.00  0.00     0.099 C 
ATOM      6  N   UNL d   1      19.903 -18.609  -0.914  0.00  0.00    -0.191 NA
ATOM      7  C   UNL d   1      22.900 -16.783  -1.249  0.00  0.00     0.025 A 
ATOM      8  C   UNL d   1      24.270 -16.491  -1.201  0.00  0.00     0.039 A 
ENDROOT
BRANCH   1   9
ATOM      9  O   UNL d   1      26.507 -17.144  -0.703  0.00  0.00    -0.311 OA
BRANCH   9  10
ATOM     10  C   UNL d   1      26.901 -15.820  -0.662  0.00  0.00     0.076 C 
ATOM     11  C   UNL d   1      27.846 -15.441  -1.611  0.00  0.00     0.046 C 
ATOM     12  C   UNL d   1      28.392 -14.138  -1.639  0.00  0.00    -0.033 C 
ATOM     13  C   UNL d   1      29.500 -13.931  -2.622  0.00  0.00     0.050 C 
ATOM     14  C   UNL d   1      27.864 -13.133  -0.797  0.00  0.00     0.041 C 
ATOM     15  C   UNL d   1      26.927 -13.530   0.179  0.00  0.00     0.033 C 
ATOM     16  C   UNL d   1      26.472 -14.861   0.254  0.00  0.00     0.039 C 
BRANCH  14  17
ATOM     17  N   UNL d   1      28.159 -11.733  -0.906  0.00  0.00    -0.322 N 
ATOM     18  C   UNL d   1      28.385 -10.964  -2.058  0.00  0.00     0.256 C 
ATOM     19  O   UNL d   1      29.429 -10.325  -2.173  0.00  0.00    -0.267 OA
ATOM     20  H   UNL d   1      28.504 -11.295  -0.056  0.00  0.00     0.169 HD
BRANCH  18  21
ATOM     21  C   UNL d   1      27.328 -10.880  -3.148  0.00  0.00     0.034 C 
ATOM     22  C   UNL d   1      27.359  -9.909  -4.148  0.00  0.00     0.017 C 
ATOM     23  C   UNL d   1      26.597 -10.111  -5.319  0.00  0.00     0.003 C 
ATOM     24  C   UNL d   1      25.875 -11.314  -5.535  0.00  0.00     0.029 C 
ATOM     25  C   UNL d   1      25.877 -12.311  -4.552  0.00  0.00     0.037 C 
ATOM     26  C   UNL d   1      26.497 -11.990  -3.343  0.00  0.00     0.046 C 
BRANCH  25  27
ATOM     27  N   UNL d   1      25.401 -13.630  -4.816  0.00  0.00    -0.309 N 
ATOM     28  C   UNL d   1      26.014 -14.857  -4.875  0.00  0.00     0.318 C 
ATOM     29  N   UNL d   1      27.346 -14.990  -4.701  0.00  0.00    -0.352 N 
ATOM     30  O   UNL d   1      25.356 -15.881  -5.058  0.00  0.00    -0.247 OA
ATOM     31  H   UNL d   1      27.988 -14.290  -5.010  0.00  0.00     0.160 HD
ATOM     32  H   UNL d   1      27.743 -15.901  -4.888  0.00  0.00     0.160 HD
ATOM     33  H   UNL d   1      24.409 -13.724  -5.016  0.00  0.00     0.170 HD
ENDBRANCH  25  27
ENDBRANCH  18  21
ENDBRANCH  14  17
ENDBRANCH   9  10
ENDBRANCH   1   9
TORSDOF 5
ENDMDL
