MODEL 1
REMARK VINA RESULT:    -8.683      0.000      0.000
REMARK INTER + INTRA:         -12.341
REMARK INTER:                 -10.771
REMARK INTRA:                  -1.570
REMARK CONF_INDEPENDENT:        2.088
REMARK UNBOUND:                -1.570
REMARK  7 active torsions:
REMARK  status: ('A' for Active; 'I' for Inactive)
REMARK    1  A    between atoms: S_2  and  C_3 
REMARK    2  A    between atoms: C_6  and  C_7 
REMARK    3  A    between atoms: C_7  and  N_8 
REMARK       I    between atoms: N_8  and  C_9 
REMARK    4  A    between atoms: C_9  and  C_11 
REMARK       I    between atoms: C_11  and  N_13 
REMARK    5  A    between atoms: N_13  and  C_14 
REMARK    6  A    between atoms: C_19  and  C_20 
REMARK       I    between atoms: C_20  and  N_22 
REMARK    7  A    between atoms: N_22  and  C_23 
ROOT
ATOM      1  C   UNL d   1      27.780 -14.424   2.394  0.00  0.00     0.313 C 
ATOM      2  O   UNL d   1      26.993 -13.486   2.297  0.00  0.00    -0.262 OA
ATOM      3  N   UNL d   1      28.645 -14.670   3.459  0.00  0.00    -0.319 N 
ATOM      4  H   UNL d   1      29.355 -15.387   3.338  0.00  0.00     0.169 HD
ENDROOT
BRANCH   3   5
ATOM      5  C   UNL d   1      28.629 -13.900   4.649  0.00  0.00     0.036 A 
ATOM      6  C   UNL d   1      27.786 -12.801   4.802  0.00  0.00     0.030 A 
ATOM      7  C   UNL d   1      27.803 -12.069   6.003  0.00  0.00     0.010 A 
ATOM      8  C   UNL d   1      28.648 -12.431   7.068  0.00  0.00    -0.046 A 
ATOM      9  C   UNL d   1      28.504 -11.715   8.390  0.00  0.00     0.049 C 
ATOM     10  C   UNL d   1      29.561 -13.493   6.882  0.00  0.00     0.040 A 
ATOM     11  C   UNL d   1      29.515 -14.217   5.680  0.00  0.00     0.047 A 
BRANCH  10  12
ATOM     12  C   UNL d   1      30.587 -13.826   7.927  0.00  0.00     0.252 C 
ATOM     13  O   UNL d   1      31.665 -13.239   7.954  0.00  0.00    -0.268 OA
ATOM     14  N   UNL d   1      30.301 -14.820   8.846  0.00  0.00    -0.353 N 
ATOM     15  H   UNL d   1      29.441 -15.343   8.815  0.00  0.00     0.163 HD
BRANCH  14  16
ATOM     16  C   UNL d   1      31.248 -15.159   9.898  0.00  0.00     0.076 C 
ATOM     17  C   UNL d   1      31.418 -13.994  10.873  0.00  0.00     0.032 C 
ATOM     18  C   UNL d   1      30.781 -16.395  10.662  0.00  0.00     0.032 C 
ENDBRANCH  14  16
ENDBRANCH  10  12
ENDBRANCH   3   5
BRANCH   1  19
ATOM     19  C   UNL d   1      27.854 -15.417   1.204  0.00  0.00     0.309 C 
ATOM     20  N   UNL d   1      26.628 -15.663   0.623  0.00  0.00    -0.349 N 
ATOM     21  H   UNL d   1      25.862 -15.127   1.014  0.00  0.00     0.163 HD
ATOM     22  O   UNL d   1      28.927 -15.908   0.867  0.00  0.00    -0.262 OA
BRANCH  20  23
ATOM     23  C   UNL d   1      26.418 -16.552  -0.508  0.00  0.00     0.161 C 
BRANCH  23  24
ATOM     24  C   UNL d   1      25.025 -17.157  -0.626  0.00  0.00    -0.040 A 
ATOM     25  C   UNL d   1      23.924 -16.320  -0.900  0.00  0.00     0.010 A 
ATOM     26  C   UNL d   1      22.610 -16.822  -0.903  0.00  0.00     0.019 A 
ATOM     27  C   UNL d   1      22.374 -18.187  -0.738  0.00  0.00    -0.000 A 
ATOM     28  C   UNL d   1      23.453 -19.025  -0.471  0.00  0.00     0.019 A 
ATOM     29  C   UNL d   1      24.758 -18.518  -0.423  0.00  0.00     0.010 A 
BRANCH  27  30
ATOM     30  S   UNL d   1      20.731 -18.866  -0.874  0.00  0.00    -0.134 SA
ATOM     31  C   UNL d   1      20.626 -19.762   0.709  0.00  0.00     0.095 C 
ENDBRANCH  27  30
ENDBRANCH  23  24
ENDBRANCH  20  23
ENDBRANCH   1  19
TORSDOF 7
ENDMDL
MODEL 2
REMARK VINA RESULT:    -8.653      7.429     10.929
REMARK INTER + INTRA:         -11.801
REMARK INTER:                 -10.741
REMARK INTRA:                  -1.060
REMARK CONF_INDEPENDENT:        2.088
REMARK UNBOUND:                -1.060
REMARK  7 active torsions:
REMARK  status: ('A' for Active; 'I' for Inactive)
REMARK    1  A    between atoms: S_2  and  C_3 
REMARK    2  A    between atoms: C_6  and  C_7 
REMARK    3  A    between atoms: C_7  and  N_8 
REMARK       I    between atoms: N_8  and  C_9 
REMARK    4  A    between atoms: C_9  and  C_11 
REMARK       I    between atoms: C_11  and  N_13 
REMARK    5  A    between atoms: N_13  and  C_14 
REMARK    6  A    between atoms: C_19  and  C_20 
REMARK       I    between atoms: C_20  and  N_22 
REMARK    7  A    between atoms: N_22  and  C_23 
ROOT
ATOM      1  C   UNL d   1      26.784 -15.327  -4.444  0.00  0.00     0.313 C 
ATOM      2  O   UNL d   1      26.266 -15.574  -5.530  0.00  0.00    -0.262 OA
ATOM      3  N   UNL d   1      28.124 -15.011  -4.221  0.00  0.00    -0.319 N 
ATOM      4  H   UNL d   1      28.452 -14.988  -3.259  0.00  0.00     0.169 HD
ENDROOT
BRANCH   3   5
ATOM      5  C   UNL d   1      29.049 -14.818  -5.276  0.00  0.00     0.036 A 
ATOM      6  C   UNL d   1      29.209 -13.581  -5.898  0.00  0.00     0.030 A 
ATOM      7  C   UNL d   1      30.142 -13.436  -6.940  0.00  0.00     0.010 A 
ATOM      8  C   UNL d   1      30.937 -14.518  -7.364  0.00  0.00    -0.046 A 
ATOM      9  C   UNL d   1      32.037 -14.265  -8.368  0.00  0.00     0.049 C 
ATOM     10  C   UNL d   1      30.717 -15.790  -6.791  0.00  0.00     0.040 A 
ATOM     11  C   UNL d   1      29.790 -15.906  -5.744  0.00  0.00     0.047 A 
BRANCH  10  12
ATOM     12  C   UNL d   1      31.428 -17.007  -7.309  0.00  0.00     0.252 C 
ATOM     13  O   UNL d   1      32.552 -16.916  -7.793  0.00  0.00    -0.268 OA
ATOM     14  N   UNL d   1      30.783 -18.230  -7.246  0.00  0.00    -0.353 N 
ATOM     15  H   UNL d   1      29.845 -18.321  -6.892  0.00  0.00     0.163 HD
BRANCH  14  16
ATOM     16  C   UNL d   1      31.442 -19.445  -7.704  0.00  0.00     0.076 C 
ATOM     17  C   UNL d   1      31.058 -20.637  -6.828  0.00  0.00     0.032 C 
ATOM     18  C   UNL d   1      31.068 -19.742  -9.154  0.00  0.00     0.032 C 
ENDBRANCH  14  16
ENDBRANCH  10  12
ENDBRANCH   3   5
BRANCH   1  19
ATOM     19  C   UNL d   1      25.878 -15.407  -3.188  0.00  0.00     0.309 C 
ATOM     20  N   UNL d   1      26.458 -16.091  -2.140  0.00  0.00    -0.349 N 
ATOM     21  H   UNL d   1      27.408 -16.399  -2.313  0.00  0.00     0.163 HD
ATOM     22  O   UNL d   1      24.761 -14.900  -3.191  0.00  0.00    -0.262 OA
BRANCH  20  23
ATOM     23  C   UNL d   1      25.825 -16.310  -0.850  0.00  0.00     0.161 C 
BRANCH  23  24
ATOM     24  C   UNL d   1      24.488 -17.039  -0.883  0.00  0.00    -0.040 A 
ATOM     25  C   UNL d   1      23.294 -16.297  -0.978  0.00  0.00     0.010 A 
ATOM     26  C   UNL d   1      22.037 -16.924  -0.895  0.00  0.00     0.019 A 
ATOM     27  C   UNL d   1      21.944 -18.315  -0.822  0.00  0.00    -0.000 A 
ATOM     28  C   UNL d   1      23.117 -19.059  -0.730  0.00  0.00     0.019 A 
ATOM     29  C   UNL d   1      24.368 -18.431  -0.768  0.00  0.00     0.010 A 
BRANCH  27  30
ATOM     30  S   UNL d   1      20.364 -19.141  -0.853  0.00  0.00    -0.134 SA
ATOM     31  C   UNL d   1      20.326 -19.816   0.839  0.00  0.00     0.095 C 
ENDBRANCH  27  30
ENDBRANCH  23  24
ENDBRANCH  20  23
ENDBRANCH   1  19
TORSDOF 7
ENDMDL
MODEL 3
REMARK VINA RESULT:    -8.313      1.031      1.434
REMARK INTER + INTRA:         -12.273
REMARK INTER:                 -10.401
REMARK INTRA:                  -1.872
REMARK CONF_INDEPENDENT:        2.088
REMARK UNBOUND:                -1.872
REMARK  7 active torsions:
REMARK  status: ('A' for Active; 'I' for Inactive)
REMARK    1  A    between atoms: S_2  and  C_3 
REMARK    2  A    between atoms: C_6  and  C_7 
REMARK    3  A    between atoms: C_7  and  N_8 
REMARK       I    between atoms: N_8  and  C_9 
REMARK    4  A    between atoms: C_9  and  C_11 
REMARK       I    between atoms: C_11  and  N_13 
REMARK    5  A    between atoms: N_13  and  C_14 
REMARK    6  A    between atoms: C_19  and  C_20 
REMARK       I    between atoms: C_20  and  N_22 
REMARK    7  A    between atoms: N_22  and  C_23 
ROOT
ATOM      1  C   UNL d   1      27.550 -14.472   2.001  0.00  0.00     0.313 C 
ATOM      2  O   UNL d   1      26.776 -13.523   1.892  0.00  0.00    -0.262 OA
ATOM      3  N   UNL d   1      28.516 -14.639   2.993  0.00  0.00    -0.319 N 
ATOM      4  H   UNL d   1      29.194 -15.387   2.872  0.00  0.00     0.169 HD
ENDROOT
BRANCH   3   5
ATOM      5  C   UNL d   1      28.640 -13.758   4.095  0.00  0.00     0.036 A 
ATOM      6  C   UNL d   1      28.556 -12.375   3.943  0.00  0.00     0.030 A 
ATOM      7  C   UNL d   1      28.682 -11.539   5.068  0.00  0.00     0.010 A 
ATOM      8  C   UNL d   1      28.878 -12.072   6.356  0.00  0.00    -0.046 A 
ATOM      9  C   UNL d   1      28.838 -11.140   7.543  0.00  0.00     0.049 C 
ATOM     10  C   UNL d   1      29.046 -13.467   6.497  0.00  0.00     0.040 A 
ATOM     11  C   UNL d   1      28.902 -14.281   5.363  0.00  0.00     0.047 A 
BRANCH  10  12
ATOM     12  C   UNL d   1      29.406 -14.075   7.822  0.00  0.00     0.252 C 
ATOM     13  O   UNL d   1      28.534 -14.508   8.569  0.00  0.00    -0.268 OA
ATOM     14  N   UNL d   1      30.739 -14.119   8.192  0.00  0.00    -0.353 N 
ATOM     15  H   UNL d   1      31.466 -13.730   7.614  0.00  0.00     0.163 HD
BRANCH  14  16
ATOM     16  C   UNL d   1      31.144 -14.726   9.452  0.00  0.00     0.076 C 
ATOM     17  C   UNL d   1      32.664 -14.707   9.602  0.00  0.00     0.032 C 
ATOM     18  C   UNL d   1      30.510 -13.990  10.629  0.00  0.00     0.032 C 
ENDBRANCH  14  16
ENDBRANCH  10  12
ENDBRANCH   3   5
BRANCH   1  19
ATOM     19  C   UNL d   1      27.479 -15.577   0.915  0.00  0.00     0.309 C 
ATOM     20  N   UNL d   1      26.255 -15.640   0.282  0.00  0.00    -0.349 N 
ATOM     21  H   UNL d   1      25.594 -14.929   0.572  0.00  0.00     0.163 HD
ATOM     22  O   UNL d   1      28.447 -16.298   0.694  0.00  0.00    -0.262 OA
BRANCH  20  23
ATOM     23  C   UNL d   1      25.924 -16.583  -0.773  0.00  0.00     0.161 C 
BRANCH  23  24
ATOM     24  C   UNL d   1      24.525 -17.182  -0.713  0.00  0.00    -0.040 A 
ATOM     25  C   UNL d   1      24.370 -18.570  -0.527  0.00  0.00     0.010 A 
ATOM     26  C   UNL d   1      23.101 -19.176  -0.580  0.00  0.00     0.019 A 
ATOM     27  C   UNL d   1      21.951 -18.398  -0.714  0.00  0.00    -0.000 A 
ATOM     28  C   UNL d   1      22.090 -17.025  -0.895  0.00  0.00     0.019 A 
ATOM     29  C   UNL d   1      23.356 -16.427  -0.887  0.00  0.00     0.010 A 
BRANCH  27  30
ATOM     30  S   UNL d   1      20.325 -19.128  -0.648  0.00  0.00    -0.134 SA
ATOM     31  C   UNL d   1      20.306 -19.702   1.082  0.00  0.00     0.095 C 
ENDBRANCH  27  30
ENDBRANCH  23  24
ENDBRANCH  20  23
ENDBRANCH   1  19
TORSDOF 7
ENDMDL
MODEL 4
REMARK VINA RESULT:    -8.041      2.473      4.108
REMARK INTER + INTRA:         -11.905
REMARK INTER:                 -10.129
REMARK INTRA:                  -1.776
REMARK CONF_INDEPENDENT:        2.088
REMARK UNBOUND:                -1.776
REMARK  7 active torsions:
REMARK  status: ('A' for Active; 'I' for Inactive)
REMARK    1  A    between atoms: S_2  and  C_3 
REMARK    2  A    between atoms: C_6  and  C_7 
REMARK    3  A    between atoms: C_7  and  N_8 
REMARK       I    between atoms: N_8  and  C_9 
REMARK    4  A    between atoms: C_9  and  C_11 
REMARK       I    between atoms: C_11  and  N_13 
REMARK    5  A    between atoms: N_13  and  C_14 
REMARK    6  A    between atoms: C_19  and  C_20 
REMARK       I    between atoms: C_20  and  N_22 
REMARK    7  A    between atoms: N_22  and  C_23 
ROOT
ATOM      1  C   UNL d   1      27.548 -14.597   1.888  0.00  0.00     0.313 C 
ATOM      2  O   UNL d   1      26.836 -13.613   1.698  0.00  0.00    -0.262 OA
ATOM      3  N   UNL d   1      28.416 -14.792   2.962  0.00  0.00    -0.319 N 
ATOM      4  H   UNL d   1      29.062 -15.574   2.912  0.00  0.00     0.169 HD
ENDROOT
BRANCH   3   5
ATOM      5  C   UNL d   1      28.490 -13.896   4.056  0.00  0.00     0.036 A 
ATOM      6  C   UNL d   1      28.442 -14.341   5.376  0.00  0.00     0.030 A 
ATOM      7  C   UNL d   1      28.523 -13.413   6.430  0.00  0.00     0.010 A 
ATOM      8  C   UNL d   1      28.668 -12.035   6.182  0.00  0.00    -0.046 A 
ATOM      9  C   UNL d   1      28.918 -11.107   7.347  0.00  0.00     0.049 C 
ATOM     10  C   UNL d   1      28.633 -11.577   4.847  0.00  0.00     0.040 A 
ATOM     11  C   UNL d   1      28.566 -12.523   3.812  0.00  0.00     0.047 A 
BRANCH  10  12
ATOM     12  C   UNL d   1      28.632 -10.109   4.530  0.00  0.00     0.252 C 
ATOM     13  O   UNL d   1      29.649  -9.558   4.119  0.00  0.00    -0.268 OA
ATOM     14  N   UNL d   1      27.468  -9.388   4.729  0.00  0.00    -0.353 N 
ATOM     15  H   UNL d   1      26.636  -9.812   5.106  0.00  0.00     0.163 HD
BRANCH  14  16
ATOM     16  C   UNL d   1      27.406  -7.969   4.407  0.00  0.00     0.076 C 
ATOM     17  C   UNL d   1      28.356  -7.167   5.296  0.00  0.00     0.032 C 
ATOM     18  C   UNL d   1      27.765  -7.737   2.942  0.00  0.00     0.032 C 
ENDBRANCH  14  16
ENDBRANCH  10  12
ENDBRANCH   3   5
BRANCH   1  19
ATOM     19  C   UNL d   1      27.513 -15.719   0.818  0.00  0.00     0.309 C 
ATOM     20  N   UNL d   1      26.283 -15.854   0.210  0.00  0.00    -0.349 N 
ATOM     21  H   UNL d   1      25.591 -15.175   0.505  0.00  0.00     0.163 HD
ATOM     22  O   UNL d   1      28.513 -16.391   0.585  0.00  0.00    -0.262 OA
BRANCH  20  23
ATOM     23  C   UNL d   1      25.980 -16.828  -0.826  0.00  0.00     0.161 C 
BRANCH  23  24
ATOM     24  C   UNL d   1      24.562 -17.383  -0.821  0.00  0.00    -0.040 A 
ATOM     25  C   UNL d   1      23.472 -16.509  -1.006  0.00  0.00     0.010 A 
ATOM     26  C   UNL d   1      22.145 -16.963  -0.894  0.00  0.00     0.019 A 
ATOM     27  C   UNL d   1      21.876 -18.319  -0.700  0.00  0.00    -0.000 A 
ATOM     28  C   UNL d   1      22.944 -19.193  -0.519  0.00  0.00     0.019 A 
ATOM     29  C   UNL d   1      24.265 -18.733  -0.586  0.00  0.00     0.010 A 
BRANCH  27  30
ATOM     30  S   UNL d   1      20.204 -18.939  -0.691  0.00  0.00    -0.134 SA
ATOM     31  C   UNL d   1      20.309 -20.109   0.703  0.00  0.00     0.095 C 
ENDBRANCH  27  30
ENDBRANCH  23  24
ENDBRANCH  20  23
ENDBRANCH   1  19
TORSDOF 7
ENDMDL
MODEL 5
REMARK VINA RESULT:    -7.800      1.890      2.503
REMARK INTER + INTRA:         -11.904
REMARK INTER:                  -9.888
REMARK INTRA:                  -2.016
REMARK CONF_INDEPENDENT:        2.088
REMARK UNBOUND:                -2.016
REMARK  7 active torsions:
REMARK  status: ('A' for Active; 'I' for Inactive)
REMARK    1  A    between atoms: S_2  and  C_3 
REMARK    2  A    between atoms: C_6  and  C_7 
REMARK    3  A    between atoms: C_7  and  N_8 
REMARK       I    between atoms: N_8  and  C_9 
REMARK    4  A    between atoms: C_9  and  C_11 
REMARK       I    between atoms: C_11  and  N_13 
REMARK    5  A    between atoms: N_13  and  C_14 
REMARK    6  A    between atoms: C_19  and  C_20 
REMARK       I    between atoms: C_20  and  N_22 
REMARK    7  A    between atoms: N_22  and  C_23 
ROOT
ATOM      1  C   UNL d   1      28.123 -13.801   3.070  0.00  0.00     0.313 C 
ATOM      2  O   UNL d   1      28.943 -14.476   3.688  0.00  0.00    -0.262 OA
ATOM      3  N   UNL d   1      27.602 -12.569   3.465  0.00  0.00    -0.319 N 
ATOM      4  H   UNL d   1      26.814 -12.199   2.941  0.00  0.00     0.169 HD
ENDROOT
BRANCH   3   5
ATOM      5  C   UNL d   1      28.064 -11.876   4.610  0.00  0.00     0.036 A 
ATOM      6  C   UNL d   1      28.562 -10.577   4.533  0.00  0.00     0.030 A 
ATOM      7  C   UNL d   1      29.007  -9.927   5.698  0.00  0.00     0.010 A 
ATOM      8  C   UNL d   1      28.948 -10.559   6.955  0.00  0.00    -0.046 A 
ATOM      9  C   UNL d   1      29.280  -9.757   8.190  0.00  0.00     0.049 C 
ATOM     10  C   UNL d   1      28.521 -11.904   7.021  0.00  0.00     0.040 A 
ATOM     11  C   UNL d   1      28.069 -12.526   5.847  0.00  0.00     0.047 A 
BRANCH  10  12
ATOM     12  C   UNL d   1      28.580 -12.674   8.309  0.00  0.00     0.252 C 
ATOM     13  O   UNL d   1      28.976 -13.835   8.326  0.00  0.00    -0.268 OA
ATOM     14  N   UNL d   1      28.161 -12.054   9.473  0.00  0.00    -0.353 N 
ATOM     15  H   UNL d   1      27.793 -11.117   9.475  0.00  0.00     0.163 HD
BRANCH  14  16
ATOM     16  C   UNL d   1      28.228 -12.745  10.752  0.00  0.00     0.076 C 
ATOM     17  C   UNL d   1      27.405 -14.033  10.720  0.00  0.00     0.032 C 
ATOM     18  C   UNL d   1      29.675 -13.079  11.105  0.00  0.00     0.032 C 
ENDBRANCH  14  16
ENDBRANCH  10  12
ENDBRANCH   3   5
BRANCH   1  19
ATOM     19  C   UNL d   1      27.581 -14.383   1.738  0.00  0.00     0.309 C 
ATOM     20  N   UNL d   1      28.214 -15.547   1.355  0.00  0.00    -0.349 N 
ATOM     21  H   UNL d   1      28.904 -15.887   2.014  0.00  0.00     0.163 HD
ATOM     22  O   UNL d   1      26.681 -13.814   1.129  0.00  0.00    -0.262 OA
BRANCH  20  23
ATOM     23  C   UNL d   1      27.898 -16.296   0.150  0.00  0.00     0.161 C 
BRANCH  23  24
ATOM     24  C   UNL d   1      26.422 -16.586  -0.083  0.00  0.00    -0.040 A 
ATOM     25  C   UNL d   1      25.834 -17.723   0.508  0.00  0.00     0.010 A 
ATOM     26  C   UNL d   1      24.506 -18.088   0.225  0.00  0.00     0.019 A 
ATOM     27  C   UNL d   1      23.701 -17.270  -0.570  0.00  0.00    -0.000 A 
ATOM     28  C   UNL d   1      24.269 -16.142  -1.157  0.00  0.00     0.019 A 
ATOM     29  C   UNL d   1      25.605 -15.803  -0.911  0.00  0.00     0.010 A 
BRANCH  27  30
ATOM     30  S   UNL d   1      21.977 -17.640  -0.833  0.00  0.00    -0.134 SA
ATOM     31  C   UNL d   1      21.906 -19.326  -0.146  0.00  0.00     0.095 C 
ENDBRANCH  27  30
ENDBRANCH  23  24
ENDBRANCH  20  23
ENDBRANCH   1  19
TORSDOF 7
ENDMDL
MODEL 6
REMARK VINA RESULT:    -7.776      1.035      1.272
REMARK INTER + INTRA:         -11.737
REMARK INTER:                  -9.864
REMARK INTRA:                  -1.873
REMARK CONF_INDEPENDENT:        2.088
REMARK UNBOUND:                -1.873
REMARK  7 active torsions:
REMARK  status: ('A' for Active; 'I' for Inactive)
REMARK    1  A    between atoms: S_2  and  C_3 
REMARK    2  A    between atoms: C_6  and  C_7 
REMARK    3  A    between atoms: C_7  and  N_8 
REMARK       I    between atoms: N_8  and  C_9 
REMARK    4  A    between atoms: C_9  and  C_11 
REMARK       I    between atoms: C_11  and  N_13 
REMARK    5  A    between atoms: N_13  and  C_14 
REMARK    6  A    between atoms: C_19  and  C_20 
REMARK       I    between atoms: C_20  and  N_22 
REMARK    7  A    between atoms: N_22  and  C_23 
ROOT
ATOM      1  C   UNL d   1      28.070 -13.717   2.785  0.00  0.00     0.313 C 
ATOM      2  O   UNL d   1      27.687 -12.551   2.734  0.00  0.00    -0.262 OA
ATOM      3  N   UNL d   1      28.595 -14.366   3.902  0.00  0.00    -0.319 N 
ATOM      4  H   UNL d   1      29.021 -15.278   3.763  0.00  0.00     0.169 HD
ENDROOT
BRANCH   3   5
ATOM      5  C   UNL d   1      28.638 -13.764   5.184  0.00  0.00     0.036 A 
ATOM      6  C   UNL d   1      27.782 -12.723   5.537  0.00  0.00     0.030 A 
ATOM      7  C   UNL d   1      27.859 -12.159   6.823  0.00  0.00     0.010 A 
ATOM      8  C   UNL d   1      28.779 -12.636   7.776  0.00  0.00    -0.046 A 
ATOM      9  C   UNL d   1      28.703 -12.109   9.189  0.00  0.00     0.049 C 
ATOM     10  C   UNL d   1      29.701 -13.634   7.391  0.00  0.00     0.040 A 
ATOM     11  C   UNL d   1      29.595 -14.190   6.107  0.00  0.00     0.047 A 
BRANCH  10  12
ATOM     12  C   UNL d   1      30.800 -14.073   8.316  0.00  0.00     0.252 C 
ATOM     13  O   UNL d   1      31.906 -13.543   8.269  0.00  0.00    -0.268 OA
ATOM     14  N   UNL d   1      30.545 -15.099   9.210  0.00  0.00    -0.353 N 
ATOM     15  H   UNL d   1      29.658 -15.575   9.236  0.00  0.00     0.163 HD
BRANCH  14  16
ATOM     16  C   UNL d   1      31.566 -15.539  10.150  0.00  0.00     0.076 C 
ATOM     17  C   UNL d   1      32.216 -14.345  10.847  0.00  0.00     0.032 C 
ATOM     18  C   UNL d   1      30.962 -16.469  11.199  0.00  0.00     0.032 C 
ENDBRANCH  14  16
ENDBRANCH  10  12
ENDBRANCH   3   5
BRANCH   1  19
ATOM     19  C   UNL d   1      28.003 -14.546   1.475  0.00  0.00     0.309 C 
ATOM     20  N   UNL d   1      27.153 -14.007   0.532  0.00  0.00    -0.349 N 
ATOM     21  H   UNL d   1      26.733 -13.125   0.800  0.00  0.00     0.163 HD
ATOM     22  O   UNL d   1      28.659 -15.576   1.354  0.00  0.00    -0.262 OA
BRANCH  20  23
ATOM     23  C   UNL d   1      26.908 -14.584  -0.779  0.00  0.00     0.161 C 
BRANCH  23  24
ATOM     24  C   UNL d   1      25.973 -15.785  -0.812  0.00  0.00    -0.040 A 
ATOM     25  C   UNL d   1      24.774 -15.714  -1.549  0.00  0.00     0.010 A 
ATOM     26  C   UNL d   1      23.831 -16.757  -1.511  0.00  0.00     0.019 A 
ATOM     27  C   UNL d   1      24.110 -17.938  -0.822  0.00  0.00    -0.000 A 
ATOM     28  C   UNL d   1      25.292 -18.023  -0.093  0.00  0.00     0.019 A 
ATOM     29  C   UNL d   1      26.211 -16.966  -0.094  0.00  0.00     0.010 A 
BRANCH  27  30
ATOM     30  S   UNL d   1      22.991 -19.326  -0.871  0.00  0.00    -0.134 SA
ATOM     31  C   UNL d   1      21.396 -18.446  -0.894  0.00  0.00     0.095 C 
ENDBRANCH  27  30
ENDBRANCH  23  24
ENDBRANCH  20  23
ENDBRANCH   1  19
TORSDOF 7
ENDMDL
MODEL 7
REMARK VINA RESULT:    -7.768      2.332      3.056
REMARK INTER + INTRA:         -11.772
REMARK INTER:                  -9.857
REMARK INTRA:                  -1.915
REMARK CONF_INDEPENDENT:        2.088
REMARK UNBOUND:                -1.915
REMARK  7 active torsions:
REMARK  status: ('A' for Active; 'I' for Inactive)
REMARK    1  A    between atoms: S_2  and  C_3 
REMARK    2  A    between atoms: C_6  and  C_7 
REMARK    3  A    between atoms: C_7  and  N_8 
REMARK       I    between atoms: N_8  and  C_9 
REMARK    4  A    between atoms: C_9  and  C_11 
REMARK       I    between atoms: C_11  and  N_13 
REMARK    5  A    between atoms: N_13  and  C_14 
REMARK    6  A    between atoms: C_19  and  C_20 
REMARK       I    between atoms: C_20  and  N_22 
REMARK    7  A    between atoms: N_22  and  C_23 
ROOT
ATOM      1  C   UNL d   1      27.490 -14.489   1.977  0.00  0.00     0.313 C 
ATOM      2  O   UNL d   1      26.736 -13.524   1.886  0.00  0.00    -0.262 OA
ATOM      3  N   UNL d   1      28.442 -14.703   2.974  0.00  0.00    -0.319 N 
ATOM      4  H   UNL d   1      29.107 -15.459   2.839  0.00  0.00     0.169 HD
ENDROOT
BRANCH   3   5
ATOM      5  C   UNL d   1      28.570 -13.856   4.102  0.00  0.00     0.036 A 
ATOM      6  C   UNL d   1      27.610 -13.825   5.112  0.00  0.00     0.030 A 
ATOM      7  C   UNL d   1      27.781 -12.970   6.214  0.00  0.00     0.010 A 
ATOM      8  C   UNL d   1      28.917 -12.146   6.331  0.00  0.00    -0.046 A 
ATOM      9  C   UNL d   1      29.130 -11.376   7.612  0.00  0.00     0.049 C 
ATOM     10  C   UNL d   1      29.847 -12.116   5.269  0.00  0.00     0.040 A 
ATOM     11  C   UNL d   1      29.662 -12.989   4.186  0.00  0.00     0.047 A 
BRANCH  10  12
ATOM     12  C   UNL d   1      30.996 -11.149   5.271  0.00  0.00     0.252 C 
ATOM     13  O   UNL d   1      30.827  -9.977   4.947  0.00  0.00    -0.268 OA
ATOM     14  N   UNL d   1      32.252 -11.609   5.627  0.00  0.00    -0.353 N 
ATOM     15  H   UNL d   1      32.420 -12.575   5.855  0.00  0.00     0.163 HD
BRANCH  14  16
ATOM     16  C   UNL d   1      33.391 -10.705   5.676  0.00  0.00     0.076 C 
ATOM     17  C   UNL d   1      34.439 -11.202   6.671  0.00  0.00     0.032 C 
ATOM     18  C   UNL d   1      34.028 -10.571   4.296  0.00  0.00     0.032 C 
ENDBRANCH  14  16
ENDBRANCH  10  12
ENDBRANCH   3   5
BRANCH   1  19
ATOM     19  C   UNL d   1      27.411 -15.562   0.859  0.00  0.00     0.309 C 
ATOM     20  N   UNL d   1      26.186 -15.602   0.228  0.00  0.00    -0.349 N 
ATOM     21  H   UNL d   1      25.528 -14.897   0.542  0.00  0.00     0.163 HD
ATOM     22  O   UNL d   1      28.375 -16.280   0.614  0.00  0.00    -0.262 OA
BRANCH  20  23
ATOM     23  C   UNL d   1      25.847 -16.512  -0.853  0.00  0.00     0.161 C 
BRANCH  23  24
ATOM     24  C   UNL d   1      24.486 -17.187  -0.750  0.00  0.00    -0.040 A 
ATOM     25  C   UNL d   1      24.413 -18.576  -0.520  0.00  0.00     0.010 A 
ATOM     26  C   UNL d   1      23.180 -19.254  -0.533  0.00  0.00     0.019 A 
ATOM     27  C   UNL d   1      21.985 -18.547  -0.670  0.00  0.00    -0.000 A 
ATOM     28  C   UNL d   1      22.043 -17.174  -0.895  0.00  0.00     0.019 A 
ATOM     29  C   UNL d   1      23.273 -16.505  -0.926  0.00  0.00     0.010 A 
BRANCH  27  30
ATOM     30  S   UNL d   1      20.405 -19.365  -0.554  0.00  0.00    -0.134 SA
ATOM     31  C   UNL d   1      20.278 -19.551   1.255  0.00  0.00     0.095 C 
ENDBRANCH  27  30
ENDBRANCH  23  24
ENDBRANCH  20  23
ENDBRANCH   1  19
TORSDOF 7
ENDMDL
MODEL 8
REMARK VINA RESULT:    -7.701      6.989      9.168
REMARK INTER + INTRA:         -11.783
REMARK INTER:                  -9.789
REMARK INTRA:                  -1.994
REMARK CONF_INDEPENDENT:        2.088
REMARK UNBOUND:                -1.994
REMARK  7 active torsions:
REMARK  status: ('A' for Active; 'I' for Inactive)
REMARK    1  A    between atoms: S_2  and  C_3 
REMARK    2  A    between atoms: C_6  and  C_7 
REMARK    3  A    between atoms: C_7  and  N_8 
REMARK       I    between atoms: N_8  and  C_9 
REMARK    4  A    between atoms: C_9  and  C_11 
REMARK       I    between atoms: C_11  and  N_13 
REMARK    5  A    between atoms: N_13  and  C_14 
REMARK    6  A    between atoms: C_19  and  C_20 
REMARK       I    between atoms: C_20  and  N_22 
REMARK    7  A    between atoms: N_22  and  C_23 
ROOT
ATOM      1  C   UNL d   1      26.186 -13.839  -2.604  0.00  0.00     0.313 C 
ATOM      2  O   UNL d   1      27.098 -13.332  -1.955  0.00  0.00    -0.262 OA
ATOM      3  N   UNL d   1      25.442 -13.219  -3.607  0.00  0.00    -0.319 N 
ATOM      4  H   UNL d   1      24.614 -13.699  -3.948  0.00  0.00     0.169 HD
ENDROOT
BRANCH   3   5
ATOM      5  C   UNL d   1      25.744 -11.921  -4.090  0.00  0.00     0.036 A 
ATOM      6  C   UNL d   1      25.906 -11.662  -5.449  0.00  0.00     0.030 A 
ATOM      7  C   UNL d   1      26.202 -10.357  -5.881  0.00  0.00     0.010 A 
ATOM      8  C   UNL d   1      26.324  -9.294  -4.967  0.00  0.00    -0.046 A 
ATOM      9  C   UNL d   1      26.475  -7.888  -5.499  0.00  0.00     0.049 C 
ATOM     10  C   UNL d   1      26.241  -9.573  -3.585  0.00  0.00     0.040 A 
ATOM     11  C   UNL d   1      25.932 -10.880  -3.179  0.00  0.00     0.047 A 
BRANCH  10  12
ATOM     12  C   UNL d   1      26.512  -8.507  -2.561  0.00  0.00     0.252 C 
ATOM     13  O   UNL d   1      27.576  -8.485  -1.949  0.00  0.00    -0.268 OA
ATOM     14  N   UNL d   1      25.531  -7.564  -2.308  0.00  0.00    -0.353 N 
ATOM     15  H   UNL d   1      24.636  -7.590  -2.768  0.00  0.00     0.163 HD
BRANCH  14  16
ATOM     16  C   UNL d   1      25.756  -6.493  -1.349  0.00  0.00     0.076 C 
ATOM     17  C   UNL d   1      25.106  -5.193  -1.822  0.00  0.00     0.032 C 
ATOM     18  C   UNL d   1      25.194  -6.871   0.018  0.00  0.00     0.032 C 
ENDBRANCH  14  16
ENDBRANCH  10  12
ENDBRANCH   3   5
BRANCH   1  19
ATOM     19  C   UNL d   1      25.791 -15.299  -2.256  0.00  0.00     0.309 C 
ATOM     20  N   UNL d   1      26.228 -15.699  -1.011  0.00  0.00    -0.349 N 
ATOM     21  H   UNL d   1      26.697 -14.977  -0.478  0.00  0.00     0.163 HD
ATOM     22  O   UNL d   1      25.158 -15.981  -3.056  0.00  0.00    -0.262 OA
BRANCH  20  23
ATOM     23  C   UNL d   1      25.992 -17.015  -0.441  0.00  0.00     0.161 C 
BRANCH  23  24
ATOM     24  C   UNL d   1      24.561 -17.529  -0.527  0.00  0.00    -0.040 A 
ATOM     25  C   UNL d   1      23.493 -16.609  -0.562  0.00  0.00     0.010 A 
ATOM     26  C   UNL d   1      22.155 -17.043  -0.524  0.00  0.00     0.019 A 
ATOM     27  C   UNL d   1      21.852 -18.405  -0.558  0.00  0.00    -0.000 A 
ATOM     28  C   UNL d   1      22.898 -19.323  -0.528  0.00  0.00     0.019 A 
ATOM     29  C   UNL d   1      24.230 -18.891  -0.520  0.00  0.00     0.010 A 
BRANCH  27  30
ATOM     30  S   UNL d   1      20.166 -18.978  -0.649  0.00  0.00    -0.134 SA
ATOM     31  C   UNL d   1      20.145 -20.126   0.765  0.00  0.00     0.095 C 
ENDBRANCH  27  30
ENDBRANCH  23  24
ENDBRANCH  20  23
ENDBRANCH   1  19
TORSDOF 7
ENDMDL
MODEL 9
REMARK VINA RESULT:    -7.664      6.930     10.543
REMARK INTER + INTRA:         -11.807
REMARK INTER:                  -9.752
REMARK INTRA:                  -2.055
REMARK CONF_INDEPENDENT:        2.088
REMARK UNBOUND:                -2.055
REMARK  7 active torsions:
REMARK  status: ('A' for Active; 'I' for Inactive)
REMARK    1  A    between atoms: S_2  and  C_3 
REMARK    2  A    between atoms: C_6  and  C_7 
REMARK    3  A    between atoms: C_7  and  N_8 
REMARK       I    between atoms: N_8  and  C_9 
REMARK    4  A    between atoms: C_9  and  C_11 
REMARK       I    between atoms: C_11  and  N_13 
REMARK    5  A    between atoms: N_13  and  C_14 
REMARK    6  A    between atoms: C_19  and  C_20 
REMARK       I    between atoms: C_20  and  N_22 
REMARK    7  A    between atoms: N_22  and  C_23 
ROOT
ATOM      1  C   UNL d   1      26.318 -14.435  -3.173  0.00  0.00     0.313 C 
ATOM      2  O   UNL d   1      26.675 -13.468  -2.504  0.00  0.00    -0.262 OA
ATOM      3  N   UNL d   1      26.304 -14.516  -4.565  0.00  0.00    -0.319 N 
ATOM      4  H   UNL d   1      25.834 -15.311  -4.988  0.00  0.00     0.169 HD
ENDROOT
BRANCH   3   5
ATOM      5  C   UNL d   1      26.831 -13.496  -5.395  0.00  0.00     0.036 A 
ATOM      6  C   UNL d   1      27.787 -13.764  -6.373  0.00  0.00     0.030 A 
ATOM      7  C   UNL d   1      28.278 -12.719  -7.175  0.00  0.00     0.010 A 
ATOM      8  C   UNL d   1      27.813 -11.399  -7.023  0.00  0.00    -0.046 A 
ATOM      9  C   UNL d   1      28.250 -10.352  -8.020  0.00  0.00     0.049 C 
ATOM     10  C   UNL d   1      26.907 -11.114  -5.978  0.00  0.00     0.040 A 
ATOM     11  C   UNL d   1      26.420 -12.176  -5.199  0.00  0.00     0.047 A 
BRANCH  10  12
ATOM     12  C   UNL d   1      26.493  -9.702  -5.673  0.00  0.00     0.252 C 
ATOM     13  O   UNL d   1      27.336  -8.838  -5.453  0.00  0.00    -0.268 OA
ATOM     14  N   UNL d   1      25.143  -9.401  -5.628  0.00  0.00    -0.353 N 
ATOM     15  H   UNL d   1      24.435 -10.104  -5.763  0.00  0.00     0.163 HD
BRANCH  14  16
ATOM     16  C   UNL d   1      24.691  -8.042  -5.369  0.00  0.00     0.076 C 
ATOM     17  C   UNL d   1      23.165  -7.961  -5.399  0.00  0.00     0.032 C 
ATOM     18  C   UNL d   1      25.196  -7.559  -4.012  0.00  0.00     0.032 C 
ENDBRANCH  14  16
ENDBRANCH  10  12
ENDBRANCH   3   5
BRANCH   1  19
ATOM     19  C   UNL d   1      25.794 -15.677  -2.405  0.00  0.00     0.309 C 
ATOM     20  N   UNL d   1      26.089 -15.649  -1.058  0.00  0.00    -0.349 N 
ATOM     21  H   UNL d   1      26.556 -14.805  -0.747  0.00  0.00     0.163 HD
ATOM     22  O   UNL d   1      25.190 -16.567  -2.996  0.00  0.00    -0.262 OA
BRANCH  20  23
ATOM     23  C   UNL d   1      25.713 -16.687  -0.113  0.00  0.00     0.161 C 
BRANCH  23  24
ATOM     24  C   UNL d   1      24.338 -17.308  -0.321  0.00  0.00    -0.040 A 
ATOM     25  C   UNL d   1      24.189 -18.707  -0.248  0.00  0.00     0.010 A 
ATOM     26  C   UNL d   1      22.961 -19.327  -0.546  0.00  0.00     0.019 A 
ATOM     27  C   UNL d   1      21.830 -18.558  -0.821  0.00  0.00    -0.000 A 
ATOM     28  C   UNL d   1      21.963 -17.174  -0.892  0.00  0.00     0.019 A 
ATOM     29  C   UNL d   1      23.196 -16.560  -0.639  0.00  0.00     0.010 A 
BRANCH  27  30
ATOM     30  S   UNL d   1      20.234 -19.313  -1.068  0.00  0.00    -0.134 SA
ATOM     31  C   UNL d   1      19.854 -19.818   0.641  0.00  0.00     0.095 C 
ENDBRANCH  27  30
ENDBRANCH  23  24
ENDBRANCH  20  23
ENDBRANCH   1  19
TORSDOF 7
ENDMDL
