MODEL 1
REMARK VINA RESULT:    -8.330      0.000      0.000
REMARK INTER + INTRA:         -12.576
REMARK INTER:                 -10.716
REMARK INTRA:                  -1.859
REMARK CONF_INDEPENDENT:        2.386
REMARK UNBOUND:                -1.859
REMARK  8 active torsions:
REMARK  status: ('A' for Active; 'I' for Inactive)
REMARK    1  A    between atoms: C_6  and  O_7 
REMARK    2  A    between atoms: O_7  and  C_8 
REMARK    3  A    between atoms: C_8  and  C_9 
REMARK       I    between atoms: C_9  and  N_11 
REMARK    4  A    between atoms: N_11  and  N_12 
REMARK    5  A    between atoms: N_12  and  C_13 
REMARK    6  A    between atoms: C_13  and  N_15 
REMARK       I    between atoms: N_15  and  C_16 
REMARK    7  A    between atoms: C_16  and  C_18 
REMARK    8  A    between atoms: C_18  and  C_19 
ROOT
ATOM      1  C   UNL d   1      26.772 -17.603  -0.055  0.00  0.00     0.260 C 
ATOM      2  O   UNL d   1      27.109 -18.720   0.347  0.00  0.00    -0.269 OA
ATOM      3  N   UNL d   1      25.445 -17.336  -0.370  0.00  0.00    -0.266 N 
ATOM      4  H   UNL d   1      25.114 -16.429  -0.703  0.00  0.00     0.190 HD
ENDROOT
BRANCH   3   5
ATOM      5  N   UNL d   1      24.412 -18.359  -0.239  0.00  0.00    -0.273 N 
ATOM      6  H   UNL d   1      24.765 -19.304  -0.095  0.00  0.00     0.189 HD
BRANCH   5   7
ATOM      7  C   UNL d   1      23.064 -17.970  -0.301  0.00  0.00     0.193 C 
ATOM      8  S   UNL d   1      22.709 -16.328  -0.520  0.00  0.00    -0.039 SA
BRANCH   7   9
ATOM      9  N   UNL d   1      22.109 -19.012  -0.177  0.00  0.00    -0.303 N 
ATOM     10  C   UNL d   1      20.767 -18.921  -0.571  0.00  0.00     0.224 C 
ATOM     11  O   UNL d   1      20.266 -17.856  -0.954  0.00  0.00    -0.273 OA
ATOM     12  H   UNL d   1      22.407 -19.887   0.237  0.00  0.00     0.171 HD
BRANCH  10  13
ATOM     13  C   UNL d   1      19.843 -20.150  -0.483  0.00  0.00     0.107 C 
BRANCH  13  14
ATOM     14  C   UNL d   1      19.015 -20.114   0.849  0.00  0.00    -0.014 C 
ATOM     15  C   UNL d   1      18.092 -21.337   0.991  0.00  0.00     0.010 C 
ATOM     16  C   UNL d   1      19.899 -20.042   2.098  0.00  0.00     0.010 C 
ENDBRANCH  13  14
ENDBRANCH  10  13
ENDBRANCH   7   9
ENDBRANCH   5   7
ENDBRANCH   3   5
BRANCH   1  17
ATOM     17  C   UNL d   1      27.770 -16.417  -0.247  0.00  0.00     0.280 C 
BRANCH  17  18
ATOM     18  O   UNL d   1      27.090 -15.213  -0.633  0.00  0.00    -0.342 OA
BRANCH  18  19
ATOM     19  C   UNL d   1      26.777 -15.020  -1.956  0.00  0.00     0.069 A 
ATOM     20  C   UNL d   1      25.469 -14.586  -2.223  0.00  0.00     0.037 A 
ATOM     21  C   UNL d   1      25.036 -14.363  -3.538  0.00  0.00     0.003 A 
ATOM     22  C   UNL d   1      25.911 -14.566  -4.602  0.00  0.00     0.007 A 
ATOM     23  C   UNL d   1      27.220 -14.988  -4.355  0.00  0.00    -0.059 A 
ATOM     24  C   UNL d   1      28.189 -15.194  -5.481  0.00  0.00     0.048 C 
ATOM     25  C   UNL d   1      27.643 -15.215  -3.031  0.00  0.00     0.043 A 
ENDBRANCH  18  19
ENDBRANCH  17  18
ENDBRANCH   1  17
TORSDOF 8
ENDMDL
MODEL 2
REMARK VINA RESULT:    -7.750      1.829      2.680
REMARK INTER + INTRA:         -11.722
REMARK INTER:                 -10.137
REMARK INTRA:                  -1.585
REMARK CONF_INDEPENDENT:        2.386
REMARK UNBOUND:                -1.585
REMARK  8 active torsions:
REMARK  status: ('A' for Active; 'I' for Inactive)
REMARK    1  A    between atoms: C_6  and  O_7 
REMARK    2  A    between atoms: O_7  and  C_8 
REMARK    3  A    between atoms: C_8  and  C_9 
REMARK       I    between atoms: C_9  and  N_11 
REMARK    4  A    between atoms: N_11  and  N_12 
REMARK    5  A    between atoms: N_12  and  C_13 
REMARK    6  A    between atoms: C_13  and  N_15 
REMARK       I    between atoms: N_15  and  C_16 
REMARK    7  A    between atoms: C_16  and  C_18 
REMARK    8  A    between atoms: C_18  and  C_19 
ROOT
ATOM      1  C   UNL d   1      25.186 -16.033  -1.348  0.00  0.00     0.260 C 
ATOM      2  O   UNL d   1      25.209 -15.777  -0.141  0.00  0.00    -0.269 OA
ATOM      3  N   UNL d   1      24.132 -16.751  -1.899  0.00  0.00    -0.266 N 
ATOM      4  H   UNL d   1      24.065 -16.986  -2.891  0.00  0.00     0.190 HD
ENDROOT
BRANCH   3   5
ATOM      5  N   UNL d   1      23.024 -17.229  -1.076  0.00  0.00    -0.273 N 
ATOM      6  H   UNL d   1      22.166 -16.686  -1.162  0.00  0.00     0.189 HD
BRANCH   5   7
ATOM      7  C   UNL d   1      23.218 -18.367  -0.276  0.00  0.00     0.193 C 
ATOM      8  S   UNL d   1      24.721 -18.575   0.478  0.00  0.00    -0.039 SA
BRANCH   7   9
ATOM      9  N   UNL d   1      22.112 -19.248  -0.170  0.00  0.00    -0.303 N 
ATOM     10  C   UNL d   1      20.807 -18.952  -0.591  0.00  0.00     0.224 C 
ATOM     11  O   UNL d   1      20.486 -17.824  -0.984  0.00  0.00    -0.273 OA
ATOM     12  H   UNL d   1      22.262 -20.157   0.250  0.00  0.00     0.171 HD
BRANCH  10  13
ATOM     13  C   UNL d   1      19.703 -20.023  -0.520  0.00  0.00     0.107 C 
BRANCH  13  14
ATOM     14  C   UNL d   1      19.658 -20.664   0.911  0.00  0.00    -0.014 C 
ATOM     15  C   UNL d   1      19.922 -19.628   2.018  0.00  0.00     0.010 C 
ATOM     16  C   UNL d   1      18.322 -21.349   1.215  0.00  0.00     0.010 C 
ENDBRANCH  13  14
ENDBRANCH  10  13
ENDBRANCH   7   9
ENDBRANCH   5   7
ENDBRANCH   3   5
BRANCH   1  17
ATOM     17  C   UNL d   1      26.304 -15.590  -2.345  0.00  0.00     0.280 C 
BRANCH  17  18
ATOM     18  O   UNL d   1      25.798 -15.466  -3.683  0.00  0.00    -0.342 OA
BRANCH  18  19
ATOM     19  C   UNL d   1      26.278 -14.462  -4.487  0.00  0.00     0.069 A 
ATOM     20  C   UNL d   1      27.286 -14.826  -5.393  0.00  0.00     0.037 A 
ATOM     21  C   UNL d   1      27.856 -13.881  -6.257  0.00  0.00     0.003 A 
ATOM     22  C   UNL d   1      27.419 -12.560  -6.230  0.00  0.00     0.007 A 
ATOM     23  C   UNL d   1      26.409 -12.180  -5.342  0.00  0.00    -0.059 A 
ATOM     24  C   UNL d   1      25.904 -10.768  -5.306  0.00  0.00     0.048 C 
ATOM     25  C   UNL d   1      25.847 -13.136  -4.472  0.00  0.00     0.043 A 
ENDBRANCH  18  19
ENDBRANCH  17  18
ENDBRANCH   1  17
TORSDOF 8
ENDMDL
MODEL 3
REMARK VINA RESULT:    -7.590      2.745      3.984
REMARK INTER + INTRA:         -11.555
REMARK INTER:                  -9.976
REMARK INTRA:                  -1.579
REMARK CONF_INDEPENDENT:        2.386
REMARK UNBOUND:                -1.579
REMARK  8 active torsions:
REMARK  status: ('A' for Active; 'I' for Inactive)
REMARK    1  A    between atoms: C_6  and  O_7 
REMARK    2  A    between atoms: O_7  and  C_8 
REMARK    3  A    between atoms: C_8  and  C_9 
REMARK       I    between atoms: C_9  and  N_11 
REMARK    4  A    between atoms: N_11  and  N_12 
REMARK    5  A    between atoms: N_12  and  C_13 
REMARK    6  A    between atoms: C_13  and  N_15 
REMARK       I    between atoms: N_15  and  C_16 
REMARK    7  A    between atoms: C_16  and  C_18 
REMARK    8  A    between atoms: C_18  and  C_19 
ROOT
ATOM      1  C   UNL d   1      26.693 -17.522   0.120  0.00  0.00     0.260 C 
ATOM      2  O   UNL d   1      27.111 -18.655  -0.137  0.00  0.00    -0.269 OA
ATOM      3  N   UNL d   1      25.347 -17.213  -0.037  0.00  0.00    -0.266 N 
ATOM      4  H   UNL d   1      24.951 -16.293   0.165  0.00  0.00     0.190 HD
ENDROOT
BRANCH   3   5
ATOM      5  N   UNL d   1      24.388 -18.207  -0.509  0.00  0.00    -0.273 N 
ATOM      6  H   UNL d   1      24.803 -19.085  -0.818  0.00  0.00     0.189 HD
BRANCH   5   7
ATOM      7  C   UNL d   1      23.020 -17.891  -0.484  0.00  0.00     0.193 C 
ATOM      8  S   UNL d   1      22.553 -16.304  -0.844  0.00  0.00    -0.039 SA
BRANCH   7   9
ATOM      9  N   UNL d   1      22.142 -18.957  -0.157  0.00  0.00    -0.303 N 
ATOM     10  C   UNL d   1      20.814 -19.064  -0.594  0.00  0.00     0.224 C 
ATOM     11  O   UNL d   1      20.251 -18.152  -1.212  0.00  0.00    -0.273 OA
ATOM     12  H   UNL d   1      22.487 -19.694   0.445  0.00  0.00     0.171 HD
BRANCH  10  13
ATOM     13  C   UNL d   1      19.982 -20.317  -0.261  0.00  0.00     0.107 C 
BRANCH  13  14
ATOM     14  C   UNL d   1      19.059 -20.043   0.978  0.00  0.00    -0.014 C 
ATOM     15  C   UNL d   1      18.040 -21.174   1.202  0.00  0.00     0.010 C 
ATOM     16  C   UNL d   1      19.848 -19.855   2.278  0.00  0.00     0.010 C 
ENDBRANCH  13  14
ENDBRANCH  10  13
ENDBRANCH   7   9
ENDBRANCH   5   7
ENDBRANCH   3   5
BRANCH   1  17
ATOM     17  C   UNL d   1      27.605 -16.361   0.629  0.00  0.00     0.280 C 
BRANCH  17  18
ATOM     18  O   UNL d   1      26.977 -15.081   0.451  0.00  0.00    -0.342 OA
BRANCH  18  19
ATOM     19  C   UNL d   1      27.161 -14.111   1.405  0.00  0.00     0.069 A 
ATOM     20  C   UNL d   1      26.602 -12.855   1.122  0.00  0.00     0.037 A 
ATOM     21  C   UNL d   1      26.735 -11.787   2.020  0.00  0.00     0.003 A 
ATOM     22  C   UNL d   1      27.423 -11.965   3.217  0.00  0.00     0.007 A 
ATOM     23  C   UNL d   1      27.978 -13.212   3.521  0.00  0.00    -0.059 A 
ATOM     24  C   UNL d   1      28.707 -13.437   4.812  0.00  0.00     0.048 C 
ATOM     25  C   UNL d   1      27.845 -14.276   2.608  0.00  0.00     0.043 A 
ENDBRANCH  18  19
ENDBRANCH  17  18
ENDBRANCH   1  17
TORSDOF 8
ENDMDL
MODEL 4
REMARK VINA RESULT:    -7.226      1.904      8.628
REMARK INTER + INTRA:         -11.178
REMARK INTER:                  -9.612
REMARK INTRA:                  -1.566
REMARK CONF_INDEPENDENT:        2.386
REMARK UNBOUND:                -1.566
REMARK  8 active torsions:
REMARK  status: ('A' for Active; 'I' for Inactive)
REMARK    1  A    between atoms: C_6  and  O_7 
REMARK    2  A    between atoms: O_7  and  C_8 
REMARK    3  A    between atoms: C_8  and  C_9 
REMARK       I    between atoms: C_9  and  N_11 
REMARK    4  A    between atoms: N_11  and  N_12 
REMARK    5  A    between atoms: N_12  and  C_13 
REMARK    6  A    between atoms: C_13  and  N_15 
REMARK       I    between atoms: N_15  and  C_16 
REMARK    7  A    between atoms: C_16  and  C_18 
REMARK    8  A    between atoms: C_18  and  C_19 
ROOT
ATOM      1  C   UNL d   1      23.126 -18.100  -0.446  0.00  0.00     0.260 C 
ATOM      2  O   UNL d   1      23.278 -18.235   0.771  0.00  0.00    -0.269 OA
ATOM      3  N   UNL d   1      23.917 -17.212  -1.164  0.00  0.00    -0.266 N 
ATOM      4  H   UNL d   1      23.833 -17.066  -2.172  0.00  0.00     0.190 HD
ENDROOT
BRANCH   3   5
ATOM      5  N   UNL d   1      24.948 -16.411  -0.509  0.00  0.00    -0.273 N 
ATOM      6  H   UNL d   1      24.594 -15.724   0.155  0.00  0.00     0.189 HD
BRANCH   5   7
ATOM      7  C   UNL d   1      26.295 -16.657  -0.822  0.00  0.00     0.193 C 
ATOM      8  S   UNL d   1      27.083 -17.935  -0.039  0.00  0.00    -0.039 SA
BRANCH   7   9
ATOM      9  N   UNL d   1      26.876 -15.795  -1.788  0.00  0.00    -0.303 N 
ATOM     10  C   UNL d   1      26.266 -15.415  -2.992  0.00  0.00     0.224 C 
ATOM     11  O   UNL d   1      25.200 -15.913  -3.374  0.00  0.00    -0.273 OA
ATOM     12  H   UNL d   1      27.803 -15.431  -1.609  0.00  0.00     0.171 HD
BRANCH  10  13
ATOM     13  C   UNL d   1      26.948 -14.393  -3.922  0.00  0.00     0.107 C 
BRANCH  13  14
ATOM     14  C   UNL d   1      27.670 -15.129  -5.104  0.00  0.00    -0.014 C 
ATOM     15  C   UNL d   1      28.118 -14.154  -6.207  0.00  0.00     0.010 C 
ATOM     16  C   UNL d   1      28.898 -15.924  -4.650  0.00  0.00     0.010 C 
ENDBRANCH  13  14
ENDBRANCH  10  13
ENDBRANCH   7   9
ENDBRANCH   5   7
ENDBRANCH   3   5
BRANCH   1  17
ATOM     17  C   UNL d   1      22.061 -18.887  -1.275  0.00  0.00     0.280 C 
BRANCH  17  18
ATOM     18  O   UNL d   1      20.724 -18.516  -0.903  0.00  0.00    -0.342 OA
BRANCH  18  19
ATOM     19  C   UNL d   1      20.033 -19.309  -0.021  0.00  0.00     0.069 A 
ATOM     20  C   UNL d   1      18.944 -20.017  -0.551  0.00  0.00     0.037 A 
ATOM     21  C   UNL d   1      18.162 -20.851   0.259  0.00  0.00     0.003 A 
ATOM     22  C   UNL d   1      18.465 -20.993   1.610  0.00  0.00     0.007 A 
ATOM     23  C   UNL d   1      19.552 -20.303   2.154  0.00  0.00    -0.059 A 
ATOM     24  C   UNL d   1      19.914 -20.453   3.602  0.00  0.00     0.048 C 
ATOM     25  C   UNL d   1      20.328 -19.462   1.333  0.00  0.00     0.043 A 
ENDBRANCH  18  19
ENDBRANCH  17  18
ENDBRANCH   1  17
TORSDOF 8
ENDMDL
MODEL 5
REMARK VINA RESULT:    -7.211      2.173      3.174
REMARK INTER + INTRA:         -11.297
REMARK INTER:                  -9.597
REMARK INTRA:                  -1.699
REMARK CONF_INDEPENDENT:        2.386
REMARK UNBOUND:                -1.699
REMARK  8 active torsions:
REMARK  status: ('A' for Active; 'I' for Inactive)
REMARK    1  A    between atoms: C_6  and  O_7 
REMARK    2  A    between atoms: O_7  and  C_8 
REMARK    3  A    between atoms: C_8  and  C_9 
REMARK       I    between atoms: C_9  and  N_11 
REMARK    4  A    between atoms: N_11  and  N_12 
REMARK    5  A    between atoms: N_12  and  C_13 
REMARK    6  A    between atoms: C_13  and  N_15 
REMARK       I    between atoms: N_15  and  C_16 
REMARK    7  A    between atoms: C_16  and  C_18 
REMARK    8  A    between atoms: C_18  and  C_19 
ROOT
ATOM      1  C   UNL d   1      25.037 -15.368  -2.574  0.00  0.00     0.260 C 
ATOM      2  O   UNL d   1      23.992 -14.791  -2.889  0.00  0.00    -0.269 OA
ATOM      3  N   UNL d   1      25.012 -16.446  -1.698  0.00  0.00    -0.266 N 
ATOM      4  H   UNL d   1      25.848 -16.959  -1.409  0.00  0.00     0.190 HD
ENDROOT
BRANCH   3   5
ATOM      5  N   UNL d   1      23.761 -16.931  -1.122  0.00  0.00    -0.273 N 
ATOM      6  H   UNL d   1      22.928 -16.434  -1.436  0.00  0.00     0.189 HD
BRANCH   5   7
ATOM      7  C   UNL d   1      23.803 -18.014  -0.230  0.00  0.00     0.193 C 
ATOM      8  S   UNL d   1      25.175 -18.201   0.747  0.00  0.00    -0.039 SA
BRANCH   7   9
ATOM      9  N   UNL d   1      22.666 -18.862  -0.228  0.00  0.00    -0.303 N 
ATOM     10  C   UNL d   1      21.397 -18.503  -0.704  0.00  0.00     0.224 C 
ATOM     11  O   UNL d   1      21.132 -17.347  -1.057  0.00  0.00    -0.273 OA
ATOM     12  H   UNL d   1      22.764 -19.795   0.155  0.00  0.00     0.171 HD
BRANCH  10  13
ATOM     13  C   UNL d   1      20.257 -19.538  -0.745  0.00  0.00     0.107 C 
BRANCH  13  14
ATOM     14  C   UNL d   1      20.132 -20.265   0.639  0.00  0.00    -0.014 C 
ATOM     15  C   UNL d   1      20.427 -19.321   1.818  0.00  0.00     0.010 C 
ATOM     16  C   UNL d   1      18.748 -20.882   0.865  0.00  0.00     0.010 C 
ENDBRANCH  13  14
ENDBRANCH  10  13
ENDBRANCH   7   9
ENDBRANCH   5   7
ENDBRANCH   3   5
BRANCH   1  17
ATOM     17  C   UNL d   1      26.445 -14.955  -3.109  0.00  0.00     0.280 C 
BRANCH  17  18
ATOM     18  O   UNL d   1      26.470 -14.908  -4.544  0.00  0.00    -0.342 OA
BRANCH  18  19
ATOM     19  C   UNL d   1      27.680 -14.968  -5.191  0.00  0.00     0.069 A 
ATOM     20  C   UNL d   1      27.908 -13.982  -6.164  0.00  0.00     0.037 A 
ATOM     21  C   UNL d   1      29.105 -13.951  -6.893  0.00  0.00     0.003 A 
ATOM     22  C   UNL d   1      30.092 -14.903  -6.652  0.00  0.00     0.007 A 
ATOM     23  C   UNL d   1      29.887 -15.886  -5.680  0.00  0.00    -0.059 A 
ATOM     24  C   UNL d   1      30.942 -16.911  -5.385  0.00  0.00     0.048 C 
ATOM     25  C   UNL d   1      28.678 -15.913  -4.958  0.00  0.00     0.043 A 
ENDBRANCH  18  19
ENDBRANCH  17  18
ENDBRANCH   1  17
TORSDOF 8
ENDMDL
MODEL 6
REMARK VINA RESULT:    -6.687      2.462      8.415
REMARK INTER + INTRA:         -10.764
REMARK INTER:                  -9.073
REMARK INTRA:                  -1.690
REMARK CONF_INDEPENDENT:        2.386
REMARK UNBOUND:                -1.690
REMARK  8 active torsions:
REMARK  status: ('A' for Active; 'I' for Inactive)
REMARK    1  A    between atoms: C_6  and  O_7 
REMARK    2  A    between atoms: O_7  and  C_8 
REMARK    3  A    between atoms: C_8  and  C_9 
REMARK       I    between atoms: C_9  and  N_11 
REMARK    4  A    between atoms: N_11  and  N_12 
REMARK    5  A    between atoms: N_12  and  C_13 
REMARK    6  A    between atoms: C_13  and  N_15 
REMARK       I    between atoms: N_15  and  C_16 
REMARK    7  A    between atoms: C_16  and  C_18 
REMARK    8  A    between atoms: C_18  and  C_19 
ROOT
ATOM      1  C   UNL d   1      23.467 -18.308  -0.588  0.00  0.00     0.260 C 
ATOM      2  O   UNL d   1      23.810 -18.580   0.566  0.00  0.00    -0.269 OA
ATOM      3  N   UNL d   1      24.191 -17.395  -1.344  0.00  0.00    -0.266 N 
ATOM      4  H   UNL d   1      23.950 -17.137  -2.304  0.00  0.00     0.190 HD
ENDROOT
BRANCH   3   5
ATOM      5  N   UNL d   1      25.373 -16.729  -0.806  0.00  0.00    -0.273 N 
ATOM      6  H   UNL d   1      25.917 -17.290  -0.152  0.00  0.00     0.189 HD
BRANCH   5   7
ATOM      7  C   UNL d   1      25.666 -15.422  -1.231  0.00  0.00     0.193 C 
ATOM      8  S   UNL d   1      25.177 -14.952  -2.783  0.00  0.00    -0.039 SA
BRANCH   7   9
ATOM      9  N   UNL d   1      26.352 -14.604  -0.297  0.00  0.00    -0.303 N 
ATOM     10  C   UNL d   1      27.313 -15.061   0.616  0.00  0.00     0.224 C 
ATOM     11  O   UNL d   1      27.553 -16.265   0.767  0.00  0.00    -0.273 OA
ATOM     12  H   UNL d   1      26.130 -13.616  -0.273  0.00  0.00     0.171 HD
BRANCH  10  13
ATOM     13  C   UNL d   1      28.069 -14.066   1.516  0.00  0.00     0.107 C 
BRANCH  13  14
ATOM     14  C   UNL d   1      27.077 -13.373   2.514  0.00  0.00    -0.014 C 
ATOM     15  C   UNL d   1      27.421 -13.681   3.982  0.00  0.00     0.010 C 
ATOM     16  C   UNL d   1      27.032 -11.850   2.350  0.00  0.00     0.010 C 
ENDBRANCH  13  14
ENDBRANCH  10  13
ENDBRANCH   7   9
ENDBRANCH   5   7
ENDBRANCH   3   5
BRANCH   1  17
ATOM     17  C   UNL d   1      22.223 -18.939  -1.290  0.00  0.00     0.280 C 
BRANCH  17  18
ATOM     18  O   UNL d   1      20.995 -18.435  -0.741  0.00  0.00    -0.342 OA
BRANCH  18  19
ATOM     19  C   UNL d   1      20.252 -19.244   0.083  0.00  0.00     0.069 A 
ATOM     20  C   UNL d   1      19.199 -19.944  -0.528  0.00  0.00     0.037 A 
ATOM     21  C   UNL d   1      18.369 -20.792   0.217  0.00  0.00     0.003 A 
ATOM     22  C   UNL d   1      18.586 -20.957   1.583  0.00  0.00     0.007 A 
ATOM     23  C   UNL d   1      19.636 -20.276   2.206  0.00  0.00    -0.059 A 
ATOM     24  C   UNL d   1      19.906 -20.451   3.671  0.00  0.00     0.048 C 
ATOM     25  C   UNL d   1      20.460 -19.420   1.450  0.00  0.00     0.043 A 
ENDBRANCH  18  19
ENDBRANCH  17  18
ENDBRANCH   1  17
TORSDOF 8
ENDMDL
MODEL 7
REMARK VINA RESULT:    -6.200      2.364      3.833
REMARK INTER + INTRA:         -10.855
REMARK INTER:                  -8.587
REMARK INTRA:                  -2.268
REMARK CONF_INDEPENDENT:        2.386
REMARK UNBOUND:                -2.268
REMARK  8 active torsions:
REMARK  status: ('A' for Active; 'I' for Inactive)
REMARK    1  A    between atoms: C_6  and  O_7 
REMARK    2  A    between atoms: O_7  and  C_8 
REMARK    3  A    between atoms: C_8  and  C_9 
REMARK       I    between atoms: C_9  and  N_11 
REMARK    4  A    between atoms: N_11  and  N_12 
REMARK    5  A    between atoms: N_12  and  C_13 
REMARK    6  A    between atoms: C_13  and  N_15 
REMARK       I    between atoms: N_15  and  C_16 
REMARK    7  A    between atoms: C_16  and  C_18 
REMARK    8  A    between atoms: C_18  and  C_19 
ROOT
ATOM      1  C   UNL d   1      25.179 -14.748  -3.679  0.00  0.00     0.260 C 
ATOM      2  O   UNL d   1      24.204 -14.056  -3.371  0.00  0.00    -0.269 OA
ATOM      3  N   UNL d   1      25.455 -15.924  -2.993  0.00  0.00    -0.266 N 
ATOM      4  H   UNL d   1      26.247 -16.533  -3.210  0.00  0.00     0.190 HD
ENDROOT
BRANCH   3   5
ATOM      5  N   UNL d   1      24.612 -16.379  -1.892  0.00  0.00    -0.273 N 
ATOM      6  H   UNL d   1      23.675 -15.979  -1.880  0.00  0.00     0.189 HD
BRANCH   5   7
ATOM      7  C   UNL d   1      25.134 -17.312  -0.981  0.00  0.00     0.193 C 
ATOM      8  S   UNL d   1      26.781 -17.225  -0.595  0.00  0.00    -0.039 SA
BRANCH   7   9
ATOM      9  N   UNL d   1      24.211 -18.253  -0.457  0.00  0.00    -0.303 N 
ATOM     10  C   UNL d   1      22.838 -18.021  -0.289  0.00  0.00     0.224 C 
ATOM     11  O   UNL d   1      22.334 -16.907  -0.472  0.00  0.00    -0.273 OA
ATOM     12  H   UNL d   1      24.561 -19.159  -0.169  0.00  0.00     0.171 HD
BRANCH  10  13
ATOM     13  C   UNL d   1      21.911 -19.152   0.196  0.00  0.00     0.107 C 
BRANCH  13  14
ATOM     14  C   UNL d   1      20.464 -18.952  -0.377  0.00  0.00    -0.014 C 
ATOM     15  C   UNL d   1      20.259 -19.700  -1.706  0.00  0.00     0.010 C 
ATOM     16  C   UNL d   1      19.370 -19.407   0.594  0.00  0.00     0.010 C 
ENDBRANCH  13  14
ENDBRANCH  10  13
ENDBRANCH   7   9
ENDBRANCH   5   7
ENDBRANCH   3   5
BRANCH   1  17
ATOM     17  C   UNL d   1      26.168 -14.381  -4.830  0.00  0.00     0.280 C 
BRANCH  17  18
ATOM     18  O   UNL d   1      26.898 -15.531  -5.285  0.00  0.00    -0.342 OA
BRANCH  18  19
ATOM     19  C   UNL d   1      28.266 -15.540  -5.172  0.00  0.00     0.069 A 
ATOM     20  C   UNL d   1      28.777 -15.759  -3.883  0.00  0.00     0.037 A 
ATOM     21  C   UNL d   1      30.159 -15.781  -3.649  0.00  0.00     0.003 A 
ATOM     22  C   UNL d   1      31.047 -15.590  -4.704  0.00  0.00     0.007 A 
ATOM     23  C   UNL d   1      30.557 -15.380  -5.996  0.00  0.00    -0.059 A 
ATOM     24  C   UNL d   1      31.491 -15.191  -7.154  0.00  0.00     0.048 C 
ATOM     25  C   UNL d   1      29.166 -15.353  -6.219  0.00  0.00     0.043 A 
ENDBRANCH  18  19
ENDBRANCH  17  18
ENDBRANCH   1  17
TORSDOF 8
ENDMDL
MODEL 8
REMARK VINA RESULT:    -5.964      2.045      3.312
REMARK INTER + INTRA:         -10.775
REMARK INTER:                  -8.350
REMARK INTRA:                  -2.425
REMARK CONF_INDEPENDENT:        2.386
REMARK UNBOUND:                -2.425
REMARK  8 active torsions:
REMARK  status: ('A' for Active; 'I' for Inactive)
REMARK    1  A    between atoms: C_6  and  O_7 
REMARK    2  A    between atoms: O_7  and  C_8 
REMARK    3  A    between atoms: C_8  and  C_9 
REMARK       I    between atoms: C_9  and  N_11 
REMARK    4  A    between atoms: N_11  and  N_12 
REMARK    5  A    between atoms: N_12  and  C_13 
REMARK    6  A    between atoms: C_13  and  N_15 
REMARK       I    between atoms: N_15  and  C_16 
REMARK    7  A    between atoms: C_16  and  C_18 
REMARK    8  A    between atoms: C_18  and  C_19 
ROOT
ATOM      1  C   UNL d   1      25.104 -15.295  -2.808  0.00  0.00     0.260 C 
ATOM      2  O   UNL d   1      24.093 -14.587  -2.780  0.00  0.00    -0.269 OA
ATOM      3  N   UNL d   1      25.122 -16.527  -2.166  0.00  0.00    -0.266 N 
ATOM      4  H   UNL d   1      25.930 -17.151  -2.162  0.00  0.00     0.190 HD
ENDROOT
BRANCH   3   5
ATOM      5  N   UNL d   1      23.957 -17.022  -1.438  0.00  0.00    -0.273 N 
ATOM      6  H   UNL d   1      23.066 -16.635  -1.746  0.00  0.00     0.189 HD
BRANCH   5   7
ATOM      7  C   UNL d   1      24.149 -17.972  -0.421  0.00  0.00     0.193 C 
ATOM      8  S   UNL d   1      25.553 -17.871   0.521  0.00  0.00    -0.039 SA
BRANCH   7   9
ATOM      9  N   UNL d   1      23.124 -18.943  -0.275  0.00  0.00    -0.303 N 
ATOM     10  C   UNL d   1      21.776 -18.741  -0.605  0.00  0.00     0.224 C 
ATOM     11  O   UNL d   1      21.342 -17.632  -0.941  0.00  0.00    -0.273 OA
ATOM     12  H   UNL d   1      23.372 -19.847   0.105  0.00  0.00     0.171 HD
BRANCH  10  13
ATOM     13  C   UNL d   1      20.766 -19.899  -0.500  0.00  0.00     0.107 C 
BRANCH  13  14
ATOM     14  C   UNL d   1      19.608 -19.522   0.488  0.00  0.00    -0.014 C 
ATOM     15  C   UNL d   1      18.386 -20.444   0.327  0.00  0.00     0.010 C 
ATOM     16  C   UNL d   1      20.040 -19.564   1.957  0.00  0.00     0.010 C 
ENDBRANCH  13  14
ENDBRANCH  10  13
ENDBRANCH   7   9
ENDBRANCH   5   7
ENDBRANCH   3   5
BRANCH   1  17
ATOM     17  C   UNL d   1      26.421 -14.891  -3.544  0.00  0.00     0.280 C 
BRANCH  17  18
ATOM     18  O   UNL d   1      27.450 -15.875  -3.361  0.00  0.00    -0.342 OA
BRANCH  18  19
ATOM     19  C   UNL d   1      28.308 -15.752  -2.296  0.00  0.00     0.069 A 
ATOM     20  C   UNL d   1      28.047 -16.585  -1.196  0.00  0.00     0.037 A 
ATOM     21  C   UNL d   1      28.853 -16.540  -0.050  0.00  0.00     0.003 A 
ATOM     22  C   UNL d   1      29.935 -15.665   0.007  0.00  0.00     0.007 A 
ATOM     23  C   UNL d   1      30.215 -14.835  -1.082  0.00  0.00    -0.059 A 
ATOM     24  C   UNL d   1      31.386 -13.898  -1.056  0.00  0.00     0.048 C 
ATOM     25  C   UNL d   1      29.395 -14.883  -2.227  0.00  0.00     0.043 A 
ENDBRANCH  18  19
ENDBRANCH  17  18
ENDBRANCH   1  17
TORSDOF 8
ENDMDL
MODEL 9
REMARK VINA RESULT:    -5.931      4.298      8.847
REMARK INTER + INTRA:         -10.746
REMARK INTER:                  -8.317
REMARK INTRA:                  -2.429
REMARK CONF_INDEPENDENT:        2.386
REMARK UNBOUND:                -2.429
REMARK  8 active torsions:
REMARK  status: ('A' for Active; 'I' for Inactive)
REMARK    1  A    between atoms: C_6  and  O_7 
REMARK    2  A    between atoms: O_7  and  C_8 
REMARK    3  A    between atoms: C_8  and  C_9 
REMARK       I    between atoms: C_9  and  N_11 
REMARK    4  A    between atoms: N_11  and  N_12 
REMARK    5  A    between atoms: N_12  and  C_13 
REMARK    6  A    between atoms: C_13  and  N_15 
REMARK       I    between atoms: N_15  and  C_16 
REMARK    7  A    between atoms: C_16  and  C_18 
REMARK    8  A    between atoms: C_18  and  C_19 
ROOT
ATOM      1  C   UNL d   1      26.722 -15.190  -4.538  0.00  0.00     0.260 C 
ATOM      2  O   UNL d   1      26.655 -15.217  -5.770  0.00  0.00    -0.269 OA
ATOM      3  N   UNL d   1      27.896 -15.544  -3.885  0.00  0.00    -0.266 N 
ATOM      4  H   UNL d   1      28.002 -15.535  -2.869  0.00  0.00     0.190 HD
ENDROOT
BRANCH   3   5
ATOM      5  N   UNL d   1      29.083 -15.959  -4.626  0.00  0.00    -0.273 N 
ATOM      6  H   UNL d   1      29.178 -15.536  -5.548  0.00  0.00     0.189 HD
BRANCH   5   7
ATOM      7  C   UNL d   1      29.975 -16.861  -4.023  0.00  0.00     0.193 C 
ATOM      8  S   UNL d   1      29.889 -17.079  -2.346  0.00  0.00    -0.039 SA
BRANCH   7   9
ATOM      9  N   UNL d   1      30.876 -17.522  -4.897  0.00  0.00    -0.303 N 
ATOM     10  C   UNL d   1      30.898 -17.371  -6.291  0.00  0.00     0.224 C 
ATOM     11  O   UNL d   1      30.029 -16.730  -6.894  0.00  0.00    -0.273 OA
ATOM     12  H   UNL d   1      31.551 -18.161  -4.495  0.00  0.00     0.171 HD
BRANCH  10  13
ATOM     13  C   UNL d   1      31.988 -18.061  -7.133  0.00  0.00     0.107 C 
BRANCH  13  14
ATOM     14  C   UNL d   1      31.552 -19.524  -7.494  0.00  0.00    -0.014 C 
ATOM     15  C   UNL d   1      30.404 -20.024  -6.599  0.00  0.00     0.010 C 
ATOM     16  C   UNL d   1      31.111 -19.672  -8.953  0.00  0.00     0.010 C 
ENDBRANCH  13  14
ENDBRANCH  10  13
ENDBRANCH   7   9
ENDBRANCH   5   7
ENDBRANCH   3   5
BRANCH   1  17
ATOM     17  C   UNL d   1      25.530 -14.770  -3.619  0.00  0.00     0.280 C 
BRANCH  17  18
ATOM     18  O   UNL d   1      25.890 -14.828  -2.230  0.00  0.00    -0.342 OA
BRANCH  18  19
ATOM     19  C   UNL d   1      25.519 -15.924  -1.491  0.00  0.00     0.069 A 
ATOM     20  C   UNL d   1      26.543 -16.554  -0.766  0.00  0.00     0.037 A 
ATOM     21  C   UNL d   1      26.282 -17.686   0.017  0.00  0.00     0.003 A 
ATOM     22  C   UNL d   1      24.990 -18.200   0.091  0.00  0.00     0.007 A 
ATOM     23  C   UNL d   1      23.955 -17.581  -0.617  0.00  0.00    -0.059 A 
ATOM     24  C   UNL d   1      22.550 -18.100  -0.541  0.00  0.00     0.048 C 
ATOM     25  C   UNL d   1      24.230 -16.447  -1.407  0.00  0.00     0.043 A 
ENDBRANCH  18  19
ENDBRANCH  17  18
ENDBRANCH   1  17
TORSDOF 8
ENDMDL
