MODEL 1
REMARK VINA RESULT:   -26.855      0.000      0.000
REMARK INTER + INTRA:         -28.273
REMARK INTER:                 -28.048
REMARK INTRA:                  -0.225
REMARK CONF_INDEPENDENT:        1.193
REMARK UNBOUND:                -0.225
REMARK  4 active torsions:
REMARK  status: ('A' for Active; 'I' for Inactive)
REMARK       I    between atoms: C_2  and  N_3 
REMARK    1  A    between atoms: C_2  and  C_11 
REMARK    2  A    between atoms: N_3  and  N_4 
REMARK    3  A    between atoms: C_5  and  C_6 
REMARK    4  A    between atoms: C_14  and  O_15 
ROOT
ATOM      1  O   UNL d   1      22.551 -19.424  -0.483  0.00  0.00    -0.266 OA
ATOM      2  C   UNL d   1      22.296 -18.301  -0.923  0.00  0.00     0.271 C 
ATOM      3  N   UNL d   1      21.011 -17.812  -1.193  0.00  0.00    -0.243 N 
ATOM      4  H   UNL d   1      20.880 -16.904  -1.625  0.00  0.00     0.192 HD
ENDROOT
BRANCH   2   5
ATOM      5  C   UNL d   1      23.444 -17.382  -1.223  0.00  0.00     0.033 A 
ATOM      6  C   UNL d   1      24.775 -17.803  -1.039  0.00  0.00     0.020 A 
ATOM      7  C   UNL d   1      25.851 -16.952  -1.356  0.00  0.00     0.037 A 
ATOM      8  C   UNL d   1      25.589 -15.671  -1.829  0.00  0.00     0.065 A 
ATOM      9  C   UNL d   1      24.278 -15.222  -1.951  0.00  0.00     0.037 A 
ATOM     10  C   UNL d   1      23.207 -16.070  -1.644  0.00  0.00     0.020 A 
BRANCH   8  11
ATOM     11  O   UNL d   1      26.577 -14.801  -2.188  0.00  0.00    -0.361 OA
ATOM     12  H   UNL d   1      27.134 -14.596  -1.420  0.00  0.00     0.217 HD
ENDBRANCH   8  11
ENDBRANCH   2   5
BRANCH   3  13
ATOM     13  N   UNL d   1      19.904 -18.586  -0.897  0.00  0.00    -0.182 NA
ATOM     14  C   UNL d   1      19.992 -19.476   0.045  0.00  0.00     0.168 C 
BRANCH  14  15
ATOM     15  C   UNL d   1      18.858 -20.336   0.351  0.00  0.00     0.051 A 
ATOM     16  C   UNL d   1      18.487 -20.833   1.592  0.00  0.00     0.032 A 
ATOM     17  C   UNL d   1      17.299 -21.587   1.446  0.00  0.00     0.019 A 
ATOM     18  C   UNL d   1      16.977 -21.575   0.111  0.00  0.00     0.088 A 
ATOM     19  N   UNL d   1      17.919 -20.818  -0.546  0.00  0.00    -0.365 N 
ATOM     20  H   UNL d   1      17.929 -20.682  -1.549  0.00  0.00     0.165 HD
ENDBRANCH  14  15
ENDBRANCH   3  13
TORSDOF 4
ENDMDL
