MODEL 1
REMARK VINA RESULT:    -9.553      0.000      0.000
REMARK INTER + INTRA:         -14.310
REMARK INTER:                 -12.536
REMARK INTRA:                  -1.773
REMARK CONF_INDEPENDENT:        2.983
REMARK UNBOUND:                -1.773
REMARK  10 active torsions:
REMARK  status: ('A' for Active; 'I' for Inactive)
REMARK    1  A    between atoms: C_2  and  C_3 
REMARK    2  A    between atoms: C_3  and  C_4 
REMARK    3  A    between atoms: C_4  and  O_5 
REMARK    4  A    between atoms: O_5  and  C_6 
REMARK    5  A    between atoms: C_10  and  N_11 
REMARK       I    between atoms: N_11  and  C_12 
REMARK    6  A    between atoms: C_12  and  C_14 
REMARK    7  A    between atoms: C_14  and  N_15 
REMARK    8  A    between atoms: N_15  and  C_16 
REMARK    9  A    between atoms: C_21  and  C_22 
REMARK       I    between atoms: C_22  and  N_24 
REMARK   10  A    between atoms: N_24  and  C_25 
ROOT
ATOM      1  N   UNL d   1      25.160 -13.778  -3.077  0.00  0.00    -0.381 N 
ATOM      2  H   UNL d   1      25.423 -12.869  -2.675  0.00  0.00     0.160 HD
ENDROOT
BRANCH   1   3
ATOM      3  C   UNL d   1      25.218 -13.801  -4.542  0.00  0.00     0.223 C 
BRANCH   3   4
ATOM      4  C   UNL d   1      26.311 -14.793  -4.937  0.00  0.00     0.239 C 
ATOM      5  N   UNL d   1      27.584 -14.575  -4.406  0.00  0.00    -0.326 N 
ATOM      6  H   UNL d   1      27.728 -13.796  -3.774  0.00  0.00     0.169 HD
ATOM      7  O   UNL d   1      25.990 -15.701  -5.708  0.00  0.00    -0.271 OA
BRANCH   5   8
ATOM      8  C   UNL d   1      28.701 -15.425  -4.645  0.00  0.00     0.037 A 
ATOM      9  C   UNL d   1      29.247 -16.212  -3.629  0.00  0.00     0.029 A 
ATOM     10  C   UNL d   1      30.303 -17.096  -3.919  0.00  0.00     0.005 A 
ATOM     11  C   UNL d   1      30.855 -17.156  -5.206  0.00  0.00     0.037 A 
ATOM     12  C   UNL d   1      30.323 -16.376  -6.218  0.00  0.00     0.070 A 
ATOM     13  C   UNL d   1      29.262 -15.535  -5.921  0.00  0.00     0.066 A 
BRANCH  12  14
ATOM     14  O   UNL d   1      30.797 -16.554  -7.490  0.00  0.00    -0.351 OA
BRANCH  14  15
ATOM     15  C   UNL d   1      31.647 -17.694  -7.681  0.00  0.00     0.175 C 
BRANCH  15  16
ATOM     16  C   UNL d   1      30.780 -18.946  -7.709  0.00  0.00     0.026 C 
BRANCH  16  17
ATOM     17  C   UNL d   1      31.635 -20.210  -7.763  0.00  0.00    -0.002 C 
ATOM     18  C   UNL d   1      31.400 -21.076  -6.539  0.00  0.00     0.005 C 
ENDBRANCH  16  17
ENDBRANCH  15  16
ENDBRANCH  14  15
ENDBRANCH  12  14
ENDBRANCH   5   8
ENDBRANCH   3   4
ENDBRANCH   1   3
BRANCH   1  19
ATOM     19  C   UNL d   1      25.322 -14.855  -2.243  0.00  0.00     0.029 A 
ATOM     20  C   UNL d   1      26.542 -14.995  -1.575  0.00  0.00     0.031 A 
ATOM     21  C   UNL d   1      26.794 -16.088  -0.757  0.00  0.00     0.027 A 
ATOM     22  C   UNL d   1      25.799 -17.031  -0.532  0.00  0.00     0.049 A 
ATOM     23 CL   UNL d   1      26.243 -18.259   0.614  0.00  0.00    -0.083 Cl
ATOM     24  C   UNL d   1      24.553 -16.905  -1.189  0.00  0.00     0.055 A 
ATOM     25  C   UNL d   1      24.326 -15.800  -2.020  0.00  0.00     0.048 A 
BRANCH  24  26
ATOM     26  C   UNL d   1      23.522 -17.954  -1.057  0.00  0.00     0.253 C 
ATOM     27  O   UNL d   1      23.410 -18.723  -2.009  0.00  0.00    -0.268 OA
ATOM     28  N   UNL d   1      22.718 -18.040   0.074  0.00  0.00    -0.352 N 
ATOM     29  H   UNL d   1      22.817 -17.388   0.836  0.00  0.00     0.163 HD
BRANCH  28  30
ATOM     30  C   UNL d   1      21.648 -19.040   0.231  0.00  0.00     0.084 C 
ATOM     31  C   UNL d   1      21.011 -18.950   1.627  0.00  0.00     0.025 C 
ATOM     32  C   UNL d   1      19.817 -19.900   1.774  0.00  0.00     0.002 C 
ATOM     33  C   UNL d   1      18.784 -19.700   0.670  0.00  0.00     0.000 C 
ATOM     34  C   UNL d   1      19.418 -19.897  -0.697  0.00  0.00     0.002 C 
ATOM     35  C   UNL d   1      20.571 -18.944  -0.854  0.00  0.00     0.025 C 
ENDBRANCH  28  30
ENDBRANCH  24  26
ENDBRANCH   1  19
TORSDOF 10
ENDMDL
MODEL 2
REMARK VINA RESULT:    -9.538      2.688      9.481
REMARK INTER + INTRA:         -14.266
REMARK INTER:                 -12.521
REMARK INTRA:                  -1.745
REMARK CONF_INDEPENDENT:        2.983
REMARK UNBOUND:                -1.745
REMARK  10 active torsions:
REMARK  status: ('A' for Active; 'I' for Inactive)
REMARK    1  A    between atoms: C_2  and  C_3 
REMARK    2  A    between atoms: C_3  and  C_4 
REMARK    3  A    between atoms: C_4  and  O_5 
REMARK    4  A    between atoms: O_5  and  C_6 
REMARK    5  A    between atoms: C_10  and  N_11 
REMARK       I    between atoms: N_11  and  C_12 
REMARK    6  A    between atoms: C_12  and  C_14 
REMARK    7  A    between atoms: C_14  and  N_15 
REMARK    8  A    between atoms: N_15  and  C_16 
REMARK    9  A    between atoms: C_21  and  C_22 
REMARK       I    between atoms: C_22  and  N_24 
REMARK   10  A    between atoms: N_24  and  C_25 
ROOT
ATOM      1  N   UNL d   1      25.780 -12.505  -4.550  0.00  0.00    -0.381 N 
ATOM      2  H   UNL d   1      24.888 -12.665  -5.035  0.00  0.00     0.160 HD
ENDROOT
BRANCH   1   3
ATOM      3  C   UNL d   1      25.680 -12.650  -3.094  0.00  0.00     0.223 C 
BRANCH   3   4
ATOM      4  C   UNL d   1      25.073 -14.025  -2.816  0.00  0.00     0.239 C 
ATOM      5  N   UNL d   1      25.563 -14.718  -1.708  0.00  0.00    -0.326 N 
ATOM      6  H   UNL d   1      26.272 -14.285  -1.128  0.00  0.00     0.169 HD
ATOM      7  O   UNL d   1      24.209 -14.424  -3.602  0.00  0.00    -0.271 OA
BRANCH   5   8
ATOM      8  C   UNL d   1      25.080 -15.991  -1.290  0.00  0.00     0.037 A 
ATOM      9  C   UNL d   1      25.945 -16.971  -0.797  0.00  0.00     0.029 A 
ATOM     10  C   UNL d   1      25.423 -18.190  -0.323  0.00  0.00     0.005 A 
ATOM     11  C   UNL d   1      24.050 -18.458  -0.394  0.00  0.00     0.037 A 
ATOM     12  C   UNL d   1      23.186 -17.495  -0.886  0.00  0.00     0.070 A 
ATOM     13  C   UNL d   1      23.715 -16.287  -1.317  0.00  0.00     0.066 A 
BRANCH  12  14
ATOM     14  O   UNL d   1      21.840 -17.735  -0.819  0.00  0.00    -0.351 OA
BRANCH  14  15
ATOM     15  C   UNL d   1      21.459 -18.932  -0.126  0.00  0.00     0.175 C 
BRANCH  15  16
ATOM     16  C   UNL d   1      20.060 -19.329  -0.577  0.00  0.00     0.026 C 
BRANCH  16  17
ATOM     17  C   UNL d   1      19.499 -20.455   0.289  0.00  0.00    -0.002 C 
ATOM     18  C   UNL d   1      19.051 -19.928   1.640  0.00  0.00     0.005 C 
ENDBRANCH  16  17
ENDBRANCH  15  16
ENDBRANCH  14  15
ENDBRANCH  12  14
ENDBRANCH   5   8
ENDBRANCH   3   4
ENDBRANCH   1   3
BRANCH   1  19
ATOM     19  C   UNL d   1      26.904 -12.710  -5.308  0.00  0.00     0.029 A 
ATOM     20  C   UNL d   1      27.182 -11.804  -6.335  0.00  0.00     0.031 A 
ATOM     21  C   UNL d   1      28.273 -11.978  -7.176  0.00  0.00     0.027 A 
ATOM     22  C   UNL d   1      29.154 -13.031  -6.959  0.00  0.00     0.049 A 
ATOM     23 CL   UNL d   1      30.527 -13.024  -8.024  0.00  0.00    -0.083 Cl
ATOM     24  C   UNL d   1      28.899 -13.956  -5.921  0.00  0.00     0.055 A 
ATOM     25  C   UNL d   1      27.784 -13.765  -5.093  0.00  0.00     0.048 A 
BRANCH  24  26
ATOM     26  C   UNL d   1      29.755 -15.145  -5.744  0.00  0.00     0.253 C 
ATOM     27  O   UNL d   1      30.211 -15.320  -4.616  0.00  0.00    -0.268 OA
ATOM     28  N   UNL d   1      30.039 -15.997  -6.806  0.00  0.00    -0.352 N 
ATOM     29  H   UNL d   1      29.667 -15.825  -7.728  0.00  0.00     0.163 HD
BRANCH  28  30
ATOM     30  C   UNL d   1      30.922 -17.170  -6.689  0.00  0.00     0.084 C 
ATOM     31  C   UNL d   1      30.396 -18.152  -5.631  0.00  0.00     0.025 C 
ATOM     32  C   UNL d   1      31.232 -19.435  -5.573  0.00  0.00     0.002 C 
ATOM     33  C   UNL d   1      31.364 -20.098  -6.941  0.00  0.00     0.000 C 
ATOM     34  C   UNL d   1      31.983 -19.137  -7.942  0.00  0.00     0.002 C 
ATOM     35  C   UNL d   1      31.146 -17.891  -8.022  0.00  0.00     0.025 C 
ENDBRANCH  28  30
ENDBRANCH  24  26
ENDBRANCH   1  19
TORSDOF 10
ENDMDL
MODEL 3
REMARK VINA RESULT:    -9.146      2.494      9.262
REMARK INTER + INTRA:         -13.645
REMARK INTER:                 -12.129
REMARK INTRA:                  -1.516
REMARK CONF_INDEPENDENT:        2.983
REMARK UNBOUND:                -1.516
REMARK  10 active torsions:
REMARK  status: ('A' for Active; 'I' for Inactive)
REMARK    1  A    between atoms: C_2  and  C_3 
REMARK    2  A    between atoms: C_3  and  C_4 
REMARK    3  A    between atoms: C_4  and  O_5 
REMARK    4  A    between atoms: O_5  and  C_6 
REMARK    5  A    between atoms: C_10  and  N_11 
REMARK       I    between atoms: N_11  and  C_12 
REMARK    6  A    between atoms: C_12  and  C_14 
REMARK    7  A    between atoms: C_14  and  N_15 
REMARK    8  A    between atoms: N_15  and  C_16 
REMARK    9  A    between atoms: C_21  and  C_22 
REMARK       I    between atoms: C_22  and  N_24 
REMARK   10  A    between atoms: N_24  and  C_25 
ROOT
ATOM      1  N   UNL d   1      26.445 -13.199  -4.779  0.00  0.00    -0.381 N 
ATOM      2  H   UNL d   1      25.657 -13.096  -5.431  0.00  0.00     0.160 HD
ENDROOT
BRANCH   1   3
ATOM      3  C   UNL d   1      26.038 -13.172  -3.371  0.00  0.00     0.223 C 
BRANCH   3   4
ATOM      4  C   UNL d   1      25.515 -14.565  -3.023  0.00  0.00     0.239 C 
ATOM      5  N   UNL d   1      25.509 -14.918  -1.673  0.00  0.00    -0.326 N 
ATOM      6  H   UNL d   1      25.823 -14.243  -0.984  0.00  0.00     0.169 HD
ATOM      7  O   UNL d   1      25.155 -15.278  -3.964  0.00  0.00    -0.271 OA
BRANCH   5   8
ATOM      8  C   UNL d   1      25.021 -16.161  -1.179  0.00  0.00     0.037 A 
ATOM      9  C   UNL d   1      25.864 -17.071  -0.536  0.00  0.00     0.029 A 
ATOM     10  C   UNL d   1      25.333 -18.256   0.006  0.00  0.00     0.005 A 
ATOM     11  C   UNL d   1      23.974 -18.565  -0.142  0.00  0.00     0.037 A 
ATOM     12  C   UNL d   1      23.131 -17.672  -0.780  0.00  0.00     0.070 A 
ATOM     13  C   UNL d   1      23.667 -16.494  -1.279  0.00  0.00     0.066 A 
BRANCH  12  14
ATOM     14  O   UNL d   1      21.789 -17.941  -0.792  0.00  0.00    -0.351 OA
BRANCH  14  15
ATOM     15  C   UNL d   1      21.392 -19.139  -0.108  0.00  0.00     0.175 C 
BRANCH  15  16
ATOM     16  C   UNL d   1      19.891 -19.320  -0.278  0.00  0.00     0.026 C 
BRANCH  16  17
ATOM     17  C   UNL d   1      19.263 -19.943   0.967  0.00  0.00    -0.002 C 
ATOM     18  C   UNL d   1      18.447 -21.171   0.606  0.00  0.00     0.005 C 
ENDBRANCH  16  17
ENDBRANCH  15  16
ENDBRANCH  14  15
ENDBRANCH  12  14
ENDBRANCH   5   8
ENDBRANCH   3   4
ENDBRANCH   1   3
BRANCH   1  19
ATOM     19  C   UNL d   1      27.549 -13.832  -5.290  0.00  0.00     0.029 A 
ATOM     20  C   UNL d   1      28.157 -13.286  -6.424  0.00  0.00     0.031 A 
ATOM     21  C   UNL d   1      29.245 -13.902  -7.027  0.00  0.00     0.027 A 
ATOM     22  C   UNL d   1      29.795 -15.046  -6.461  0.00  0.00     0.049 A 
ATOM     23 CL   UNL d   1      31.224 -15.610  -7.271  0.00  0.00    -0.083 Cl
ATOM     24  C   UNL d   1      29.203 -15.612  -5.308  0.00  0.00     0.055 A 
ATOM     25  C   UNL d   1      28.097 -14.978  -4.725  0.00  0.00     0.048 A 
BRANCH  24  26
ATOM     26  C   UNL d   1      29.697 -16.889  -4.757  0.00  0.00     0.253 C 
ATOM     27  O   UNL d   1      29.812 -16.941  -3.535  0.00  0.00    -0.268 OA
ATOM     28  N   UNL d   1      30.030 -17.955  -5.586  0.00  0.00    -0.352 N 
ATOM     29  H   UNL d   1      29.943 -17.885  -6.588  0.00  0.00     0.163 HD
BRANCH  28  30
ATOM     30  C   UNL d   1      30.568 -19.232  -5.086  0.00  0.00     0.084 C 
ATOM     31  C   UNL d   1      30.879 -20.191  -6.246  0.00  0.00     0.025 C 
ATOM     32  C   UNL d   1      31.550 -21.480  -5.760  0.00  0.00     0.002 C 
ATOM     33  C   UNL d   1      32.788 -21.200  -4.913  0.00  0.00     0.000 C 
ATOM     34  C   UNL d   1      32.432 -20.335  -3.716  0.00  0.00     0.002 C 
ATOM     35  C   UNL d   1      31.801 -19.056  -4.194  0.00  0.00     0.025 C 
ENDBRANCH  28  30
ENDBRANCH  24  26
ENDBRANCH   1  19
TORSDOF 10
ENDMDL
MODEL 4
REMARK VINA RESULT:    -9.103      4.394      8.439
REMARK INTER + INTRA:         -13.714
REMARK INTER:                 -12.086
REMARK INTRA:                  -1.628
REMARK CONF_INDEPENDENT:        2.983
REMARK UNBOUND:                -1.628
REMARK  10 active torsions:
REMARK  status: ('A' for Active; 'I' for Inactive)
REMARK    1  A    between atoms: C_2  and  C_3 
REMARK    2  A    between atoms: C_3  and  C_4 
REMARK    3  A    between atoms: C_4  and  O_5 
REMARK    4  A    between atoms: O_5  and  C_6 
REMARK    5  A    between atoms: C_10  and  N_11 
REMARK       I    between atoms: N_11  and  C_12 
REMARK    6  A    between atoms: C_12  and  C_14 
REMARK    7  A    between atoms: C_14  and  N_15 
REMARK    8  A    between atoms: N_15  and  C_16 
REMARK    9  A    between atoms: C_21  and  C_22 
REMARK       I    between atoms: C_22  and  N_24 
REMARK   10  A    between atoms: N_24  and  C_25 
ROOT
ATOM      1  N   UNL d   1      27.594 -13.045  -3.184  0.00  0.00    -0.381 N 
ATOM      2  H   UNL d   1      28.390 -13.693  -3.230  0.00  0.00     0.160 HD
ENDROOT
BRANCH   1   3
ATOM      3  C   UNL d   1      26.478 -13.439  -4.050  0.00  0.00     0.223 C 
BRANCH   3   4
ATOM      4  C   UNL d   1      25.642 -14.458  -3.277  0.00  0.00     0.239 C 
ATOM      5  N   UNL d   1      26.324 -15.288  -2.386  0.00  0.00    -0.326 N 
ATOM      6  H   UNL d   1      27.325 -15.173  -2.270  0.00  0.00     0.169 HD
ATOM      7  O   UNL d   1      24.431 -14.481  -3.512  0.00  0.00    -0.271 OA
BRANCH   5   8
ATOM      8  C   UNL d   1      25.690 -16.264  -1.564  0.00  0.00     0.037 A 
ATOM      9  C   UNL d   1      26.409 -16.993  -0.615  0.00  0.00     0.029 A 
ATOM     10  C   UNL d   1      25.735 -17.894   0.231  0.00  0.00     0.005 A 
ATOM     11  C   UNL d   1      24.358 -18.114   0.095  0.00  0.00     0.037 A 
ATOM     12  C   UNL d   1      23.638 -17.398  -0.846  0.00  0.00     0.070 A 
ATOM     13  C   UNL d   1      24.313 -16.491  -1.649  0.00  0.00     0.066 A 
BRANCH  12  14
ATOM     14  O   UNL d   1      22.277 -17.537  -0.866  0.00  0.00    -0.351 OA
BRANCH  14  15
ATOM     15  C   UNL d   1      21.764 -18.693  -0.187  0.00  0.00     0.175 C 
BRANCH  15  16
ATOM     16  C   UNL d   1      20.683 -19.325  -1.054  0.00  0.00     0.026 C 
BRANCH  16  17
ATOM     17  C   UNL d   1      19.357 -19.421  -0.304  0.00  0.00    -0.002 C 
ATOM     18  C   UNL d   1      19.287 -20.698   0.513  0.00  0.00     0.005 C 
ENDBRANCH  16  17
ENDBRANCH  15  16
ENDBRANCH  14  15
ENDBRANCH  12  14
ENDBRANCH   5   8
ENDBRANCH   3   4
ENDBRANCH   1   3
BRANCH   1  19
ATOM     19  C   UNL d   1      27.503 -12.311  -2.030  0.00  0.00     0.029 A 
ATOM     20  C   UNL d   1      27.694 -10.928  -2.111  0.00  0.00     0.031 A 
ATOM     21  C   UNL d   1      27.668 -10.129  -0.976  0.00  0.00     0.027 A 
ATOM     22  C   UNL d   1      27.377 -10.691   0.261  0.00  0.00     0.049 A 
ATOM     23 CL   UNL d   1      27.262  -9.529   1.548  0.00  0.00    -0.083 Cl
ATOM     24  C   UNL d   1      27.171 -12.086   0.367  0.00  0.00     0.055 A 
ATOM     25  C   UNL d   1      27.214 -12.874  -0.792  0.00  0.00     0.048 A 
BRANCH  24  26
ATOM     26  C   UNL d   1      26.976 -12.721   1.685  0.00  0.00     0.253 C 
ATOM     27  O   UNL d   1      25.911 -13.314   1.846  0.00  0.00    -0.268 OA
ATOM     28  N   UNL d   1      27.939 -12.628   2.684  0.00  0.00    -0.352 N 
ATOM     29  H   UNL d   1      28.798 -12.122   2.535  0.00  0.00     0.163 HD
BRANCH  28  30
ATOM     30  C   UNL d   1      27.769 -13.207   4.027  0.00  0.00     0.084 C 
ATOM     31  C   UNL d   1      28.507 -14.550   4.145  0.00  0.00     0.025 C 
ATOM     32  C   UNL d   1      28.445 -15.115   5.568  0.00  0.00     0.002 C 
ATOM     33  C   UNL d   1      28.934 -14.112   6.607  0.00  0.00     0.000 C 
ATOM     34  C   UNL d   1      28.119 -12.831   6.538  0.00  0.00     0.002 C 
ATOM     35  C   UNL d   1      28.204 -12.259   5.150  0.00  0.00     0.025 C 
ENDBRANCH  28  30
ENDBRANCH  24  26
ENDBRANCH   1  19
TORSDOF 10
ENDMDL
MODEL 5
REMARK VINA RESULT:    -9.097      1.459      2.307
REMARK INTER + INTRA:         -13.706
REMARK INTER:                 -12.080
REMARK INTRA:                  -1.626
REMARK CONF_INDEPENDENT:        2.983
REMARK UNBOUND:                -1.626
REMARK  10 active torsions:
REMARK  status: ('A' for Active; 'I' for Inactive)
REMARK    1  A    between atoms: C_2  and  C_3 
REMARK    2  A    between atoms: C_3  and  C_4 
REMARK    3  A    between atoms: C_4  and  O_5 
REMARK    4  A    between atoms: O_5  and  C_6 
REMARK    5  A    between atoms: C_10  and  N_11 
REMARK       I    between atoms: N_11  and  C_12 
REMARK    6  A    between atoms: C_12  and  C_14 
REMARK    7  A    between atoms: C_14  and  N_15 
REMARK    8  A    between atoms: N_15  and  C_16 
REMARK    9  A    between atoms: C_21  and  C_22 
REMARK       I    between atoms: C_22  and  N_24 
REMARK   10  A    between atoms: N_24  and  C_25 
ROOT
ATOM      1  N   UNL d   1      24.865 -14.604  -3.484  0.00  0.00    -0.381 N 
ATOM      2  H   UNL d   1      23.883 -14.298  -3.492  0.00  0.00     0.160 HD
ENDROOT
BRANCH   1   3
ATOM      3  C   UNL d   1      25.773 -13.649  -4.128  0.00  0.00     0.223 C 
BRANCH   3   4
ATOM      4  C   UNL d   1      26.762 -14.459  -4.965  0.00  0.00     0.239 C 
ATOM      5  N   UNL d   1      28.042 -13.924  -5.121  0.00  0.00    -0.326 N 
ATOM      6  H   UNL d   1      28.271 -13.048  -4.664  0.00  0.00     0.169 HD
ATOM      7  O   UNL d   1      26.349 -15.514  -5.453  0.00  0.00    -0.271 OA
BRANCH   5   8
ATOM      8  C   UNL d   1      29.091 -14.569  -5.838  0.00  0.00     0.037 A 
ATOM      9  C   UNL d   1      29.935 -13.854  -6.691  0.00  0.00     0.029 A 
ATOM     10  C   UNL d   1      31.007 -14.510  -7.324  0.00  0.00     0.005 A 
ATOM     11  C   UNL d   1      31.206 -15.887  -7.157  0.00  0.00     0.037 A 
ATOM     12  C   UNL d   1      30.372 -16.604  -6.316  0.00  0.00     0.070 A 
ATOM     13  C   UNL d   1      29.340 -15.934  -5.675  0.00  0.00     0.066 A 
BRANCH  12  14
ATOM     14  O   UNL d   1      30.671 -17.917  -6.071  0.00  0.00    -0.351 OA
BRANCH  14  15
ATOM     15  C   UNL d   1      30.259 -18.415  -4.789  0.00  0.00     0.175 C 
BRANCH  15  16
ATOM     16  C   UNL d   1      31.315 -18.039  -3.760  0.00  0.00     0.026 C 
BRANCH  16  17
ATOM     17  C   UNL d   1      30.687 -17.778  -2.393  0.00  0.00    -0.002 C 
ATOM     18  C   UNL d   1      30.558 -16.288  -2.131  0.00  0.00     0.005 C 
ENDBRANCH  16  17
ENDBRANCH  15  16
ENDBRANCH  14  15
ENDBRANCH  12  14
ENDBRANCH   5   8
ENDBRANCH   3   4
ENDBRANCH   1   3
BRANCH   1  19
ATOM     19  C   UNL d   1      25.194 -15.489  -2.490  0.00  0.00     0.029 A 
ATOM     20  C   UNL d   1      26.542 -15.626  -2.147  0.00  0.00     0.031 A 
ATOM     21  C   UNL d   1      26.952 -16.540  -1.187  0.00  0.00     0.027 A 
ATOM     22  C   UNL d   1      26.009 -17.290  -0.495  0.00  0.00     0.049 A 
ATOM     23 CL   UNL d   1      26.688 -18.289   0.754  0.00  0.00    -0.083 Cl
ATOM     24  C   UNL d   1      24.638 -17.162  -0.817  0.00  0.00     0.055 A 
ATOM     25  C   UNL d   1      24.249 -16.241  -1.799  0.00  0.00     0.048 A 
BRANCH  24  26
ATOM     26  C   UNL d   1      23.630 -18.030  -0.179  0.00  0.00     0.253 C 
ATOM     27  O   UNL d   1      23.892 -18.416   0.959  0.00  0.00    -0.268 OA
ATOM     28  N   UNL d   1      22.466 -18.400  -0.845  0.00  0.00    -0.352 N 
ATOM     29  H   UNL d   1      22.280 -18.085  -1.784  0.00  0.00     0.163 HD
BRANCH  28  30
ATOM     30  C   UNL d   1      21.453 -19.299  -0.265  0.00  0.00     0.084 C 
ATOM     31  C   UNL d   1      21.186 -18.951   1.208  0.00  0.00     0.025 C 
ATOM     32  C   UNL d   1      20.052 -19.794   1.799  0.00  0.00     0.002 C 
ATOM     33  C   UNL d   1      18.779 -19.714   0.962  0.00  0.00     0.000 C 
ATOM     34  C   UNL d   1      19.049 -20.163  -0.464  0.00  0.00     0.002 C 
ATOM     35  C   UNL d   1      20.141 -19.315  -1.056  0.00  0.00     0.025 C 
ENDBRANCH  28  30
ENDBRANCH  24  26
ENDBRANCH   1  19
TORSDOF 10
ENDMDL
MODEL 6
REMARK VINA RESULT:    -8.903      3.779      8.344
REMARK INTER + INTRA:         -13.779
REMARK INTER:                 -11.886
REMARK INTRA:                  -1.894
REMARK CONF_INDEPENDENT:        2.983
REMARK UNBOUND:                -1.894
REMARK  10 active torsions:
REMARK  status: ('A' for Active; 'I' for Inactive)
REMARK    1  A    between atoms: C_2  and  C_3 
REMARK    2  A    between atoms: C_3  and  C_4 
REMARK    3  A    between atoms: C_4  and  O_5 
REMARK    4  A    between atoms: O_5  and  C_6 
REMARK    5  A    between atoms: C_10  and  N_11 
REMARK       I    between atoms: N_11  and  C_12 
REMARK    6  A    between atoms: C_12  and  C_14 
REMARK    7  A    between atoms: C_14  and  N_15 
REMARK    8  A    between atoms: N_15  and  C_16 
REMARK    9  A    between atoms: C_21  and  C_22 
REMARK       I    between atoms: C_22  and  N_24 
REMARK   10  A    between atoms: N_24  and  C_25 
ROOT
ATOM      1  N   UNL d   1      26.751 -12.710  -2.938  0.00  0.00    -0.381 N 
ATOM      2  H   UNL d   1      27.068 -11.769  -3.202  0.00  0.00     0.160 HD
ENDROOT
BRANCH   1   3
ATOM      3  C   UNL d   1      25.804 -13.291  -3.895  0.00  0.00     0.223 C 
BRANCH   3   4
ATOM      4  C   UNL d   1      25.457 -14.692  -3.396  0.00  0.00     0.239 C 
ATOM      5  N   UNL d   1      25.156 -14.823  -2.040  0.00  0.00    -0.326 N 
ATOM      6  H   UNL d   1      25.155 -13.997  -1.452  0.00  0.00     0.169 HD
ATOM      7  O   UNL d   1      25.488 -15.605  -4.227  0.00  0.00    -0.271 OA
BRANCH   5   8
ATOM      8  C   UNL d   1      24.777 -16.050  -1.424  0.00  0.00     0.037 A 
ATOM      9  C   UNL d   1      25.732 -16.932  -0.912  0.00  0.00     0.029 A 
ATOM     10  C   UNL d   1      25.318 -18.100  -0.244  0.00  0.00     0.005 A 
ATOM     11  C   UNL d   1      23.958 -18.421  -0.135  0.00  0.00     0.037 A 
ATOM     12  C   UNL d   1      23.006 -17.555  -0.644  0.00  0.00     0.070 A 
ATOM     13  C   UNL d   1      23.431 -16.393  -1.270  0.00  0.00     0.066 A 
BRANCH  12  14
ATOM     14  O   UNL d   1      21.686 -17.831  -0.407  0.00  0.00    -0.351 OA
BRANCH  14  15
ATOM     15  C   UNL d   1      21.364 -19.220  -0.241  0.00  0.00     0.175 C 
BRANCH  15  16
ATOM     16  C   UNL d   1      19.909 -19.430  -0.635  0.00  0.00     0.026 C 
BRANCH  16  17
ATOM     17  C   UNL d   1      19.231 -20.450   0.278  0.00  0.00    -0.002 C 
ATOM     18  C   UNL d   1      19.419 -20.080   1.738  0.00  0.00     0.005 C 
ENDBRANCH  16  17
ENDBRANCH  15  16
ENDBRANCH  14  15
ENDBRANCH  12  14
ENDBRANCH   5   8
ENDBRANCH   3   4
ENDBRANCH   1   3
BRANCH   1  19
ATOM     19  C   UNL d   1      27.602 -13.405  -2.118  0.00  0.00     0.029 A 
ATOM     20  C   UNL d   1      28.728 -14.004  -2.690  0.00  0.00     0.031 A 
ATOM     21  C   UNL d   1      29.604 -14.767  -1.930  0.00  0.00     0.027 A 
ATOM     22  C   UNL d   1      29.408 -14.887  -0.559  0.00  0.00     0.049 A 
ATOM     23 CL   UNL d   1      30.666 -15.770   0.252  0.00  0.00    -0.083 Cl
ATOM     24  C   UNL d   1      28.282 -14.283   0.044  0.00  0.00     0.055 A 
ATOM     25  C   UNL d   1      27.405 -13.528  -0.746  0.00  0.00     0.048 A 
BRANCH  24  26
ATOM     26  C   UNL d   1      27.990 -14.493   1.476  0.00  0.00     0.253 C 
ATOM     27  O   UNL d   1      27.527 -15.590   1.777  0.00  0.00    -0.268 OA
ATOM     28  N   UNL d   1      28.211 -13.490   2.414  0.00  0.00    -0.352 N 
ATOM     29  H   UNL d   1      28.576 -12.591   2.142  0.00  0.00     0.163 HD
BRANCH  28  30
ATOM     30  C   UNL d   1      27.894 -13.638   3.845  0.00  0.00     0.084 C 
ATOM     31  C   UNL d   1      28.757 -14.734   4.490  0.00  0.00     0.025 C 
ATOM     32  C   UNL d   1      28.531 -14.826   6.003  0.00  0.00     0.002 C 
ATOM     33  C   UNL d   1      28.719 -13.480   6.695  0.00  0.00     0.000 C 
ATOM     34  C   UNL d   1      27.780 -12.440   6.108  0.00  0.00     0.002 C 
ATOM     35  C   UNL d   1      28.023 -12.327   4.628  0.00  0.00     0.025 C 
ENDBRANCH  28  30
ENDBRANCH  24  26
ENDBRANCH   1  19
TORSDOF 10
ENDMDL
MODEL 7
REMARK VINA RESULT:    -8.863      1.769      9.262
REMARK INTER + INTRA:         -13.458
REMARK INTER:                 -11.846
REMARK INTRA:                  -1.612
REMARK CONF_INDEPENDENT:        2.983
REMARK UNBOUND:                -1.612
REMARK  10 active torsions:
REMARK  status: ('A' for Active; 'I' for Inactive)
REMARK    1  A    between atoms: C_2  and  C_3 
REMARK    2  A    between atoms: C_3  and  C_4 
REMARK    3  A    between atoms: C_4  and  O_5 
REMARK    4  A    between atoms: O_5  and  C_6 
REMARK    5  A    between atoms: C_10  and  N_11 
REMARK       I    between atoms: N_11  and  C_12 
REMARK    6  A    between atoms: C_12  and  C_14 
REMARK    7  A    between atoms: C_14  and  N_15 
REMARK    8  A    between atoms: N_15  and  C_16 
REMARK    9  A    between atoms: C_21  and  C_22 
REMARK       I    between atoms: C_22  and  N_24 
REMARK   10  A    between atoms: N_24  and  C_25 
ROOT
ATOM      1  N   UNL d   1      27.336 -13.232  -3.654  0.00  0.00    -0.381 N 
ATOM      2  H   UNL d   1      27.698 -12.657  -4.426  0.00  0.00     0.160 HD
ENDROOT
BRANCH   1   3
ATOM      3  C   UNL d   1      25.878 -13.160  -3.514  0.00  0.00     0.223 C 
BRANCH   3   4
ATOM      4  C   UNL d   1      25.388 -14.561  -3.151  0.00  0.00     0.239 C 
ATOM      5  N   UNL d   1      25.263 -14.853  -1.792  0.00  0.00    -0.326 N 
ATOM      6  H   UNL d   1      25.476 -14.134  -1.110  0.00  0.00     0.169 HD
ATOM      7  O   UNL d   1      25.156 -15.331  -4.086  0.00  0.00    -0.271 OA
BRANCH   5   8
ATOM      8  C   UNL d   1      24.786 -16.097  -1.287  0.00  0.00     0.037 A 
ATOM      9  C   UNL d   1      25.658 -17.048  -0.753  0.00  0.00     0.029 A 
ATOM     10  C   UNL d   1      25.143 -18.234  -0.195  0.00  0.00     0.005 A 
ATOM     11  C   UNL d   1      23.767 -18.500  -0.221  0.00  0.00     0.037 A 
ATOM     12  C   UNL d   1      22.896 -17.565  -0.752  0.00  0.00     0.070 A 
ATOM     13  C   UNL d   1      23.419 -16.388  -1.267  0.00  0.00     0.066 A 
BRANCH  12  14
ATOM     14  O   UNL d   1      21.551 -17.795  -0.643  0.00  0.00    -0.351 OA
BRANCH  14  15
ATOM     15  C   UNL d   1      21.183 -19.101  -0.174  0.00  0.00     0.175 C 
BRANCH  15  16
ATOM     16  C   UNL d   1      19.724 -19.349  -0.528  0.00  0.00     0.026 C 
BRANCH  16  17
ATOM     17  C   UNL d   1      19.169 -20.555   0.227  0.00  0.00    -0.002 C 
ATOM     18  C   UNL d   1      18.998 -20.241   1.702  0.00  0.00     0.005 C 
ENDBRANCH  16  17
ENDBRANCH  15  16
ENDBRANCH  14  15
ENDBRANCH  12  14
ENDBRANCH   5   8
ENDBRANCH   3   4
ENDBRANCH   1   3
BRANCH   1  19
ATOM     19  C   UNL d   1      28.133 -14.285  -3.285  0.00  0.00     0.029 A 
ATOM     20  C   UNL d   1      28.185 -14.631  -1.932  0.00  0.00     0.031 A 
ATOM     21  C   UNL d   1      29.011 -15.651  -1.480  0.00  0.00     0.027 A 
ATOM     22  C   UNL d   1      29.752 -16.398  -2.388  0.00  0.00     0.049 A 
ATOM     23 CL   UNL d   1      30.630 -17.711  -1.664  0.00  0.00    -0.083 Cl
ATOM     24  C   UNL d   1      29.709 -16.072  -3.763  0.00  0.00     0.055 A 
ATOM     25  C   UNL d   1      28.877 -15.030  -4.194  0.00  0.00     0.048 A 
BRANCH  24  26
ATOM     26  C   UNL d   1      30.575 -16.774  -4.731  0.00  0.00     0.253 C 
ATOM     27  O   UNL d   1      31.640 -16.224  -5.001  0.00  0.00    -0.268 OA
ATOM     28  N   UNL d   1      30.185 -17.976  -5.312  0.00  0.00    -0.352 N 
ATOM     29  H   UNL d   1      29.299 -18.401  -5.089  0.00  0.00     0.163 HD
BRANCH  28  30
ATOM     30  C   UNL d   1      30.995 -18.689  -6.315  0.00  0.00     0.084 C 
ATOM     31  C   UNL d   1      30.441 -20.101  -6.567  0.00  0.00     0.025 C 
ATOM     32  C   UNL d   1      31.194 -20.820  -7.691  0.00  0.00     0.002 C 
ATOM     33  C   UNL d   1      31.237 -19.995  -8.974  0.00  0.00     0.000 C 
ATOM     34  C   UNL d   1      31.883 -18.644  -8.719  0.00  0.00     0.002 C 
ATOM     35  C   UNL d   1      31.126 -17.925  -7.636  0.00  0.00     0.025 C 
ENDBRANCH  28  30
ENDBRANCH  24  26
ENDBRANCH   1  19
TORSDOF 10
ENDMDL
MODEL 8
REMARK VINA RESULT:    -8.080      2.706      8.456
REMARK INTER + INTRA:         -13.081
REMARK INTER:                 -11.063
REMARK INTRA:                  -2.018
REMARK CONF_INDEPENDENT:        2.983
REMARK UNBOUND:                -2.018
REMARK  10 active torsions:
REMARK  status: ('A' for Active; 'I' for Inactive)
REMARK    1  A    between atoms: C_2  and  C_3 
REMARK    2  A    between atoms: C_3  and  C_4 
REMARK    3  A    between atoms: C_4  and  O_5 
REMARK    4  A    between atoms: O_5  and  C_6 
REMARK    5  A    between atoms: C_10  and  N_11 
REMARK       I    between atoms: N_11  and  C_12 
REMARK    6  A    between atoms: C_12  and  C_14 
REMARK    7  A    between atoms: C_14  and  N_15 
REMARK    8  A    between atoms: N_15  and  C_16 
REMARK    9  A    between atoms: C_21  and  C_22 
REMARK       I    between atoms: C_22  and  N_24 
REMARK   10  A    between atoms: N_24  and  C_25 
ROOT
ATOM      1  N   UNL d   1      27.062 -12.530  -4.626  0.00  0.00    -0.381 N 
ATOM      2  H   UNL d   1      27.374 -11.584  -4.882  0.00  0.00     0.160 HD
ENDROOT
BRANCH   1   3
ATOM      3  C   UNL d   1      25.616 -12.620  -4.402  0.00  0.00     0.223 C 
BRANCH   3   4
ATOM      4  C   UNL d   1      25.330 -14.016  -3.849  0.00  0.00     0.239 C 
ATOM      5  N   UNL d   1      25.707 -14.261  -2.528  0.00  0.00    -0.326 N 
ATOM      6  H   UNL d   1      26.128 -13.514  -1.987  0.00  0.00     0.169 HD
ATOM      7  O   UNL d   1      24.803 -14.824  -4.619  0.00  0.00    -0.271 OA
BRANCH   5   8
ATOM      8  C   UNL d   1      25.478 -15.494  -1.852  0.00  0.00     0.037 A 
ATOM      9  C   UNL d   1      26.538 -16.279  -1.393  0.00  0.00     0.029 A 
ATOM     10  C   UNL d   1      26.274 -17.453  -0.663  0.00  0.00     0.005 A 
ATOM     11  C   UNL d   1      24.957 -17.878  -0.440  0.00  0.00     0.037 A 
ATOM     12  C   UNL d   1      23.901 -17.108  -0.895  0.00  0.00     0.070 A 
ATOM     13  C   UNL d   1      24.181 -15.937  -1.584  0.00  0.00     0.066 A 
BRANCH  12  14
ATOM     14  O   UNL d   1      22.630 -17.480  -0.548  0.00  0.00    -0.351 OA
BRANCH  14  15
ATOM     15  C   UNL d   1      22.230 -18.790  -0.975  0.00  0.00     0.175 C 
BRANCH  15  16
ATOM     16  C   UNL d   1      21.200 -19.328   0.008  0.00  0.00     0.026 C 
BRANCH  16  17
ATOM     17  C   UNL d   1      19.864 -19.596  -0.681  0.00  0.00    -0.002 C 
ATOM     18  C   UNL d   1      18.953 -20.424   0.207  0.00  0.00     0.005 C 
ENDBRANCH  16  17
ENDBRANCH  15  16
ENDBRANCH  14  15
ENDBRANCH  12  14
ENDBRANCH   5   8
ENDBRANCH   3   4
ENDBRANCH   1   3
BRANCH   1  19
ATOM     19  C   UNL d   1      27.884 -13.548  -5.037  0.00  0.00     0.029 A 
ATOM     20  C   UNL d   1      28.165 -13.659  -6.402  0.00  0.00     0.031 A 
ATOM     21  C   UNL d   1      28.946 -14.695  -6.895  0.00  0.00     0.027 A 
ATOM     22  C   UNL d   1      29.523 -15.606  -6.019  0.00  0.00     0.049 A 
ATOM     23 CL   UNL d   1      30.567 -16.758  -6.795  0.00  0.00    -0.083 Cl
ATOM     24  C   UNL d   1      29.260 -15.510  -4.633  0.00  0.00     0.055 A 
ATOM     25  C   UNL d   1      28.459 -14.461  -4.160  0.00  0.00     0.048 A 
BRANCH  24  26
ATOM     26  C   UNL d   1      29.767 -16.532  -3.697  0.00  0.00     0.253 C 
ATOM     27  O   UNL d   1      28.926 -17.073  -2.982  0.00  0.00    -0.268 OA
ATOM     28  N   UNL d   1      31.121 -16.839  -3.623  0.00  0.00    -0.352 N 
ATOM     29  H   UNL d   1      31.796 -16.370  -4.208  0.00  0.00     0.163 HD
BRANCH  28  30
ATOM     30  C   UNL d   1      31.678 -17.818  -2.674  0.00  0.00     0.084 C 
ATOM     31  C   UNL d   1      31.405 -17.395  -1.222  0.00  0.00     0.025 C 
ATOM     32  C   UNL d   1      31.870 -18.456  -0.219  0.00  0.00     0.002 C 
ATOM     33  C   UNL d   1      31.286 -19.832  -0.524  0.00  0.00     0.000 C 
ATOM     34  C   UNL d   1      31.658 -20.271  -1.930  0.00  0.00     0.002 C 
ATOM     35  C   UNL d   1      31.174 -19.245  -2.918  0.00  0.00     0.025 C 
ENDBRANCH  28  30
ENDBRANCH  24  26
ENDBRANCH   1  19
TORSDOF 10
ENDMDL
MODEL 9
REMARK VINA RESULT:    -6.958      2.993      6.149
REMARK INTER + INTRA:         -13.587
REMARK INTER:                  -9.941
REMARK INTRA:                  -3.646
REMARK CONF_INDEPENDENT:        2.983
REMARK UNBOUND:                -3.646
REMARK  10 active torsions:
REMARK  status: ('A' for Active; 'I' for Inactive)
REMARK    1  A    between atoms: C_2  and  C_3 
REMARK    2  A    between atoms: C_3  and  C_4 
REMARK    3  A    between atoms: C_4  and  O_5 
REMARK    4  A    between atoms: O_5  and  C_6 
REMARK    5  A    between atoms: C_10  and  N_11 
REMARK       I    between atoms: N_11  and  C_12 
REMARK    6  A    between atoms: C_12  and  C_14 
REMARK    7  A    between atoms: C_14  and  N_15 
REMARK    8  A    between atoms: N_15  and  C_16 
REMARK    9  A    between atoms: C_21  and  C_22 
REMARK       I    between atoms: C_22  and  N_24 
REMARK   10  A    between atoms: N_24  and  C_25 
ROOT
ATOM      1  N   UNL d   1      29.219 -14.942  -7.152  0.00  0.00    -0.381 N 
ATOM      2  H   UNL d   1      29.222 -14.455  -8.057  0.00  0.00     0.160 HD
ENDROOT
BRANCH   1   3
ATOM      3  C   UNL d   1      30.421 -15.749  -6.926  0.00  0.00     0.223 C 
BRANCH   3   4
ATOM      4  C   UNL d   1      30.222 -16.502  -5.612  0.00  0.00     0.239 C 
ATOM      5  N   UNL d   1      30.295 -15.751  -4.437  0.00  0.00    -0.326 N 
ATOM      6  H   UNL d   1      30.451 -14.752  -4.499  0.00  0.00     0.169 HD
ATOM      7  O   UNL d   1      30.030 -17.719  -5.688  0.00  0.00    -0.271 OA
BRANCH   5   8
ATOM      8  C   UNL d   1      30.096 -16.293  -3.135  0.00  0.00     0.037 A 
ATOM      9  C   UNL d   1      30.861 -17.365  -2.668  0.00  0.00     0.029 A 
ATOM     10  C   UNL d   1      30.688 -17.824  -1.349  0.00  0.00     0.005 A 
ATOM     11  C   UNL d   1      29.717 -17.258  -0.513  0.00  0.00     0.037 A 
ATOM     12  C   UNL d   1      28.952 -16.198  -0.968  0.00  0.00     0.070 A 
ATOM     13  C   UNL d   1      29.159 -15.737  -2.260  0.00  0.00     0.066 A 
BRANCH  12  14
ATOM     14  O   UNL d   1      28.106 -15.581  -0.086  0.00  0.00    -0.351 OA
BRANCH  14  15
ATOM     15  C   UNL d   1      28.738 -14.750   0.899  0.00  0.00     0.175 C 
BRANCH  15  16
ATOM     16  C   UNL d   1      27.732 -14.456   2.003  0.00  0.00     0.026 C 
BRANCH  16  17
ATOM     17  C   UNL d   1      26.787 -13.325   1.603  0.00  0.00    -0.002 C 
ATOM     18  C   UNL d   1      27.164 -12.757   0.247  0.00  0.00     0.005 C 
ENDBRANCH  16  17
ENDBRANCH  15  16
ENDBRANCH  14  15
ENDBRANCH  12  14
ENDBRANCH   5   8
ENDBRANCH   3   4
ENDBRANCH   1   3
BRANCH   1  19
ATOM     19  C   UNL d   1      28.434 -14.371  -6.184  0.00  0.00     0.029 A 
ATOM     20  C   UNL d   1      28.487 -12.983  -6.024  0.00  0.00     0.031 A 
ATOM     21  C   UNL d   1      27.760 -12.343  -5.029  0.00  0.00     0.027 A 
ATOM     22  C   UNL d   1      26.903 -13.076  -4.216  0.00  0.00     0.049 A 
ATOM     23 CL   UNL d   1      25.980 -12.101  -3.114  0.00  0.00    -0.083 Cl
ATOM     24  C   UNL d   1      26.825 -14.480  -4.365  0.00  0.00     0.055 A 
ATOM     25  C   UNL d   1      27.579 -15.105  -5.368  0.00  0.00     0.048 A 
BRANCH  24  26
ATOM     26  C   UNL d   1      26.012 -15.292  -3.438  0.00  0.00     0.253 C 
ATOM     27  O   UNL d   1      25.156 -16.006  -3.955  0.00  0.00    -0.268 OA
ATOM     28  N   UNL d   1      26.201 -15.226  -2.062  0.00  0.00    -0.352 N 
ATOM     29  H   UNL d   1      26.898 -14.620  -1.658  0.00  0.00     0.163 HD
BRANCH  28  30
ATOM     30  C   UNL d   1      25.385 -15.983  -1.097  0.00  0.00     0.084 C 
ATOM     31  C   UNL d   1      23.899 -15.951  -1.487  0.00  0.00     0.025 C 
ATOM     32  C   UNL d   1      23.045 -16.829  -0.566  0.00  0.00     0.002 C 
ATOM     33  C   UNL d   1      23.574 -18.257  -0.480  0.00  0.00     0.000 C 
ATOM     34  C   UNL d   1      25.013 -18.265   0.008  0.00  0.00     0.002 C 
ATOM     35  C   UNL d   1      25.857 -17.428  -0.914  0.00  0.00     0.025 C 
ENDBRANCH  28  30
ENDBRANCH  24  26
ENDBRANCH   1  19
TORSDOF 10
ENDMDL
