MODEL 1
REMARK VINA RESULT:    -8.943      0.000      0.000
REMARK INTER + INTRA:         -11.613
REMARK INTER:                 -11.031
REMARK INTRA:                  -0.582
REMARK CONF_INDEPENDENT:        2.088
REMARK UNBOUND:                -0.582
REMARK  7 active torsions:
REMARK  status: ('A' for Active; 'I' for Inactive)
REMARK    1  A    between atoms: C_2  and  C_3 
REMARK       I    between atoms: C_2  and  N_14 
REMARK    2  A    between atoms: C_3  and  C_4 
REMARK    3  A    between atoms: C_4  and  C_5 
REMARK    4  A    between atoms: C_5  and  N_6 
REMARK       I    between atoms: N_6  and  C_7 
REMARK    5  A    between atoms: C_7  and  C_9 
REMARK    6  A    between atoms: N_14  and  N_15 
REMARK    7  A    between atoms: N_15  and  C_16 
ROOT
ATOM      1  O   UNL d   1      22.951 -16.087  -0.874  0.00  0.00    -0.272 OA
ATOM      2  C   UNL d   1      24.082 -16.165  -1.358  0.00  0.00     0.232 C 
ATOM      3  N   UNL d   1      24.438 -15.327  -2.401  0.00  0.00    -0.287 N 
ATOM      4  H   UNL d   1      23.647 -14.842  -2.820  0.00  0.00     0.184 HD
ENDROOT
BRANCH   2   5
ATOM      5  C   UNL d   1      25.129 -17.129  -0.812  0.00  0.00     0.106 C 
BRANCH   5   6
ATOM      6  C   UNL d   1      24.504 -18.424  -0.260  0.00  0.00     0.029 C 
BRANCH   6   7
ATOM      7  C   UNL d   1      23.321 -18.901  -1.106  0.00  0.00     0.123 C 
BRANCH   7   8
ATOM      8  N   UNL d   1      22.253 -19.494  -0.317  0.00  0.00    -0.357 N 
ATOM      9  C   UNL d   1      20.949 -19.050  -0.433  0.00  0.00     0.252 C 
ATOM     10  O   UNL d   1      20.617 -18.142  -1.195  0.00  0.00    -0.268 OA
ATOM     11  H   UNL d   1      22.438 -20.319   0.239  0.00  0.00     0.162 HD
BRANCH   9  12
ATOM     12  C   UNL d   1      19.977 -19.755   0.405  0.00  0.00     0.038 A 
ATOM     13  C   UNL d   1      19.912 -19.735   1.840  0.00  0.00     0.024 A 
ATOM     14  C   UNL d   1      18.871 -20.484   2.344  0.00  0.00     0.050 A 
ATOM     15  S   UNL d   1      17.954 -21.215   1.102  0.00  0.00    -0.113 SA
ATOM     16  C   UNL d   1      18.931 -20.502  -0.111  0.00  0.00     0.066 A 
ENDBRANCH   9  12
ENDBRANCH   7   8
ENDBRANCH   6   7
ENDBRANCH   5   6
ENDBRANCH   2   5
BRANCH   3  17
ATOM     17  N   UNL d   1      25.488 -15.631  -3.283  0.00  0.00    -0.203 NA
ATOM     18  H   UNL d   1      26.247 -16.189  -2.884  0.00  0.00     0.153 HD
BRANCH  17  19
ATOM     19  C   UNL d   1      26.001 -14.549  -4.053  0.00  0.00     0.029 A 
ATOM     20  C   UNL d   1      25.508 -13.234  -4.019  0.00  0.00     0.025 A 
ATOM     21  C   UNL d   1      26.049 -12.235  -4.848  0.00  0.00     0.003 A 
ATOM     22  C   UNL d   1      27.082 -12.536  -5.732  0.00  0.00     0.024 A 
ATOM     23  C   UNL d   1      27.581 -13.833  -5.773  0.00  0.00     0.035 A 
ATOM     24 CL   UNL d   1      28.833 -14.225  -6.889  0.00  0.00    -0.084 Cl
ATOM     25  C   UNL d   1      27.064 -14.823  -4.931  0.00  0.00     0.048 A 
ENDBRANCH  17  19
ENDBRANCH   3  17
TORSDOF 7
ENDMDL
MODEL 2
REMARK VINA RESULT:    -8.587      2.505      3.096
REMARK INTER + INTRA:         -11.394
REMARK INTER:                 -10.675
REMARK INTRA:                  -0.719
REMARK CONF_INDEPENDENT:        2.088
REMARK UNBOUND:                -0.719
REMARK  7 active torsions:
REMARK  status: ('A' for Active; 'I' for Inactive)
REMARK    1  A    between atoms: C_2  and  C_3 
REMARK       I    between atoms: C_2  and  N_14 
REMARK    2  A    between atoms: C_3  and  C_4 
REMARK    3  A    between atoms: C_4  and  C_5 
REMARK    4  A    between atoms: C_5  and  N_6 
REMARK       I    between atoms: N_6  and  C_7 
REMARK    5  A    between atoms: C_7  and  C_9 
REMARK    6  A    between atoms: N_14  and  N_15 
REMARK    7  A    between atoms: N_15  and  C_16 
ROOT
ATOM      1  O   UNL d   1      27.007 -19.157   0.857  0.00  0.00    -0.272 OA
ATOM      2  C   UNL d   1      27.021 -18.093   0.237  0.00  0.00     0.232 C 
ATOM      3  N   UNL d   1      28.176 -17.696  -0.415  0.00  0.00    -0.287 N 
ATOM      4  H   UNL d   1      28.997 -18.238  -0.151  0.00  0.00     0.184 HD
ENDROOT
BRANCH   2   5
ATOM      5  C   UNL d   1      25.783 -17.210   0.120  0.00  0.00     0.106 C 
BRANCH   5   6
ATOM      6  C   UNL d   1      24.587 -17.956  -0.501  0.00  0.00     0.029 C 
BRANCH   6   7
ATOM      7  C   UNL d   1      23.317 -17.101  -0.515  0.00  0.00     0.123 C 
BRANCH   7   8
ATOM      8  N   UNL d   1      22.162 -17.781   0.051  0.00  0.00    -0.357 N 
ATOM      9  C   UNL d   1      21.563 -18.837  -0.609  0.00  0.00     0.252 C 
ATOM     10  O   UNL d   1      21.959 -19.259  -1.696  0.00  0.00    -0.268 OA
ATOM     11  H   UNL d   1      21.861 -17.561   0.991  0.00  0.00     0.162 HD
BRANCH   9  12
ATOM     12  C   UNL d   1      20.425 -19.439   0.089  0.00  0.00     0.038 A 
ATOM     13  C   UNL d   1      19.289 -20.075  -0.518  0.00  0.00     0.024 A 
ATOM     14  C   UNL d   1      18.388 -20.565   0.403  0.00  0.00     0.050 A 
ATOM     15  S   UNL d   1      18.897 -20.273   2.008  0.00  0.00    -0.113 SA
ATOM     16  C   UNL d   1      20.339 -19.522   1.470  0.00  0.00     0.066 A 
ENDBRANCH   9  12
ENDBRANCH   7   8
ENDBRANCH   6   7
ENDBRANCH   5   6
ENDBRANCH   2   5
BRANCH   3  17
ATOM     17  N   UNL d   1      28.428 -16.356  -0.748  0.00  0.00    -0.203 NA
ATOM     18  H   UNL d   1      28.148 -15.670  -0.043  0.00  0.00     0.153 HD
BRANCH  17  19
ATOM     19  C   UNL d   1      28.027 -15.941  -2.050  0.00  0.00     0.029 A 
ATOM     20  C   UNL d   1      28.816 -16.052  -3.207  0.00  0.00     0.025 A 
ATOM     21  C   UNL d   1      28.357 -15.576  -4.447  0.00  0.00     0.003 A 
ATOM     22  C   UNL d   1      27.107 -14.971  -4.550  0.00  0.00     0.024 A 
ATOM     23  C   UNL d   1      26.315 -14.857  -3.413  0.00  0.00     0.035 A 
ATOM     24 CL   UNL d   1      24.784 -14.076  -3.522  0.00  0.00    -0.084 Cl
ATOM     25  C   UNL d   1      26.757 -15.354  -2.183  0.00  0.00     0.048 A 
ENDBRANCH  17  19
ENDBRANCH   3  17
TORSDOF 7
ENDMDL
MODEL 3
REMARK VINA RESULT:    -8.469      4.319      5.043
REMARK INTER + INTRA:         -11.110
REMARK INTER:                 -10.558
REMARK INTRA:                  -0.552
REMARK CONF_INDEPENDENT:        2.088
REMARK UNBOUND:                -0.552
REMARK  7 active torsions:
REMARK  status: ('A' for Active; 'I' for Inactive)
REMARK    1  A    between atoms: C_2  and  C_3 
REMARK       I    between atoms: C_2  and  N_14 
REMARK    2  A    between atoms: C_3  and  C_4 
REMARK    3  A    between atoms: C_4  and  C_5 
REMARK    4  A    between atoms: C_5  and  N_6 
REMARK       I    between atoms: N_6  and  C_7 
REMARK    5  A    between atoms: C_7  and  C_9 
REMARK    6  A    between atoms: N_14  and  N_15 
REMARK    7  A    between atoms: N_15  and  C_16 
ROOT
ATOM      1  O   UNL d   1      27.101 -18.579   1.226  0.00  0.00    -0.272 OA
ATOM      2  C   UNL d   1      26.846 -17.552   0.595  0.00  0.00     0.232 C 
ATOM      3  N   UNL d   1      27.848 -16.625   0.365  0.00  0.00    -0.287 N 
ATOM      4  H   UNL d   1      28.684 -16.783   0.925  0.00  0.00     0.184 HD
ENDROOT
BRANCH   2   5
ATOM      5  C   UNL d   1      25.463 -17.285   0.011  0.00  0.00     0.106 C 
BRANCH   5   6
ATOM      6  C   UNL d   1      24.628 -18.571  -0.132  0.00  0.00     0.029 C 
BRANCH   6   7
ATOM      7  C   UNL d   1      23.273 -18.309  -0.795  0.00  0.00     0.123 C 
BRANCH   7   8
ATOM      8  N   UNL d   1      22.186 -19.072  -0.201  0.00  0.00    -0.357 N 
ATOM      9  C   UNL d   1      20.868 -18.785  -0.499  0.00  0.00     0.252 C 
ATOM     10  O   UNL d   1      20.536 -17.885  -1.270  0.00  0.00    -0.268 OA
ATOM     11  H   UNL d   1      22.393 -19.897   0.347  0.00  0.00     0.162 HD
BRANCH   9  12
ATOM     12  C   UNL d   1      19.882 -19.650   0.154  0.00  0.00     0.038 A 
ATOM     13  C   UNL d   1      19.867 -20.035   1.538  0.00  0.00     0.024 A 
ATOM     14  C   UNL d   1      18.798 -20.843   1.861  0.00  0.00     0.050 A 
ATOM     15  S   UNL d   1      17.797 -21.145   0.510  0.00  0.00    -0.113 SA
ATOM     16  C   UNL d   1      18.775 -20.167  -0.500  0.00  0.00     0.066 A 
ENDBRANCH   9  12
ENDBRANCH   7   8
ENDBRANCH   6   7
ENDBRANCH   5   6
ENDBRANCH   2   5
BRANCH   3  17
ATOM     17  N   UNL d   1      27.573 -15.279   0.071  0.00  0.00    -0.203 NA
ATOM     18  H   UNL d   1      28.152 -14.865  -0.663  0.00  0.00     0.153 HD
BRANCH  17  19
ATOM     19  C   UNL d   1      27.454 -14.399   1.184  0.00  0.00     0.029 A 
ATOM     20  C   UNL d   1      26.902 -13.109   1.132  0.00  0.00     0.025 A 
ATOM     21  C   UNL d   1      26.863 -12.289   2.274  0.00  0.00     0.003 A 
ATOM     22  C   UNL d   1      27.385 -12.742   3.483  0.00  0.00     0.024 A 
ATOM     23  C   UNL d   1      27.932 -14.018   3.549  0.00  0.00     0.035 A 
ATOM     24 CL   UNL d   1      28.614 -14.573   5.030  0.00  0.00    -0.084 Cl
ATOM     25  C   UNL d   1      27.948 -14.846   2.422  0.00  0.00     0.048 A 
ENDBRANCH  17  19
ENDBRANCH   3  17
TORSDOF 7
ENDMDL
MODEL 4
REMARK VINA RESULT:    -7.573      4.836      9.596
REMARK INTER + INTRA:         -10.084
REMARK INTER:                  -9.661
REMARK INTRA:                  -0.423
REMARK CONF_INDEPENDENT:        2.088
REMARK UNBOUND:                -0.423
REMARK  7 active torsions:
REMARK  status: ('A' for Active; 'I' for Inactive)
REMARK    1  A    between atoms: C_2  and  C_3 
REMARK       I    between atoms: C_2  and  N_14 
REMARK    2  A    between atoms: C_3  and  C_4 
REMARK    3  A    between atoms: C_4  and  C_5 
REMARK    4  A    between atoms: C_5  and  N_6 
REMARK       I    between atoms: N_6  and  C_7 
REMARK    5  A    between atoms: C_7  and  C_9 
REMARK    6  A    between atoms: N_14  and  N_15 
REMARK    7  A    between atoms: N_15  and  C_16 
ROOT
ATOM      1  O   UNL d   1      25.265 -18.191  -0.179  0.00  0.00    -0.272 OA
ATOM      2  C   UNL d   1      24.115 -17.928  -0.534  0.00  0.00     0.232 C 
ATOM      3  N   UNL d   1      23.112 -18.864  -0.349  0.00  0.00    -0.287 N 
ATOM      4  H   UNL d   1      23.460 -19.791  -0.111  0.00  0.00     0.184 HD
ENDROOT
BRANCH   2   5
ATOM      5  C   UNL d   1      23.744 -16.576  -1.132  0.00  0.00     0.106 C 
BRANCH   5   6
ATOM      6  C   UNL d   1      24.980 -15.707  -1.431  0.00  0.00     0.029 C 
BRANCH   6   7
ATOM      7  C   UNL d   1      26.063 -16.484  -2.184  0.00  0.00     0.123 C 
BRANCH   7   8
ATOM      8  N   UNL d   1      26.764 -15.679  -3.173  0.00  0.00    -0.357 N 
ATOM      9  C   UNL d   1      26.070 -14.886  -4.067  0.00  0.00     0.252 C 
ATOM     10  O   UNL d   1      24.841 -14.813  -4.085  0.00  0.00    -0.268 OA
ATOM     11  H   UNL d   1      27.772 -15.603  -3.136  0.00  0.00     0.162 HD
BRANCH   9  12
ATOM     12  C   UNL d   1      26.906 -14.113  -4.989  0.00  0.00     0.038 A 
ATOM     13  C   UNL d   1      27.053 -12.684  -5.016  0.00  0.00     0.024 A 
ATOM     14  C   UNL d   1      27.928 -12.250  -5.988  0.00  0.00     0.050 A 
ATOM     15  S   UNL d   1      28.587 -13.551  -6.878  0.00  0.00    -0.113 SA
ATOM     16  C   UNL d   1      27.728 -14.697  -5.939  0.00  0.00     0.066 A 
ENDBRANCH   9  12
ENDBRANCH   7   8
ENDBRANCH   6   7
ENDBRANCH   5   6
ENDBRANCH   2   5
BRANCH   3  17
ATOM     17  N   UNL d   1      21.922 -18.847  -1.095  0.00  0.00    -0.203 NA
ATOM     18  H   UNL d   1      21.694 -17.952  -1.534  0.00  0.00     0.153 HD
BRANCH  17  19
ATOM     19  C   UNL d   1      20.776 -19.417  -0.473  0.00  0.00     0.029 A 
ATOM     20  C   UNL d   1      19.565 -19.699  -1.125  0.00  0.00     0.025 A 
ATOM     21  C   UNL d   1      18.466 -20.224  -0.421  0.00  0.00     0.003 A 
ATOM     22  C   UNL d   1      18.557 -20.465   0.947  0.00  0.00     0.024 A 
ATOM     23  C   UNL d   1      19.751 -20.193   1.605  0.00  0.00     0.035 A 
ATOM     24 CL   UNL d   1      19.862 -20.451   3.303  0.00  0.00    -0.084 Cl
ATOM     25  C   UNL d   1      20.854 -19.696   0.903  0.00  0.00     0.048 A 
ENDBRANCH  17  19
ENDBRANCH   3  17
TORSDOF 7
ENDMDL
MODEL 5
REMARK VINA RESULT:    -7.461      2.865      3.545
REMARK INTER + INTRA:         -10.130
REMARK INTER:                  -9.549
REMARK INTRA:                  -0.581
REMARK CONF_INDEPENDENT:        2.088
REMARK UNBOUND:                -0.581
REMARK  7 active torsions:
REMARK  status: ('A' for Active; 'I' for Inactive)
REMARK    1  A    between atoms: C_2  and  C_3 
REMARK       I    between atoms: C_2  and  N_14 
REMARK    2  A    between atoms: C_3  and  C_4 
REMARK    3  A    between atoms: C_4  and  C_5 
REMARK    4  A    between atoms: C_5  and  N_6 
REMARK       I    between atoms: N_6  and  C_7 
REMARK    5  A    between atoms: C_7  and  C_9 
REMARK    6  A    between atoms: N_14  and  N_15 
REMARK    7  A    between atoms: N_15  and  C_16 
ROOT
ATOM      1  O   UNL d   1      25.431 -15.443  -0.776  0.00  0.00    -0.272 OA
ATOM      2  C   UNL d   1      26.246 -16.284  -0.394  0.00  0.00     0.232 C 
ATOM      3  N   UNL d   1      27.418 -15.873   0.216  0.00  0.00    -0.287 N 
ATOM      4  H   UNL d   1      27.602 -14.876   0.112  0.00  0.00     0.184 HD
ENDROOT
BRANCH   2   5
ATOM      5  C   UNL d   1      25.983 -17.780  -0.526  0.00  0.00     0.106 C 
BRANCH   5   6
ATOM      6  C   UNL d   1      24.781 -18.242   0.319  0.00  0.00     0.029 C 
BRANCH   6   7
ATOM      7  C   UNL d   1      23.461 -17.653  -0.185  0.00  0.00     0.123 C 
BRANCH   7   8
ATOM      8  N   UNL d   1      22.289 -18.313   0.370  0.00  0.00    -0.357 N 
ATOM      9  C   UNL d   1      21.434 -19.042  -0.434  0.00  0.00     0.252 C 
ATOM     10  O   UNL d   1      21.605 -19.176  -1.646  0.00  0.00    -0.268 OA
ATOM     11  H   UNL d   1      22.156 -18.341   1.373  0.00  0.00     0.162 HD
BRANCH   9  12
ATOM     12  C   UNL d   1      20.310 -19.670   0.264  0.00  0.00     0.038 A 
ATOM     13  C   UNL d   1      20.174 -19.840   1.684  0.00  0.00     0.024 A 
ATOM     14  C   UNL d   1      18.992 -20.452   2.044  0.00  0.00     0.050 A 
ATOM     15  S   UNL d   1      18.030 -20.827   0.682  0.00  0.00    -0.113 SA
ATOM     16  C   UNL d   1      19.179 -20.139  -0.385  0.00  0.00     0.066 A 
ENDBRANCH   9  12
ENDBRANCH   7   8
ENDBRANCH   6   7
ENDBRANCH   5   6
ENDBRANCH   2   5
BRANCH   3  17
ATOM     17  N   UNL d   1      28.562 -16.687   0.271  0.00  0.00    -0.203 NA
ATOM     18  H   UNL d   1      29.250 -16.426   0.980  0.00  0.00     0.153 HD
BRANCH  17  19
ATOM     19  C   UNL d   1      29.194 -16.977  -0.972  0.00  0.00     0.029 A 
ATOM     20  C   UNL d   1      30.220 -17.918  -1.150  0.00  0.00     0.025 A 
ATOM     21  C   UNL d   1      30.819 -18.110  -2.408  0.00  0.00     0.003 A 
ATOM     22  C   UNL d   1      30.409 -17.356  -3.505  0.00  0.00     0.024 A 
ATOM     23  C   UNL d   1      29.392 -16.422  -3.342  0.00  0.00     0.035 A 
ATOM     24 CL   UNL d   1      28.905 -15.458  -4.683  0.00  0.00    -0.084 Cl
ATOM     25  C   UNL d   1      28.776 -16.248  -2.099  0.00  0.00     0.048 A 
ENDBRANCH  17  19
ENDBRANCH   3  17
TORSDOF 7
ENDMDL
MODEL 6
REMARK VINA RESULT:    -6.681      5.426      9.279
REMARK INTER + INTRA:         -10.255
REMARK INTER:                  -8.769
REMARK INTRA:                  -1.485
REMARK CONF_INDEPENDENT:        2.088
REMARK UNBOUND:                -1.485
REMARK  7 active torsions:
REMARK  status: ('A' for Active; 'I' for Inactive)
REMARK    1  A    between atoms: C_2  and  C_3 
REMARK       I    between atoms: C_2  and  N_14 
REMARK    2  A    between atoms: C_3  and  C_4 
REMARK    3  A    between atoms: C_4  and  C_5 
REMARK    4  A    between atoms: C_5  and  N_6 
REMARK       I    between atoms: N_6  and  C_7 
REMARK    5  A    between atoms: C_7  and  C_9 
REMARK    6  A    between atoms: N_14  and  N_15 
REMARK    7  A    between atoms: N_15  and  C_16 
ROOT
ATOM      1  O   UNL d   1      23.920 -13.753  -4.084  0.00  0.00    -0.272 OA
ATOM      2  C   UNL d   1      25.021 -14.008  -3.592  0.00  0.00     0.232 C 
ATOM      3  N   UNL d   1      25.505 -15.304  -3.639  0.00  0.00    -0.287 N 
ATOM      4  H   UNL d   1      24.803 -15.992  -3.905  0.00  0.00     0.184 HD
ENDROOT
BRANCH   2   5
ATOM      5  C   UNL d   1      25.899 -12.927  -2.972  0.00  0.00     0.106 C 
BRANCH   5   6
ATOM      6  C   UNL d   1      26.768 -12.205  -4.018  0.00  0.00     0.029 C 
BRANCH   6   7
ATOM      7  C   UNL d   1      26.670 -12.858  -5.400  0.00  0.00     0.123 C 
BRANCH   7   8
ATOM      8  N   UNL d   1      27.933 -13.414  -5.862  0.00  0.00    -0.357 N 
ATOM      9  C   UNL d   1      28.190 -14.770  -5.774  0.00  0.00     0.252 C 
ATOM     10  O   UNL d   1      27.384 -15.575  -5.307  0.00  0.00    -0.268 OA
ATOM     11  H   UNL d   1      28.588 -12.826  -6.361  0.00  0.00     0.162 HD
BRANCH   9  12
ATOM     12  C   UNL d   1      29.491 -15.190  -6.298  0.00  0.00     0.038 A 
ATOM     13  C   UNL d   1      30.030 -16.522  -6.282  0.00  0.00     0.024 A 
ATOM     14  C   UNL d   1      31.274 -16.608  -6.869  0.00  0.00     0.050 A 
ATOM     15  S   UNL d   1      31.809 -15.093  -7.451  0.00  0.00    -0.113 SA
ATOM     16  C   UNL d   1      30.362 -14.329  -6.948  0.00  0.00     0.066 A 
ENDBRANCH   9  12
ENDBRANCH   7   8
ENDBRANCH   6   7
ENDBRANCH   5   6
ENDBRANCH   2   5
BRANCH   3  17
ATOM     17  N   UNL d   1      26.489 -15.770  -2.751  0.00  0.00    -0.203 NA
ATOM     18  H   UNL d   1      27.310 -16.192  -3.190  0.00  0.00     0.153 HD
BRANCH  17  19
ATOM     19  C   UNL d   1      26.032 -16.560  -1.657  0.00  0.00     0.029 A 
ATOM     20  C   UNL d   1      26.854 -17.078  -0.643  0.00  0.00     0.025 A 
ATOM     21  C   UNL d   1      26.324 -17.887   0.378  0.00  0.00     0.003 A 
ATOM     22  C   UNL d   1      24.967 -18.200   0.395  0.00  0.00     0.024 A 
ATOM     23  C   UNL d   1      24.142 -17.691  -0.602  0.00  0.00     0.035 A 
ATOM     24 CL   UNL d   1      22.471 -18.104  -0.611  0.00  0.00    -0.084 Cl
ATOM     25  C   UNL d   1      24.661 -16.865  -1.604  0.00  0.00     0.048 A 
ENDBRANCH  17  19
ENDBRANCH   3  17
TORSDOF 7
ENDMDL
MODEL 7
REMARK VINA RESULT:    -6.604      5.502      9.165
REMARK INTER + INTRA:         -10.214
REMARK INTER:                  -8.692
REMARK INTRA:                  -1.522
REMARK CONF_INDEPENDENT:        2.088
REMARK UNBOUND:                -1.522
REMARK  7 active torsions:
REMARK  status: ('A' for Active; 'I' for Inactive)
REMARK    1  A    between atoms: C_2  and  C_3 
REMARK       I    between atoms: C_2  and  N_14 
REMARK    2  A    between atoms: C_3  and  C_4 
REMARK    3  A    between atoms: C_4  and  C_5 
REMARK    4  A    between atoms: C_5  and  N_6 
REMARK       I    between atoms: N_6  and  C_7 
REMARK    5  A    between atoms: C_7  and  C_9 
REMARK    6  A    between atoms: N_14  and  N_15 
REMARK    7  A    between atoms: N_15  and  C_16 
ROOT
ATOM      1  O   UNL d   1      27.204 -15.200  -6.055  0.00  0.00    -0.272 OA
ATOM      2  C   UNL d   1      26.879 -14.990  -4.886  0.00  0.00     0.232 C 
ATOM      3  N   UNL d   1      25.882 -15.756  -4.306  0.00  0.00    -0.287 N 
ATOM      4  H   UNL d   1      25.351 -16.308  -4.977  0.00  0.00     0.184 HD
ENDROOT
BRANCH   2   5
ATOM      5  C   UNL d   1      27.576 -13.939  -4.030  0.00  0.00     0.106 C 
BRANCH   5   6
ATOM      6  C   UNL d   1      28.957 -14.407  -3.534  0.00  0.00     0.029 C 
BRANCH   6   7
ATOM      7  C   UNL d   1      29.029 -15.928  -3.378  0.00  0.00     0.123 C 
BRANCH   7   8
ATOM      8  N   UNL d   1      29.406 -16.613  -4.605  0.00  0.00    -0.357 N 
ATOM      9  C   UNL d   1      30.271 -17.691  -4.583  0.00  0.00     0.252 C 
ATOM     10  O   UNL d   1      30.768 -18.130  -3.546  0.00  0.00    -0.268 OA
ATOM     11  H   UNL d   1      28.944 -16.378  -5.474  0.00  0.00     0.162 HD
BRANCH   9  12
ATOM     12  C   UNL d   1      30.542 -18.296  -5.889  0.00  0.00     0.038 A 
ATOM     13  C   UNL d   1      31.036 -17.621  -7.057  0.00  0.00     0.024 A 
ATOM     14  C   UNL d   1      31.210 -18.463  -8.134  0.00  0.00     0.050 A 
ATOM     15  S   UNL d   1      30.788 -20.075  -7.756  0.00  0.00    -0.113 SA
ATOM     16  C   UNL d   1      30.405 -19.651  -6.141  0.00  0.00     0.066 A 
ENDBRANCH   9  12
ENDBRANCH   7   8
ENDBRANCH   6   7
ENDBRANCH   5   6
ENDBRANCH   2   5
BRANCH   3  17
ATOM     17  N   UNL d   1      25.155 -15.319  -3.186  0.00  0.00    -0.203 NA
ATOM     18  H   UNL d   1      25.283 -14.336  -2.938  0.00  0.00     0.153 HD
BRANCH  17  19
ATOM     19  C   UNL d   1      25.212 -16.149  -2.030  0.00  0.00     0.029 A 
ATOM     20  C   UNL d   1      26.366 -16.380  -1.265  0.00  0.00     0.025 A 
ATOM     21  C   UNL d   1      26.342 -17.251  -0.160  0.00  0.00     0.003 A 
ATOM     22  C   UNL d   1      25.167 -17.912   0.189  0.00  0.00     0.024 A 
ATOM     23  C   UNL d   1      24.016 -17.689  -0.559  0.00  0.00     0.035 A 
ATOM     24 CL   UNL d   1      22.568 -18.530  -0.158  0.00  0.00    -0.084 Cl
ATOM     25  C   UNL d   1      24.030 -16.803  -1.641  0.00  0.00     0.048 A 
ENDBRANCH  17  19
ENDBRANCH   3  17
TORSDOF 7
ENDMDL
