MODEL 1
REMARK VINA RESULT:   -30.950      0.000      0.000
REMARK INTER + INTRA:         -33.054
REMARK INTER:                 -32.143
REMARK INTRA:                  -0.911
REMARK CONF_INDEPENDENT:        1.193
REMARK UNBOUND:                -0.911
REMARK  4 active torsions:
REMARK  status: ('A' for Active; 'I' for Inactive)
REMARK    1  A    between atoms: C_2  and  N_3 
REMARK    2  A    between atoms: C_2  and  C_13 
REMARK       I    between atoms: N_3  and  C_4 
REMARK    3  A    between atoms: C_4  and  C_6 
REMARK       I    between atoms: C_13  and  N_15 
REMARK    4  A    between atoms: N_15  and  C_16 
ROOT
ATOM      1  C   UNL d   1      25.547 -18.425  -0.109  0.00  0.00     0.042 C 
ATOM      2  C   UNL d   1      24.817 -17.075   0.014  0.00  0.00     0.173 C 
ENDROOT
BRANCH   2   3
ATOM      3  N   UNL d   1      25.354 -16.065  -0.921  0.00  0.00    -0.344 N 
ATOM      4  C   UNL d   1      25.242 -16.232  -2.295  0.00  0.00     0.252 C 
ATOM      5  O   UNL d   1      24.793 -17.245  -2.829  0.00  0.00    -0.268 OA
ATOM      6  H   UNL d   1      25.575 -15.145  -0.561  0.00  0.00     0.163 HD
BRANCH   4   7
ATOM      7  C   UNL d   1      25.664 -15.109  -3.172  0.00  0.00     0.032 A 
ATOM      8  C   UNL d   1      26.792 -15.219  -3.991  0.00  0.00     0.018 A 
ATOM      9  C   UNL d   1      27.122 -14.177  -4.867  0.00  0.00     0.025 A 
ATOM     10  C   UNL d   1      26.332 -13.027  -4.921  0.00  0.00     0.034 A 
ATOM     11 CL   UNL d   1      26.761 -11.745  -5.987  0.00  0.00    -0.084 Cl
ATOM     12  C   UNL d   1      25.197 -12.917  -4.122  0.00  0.00     0.025 A 
ATOM     13  C   UNL d   1      24.858 -13.961  -3.253  0.00  0.00     0.018 A 
ENDBRANCH   4   7
ENDBRANCH   2   3
BRANCH   2  14
ATOM     14  C   UNL d   1      23.294 -17.359  -0.170  0.00  0.00     0.244 C 
ATOM     15  O   UNL d   1      22.554 -16.532  -0.706  0.00  0.00    -0.271 OA
ATOM     16  N   UNL d   1      22.836 -18.590   0.281  0.00  0.00    -0.324 N 
ATOM     17  H   UNL d   1      23.441 -19.149   0.869  0.00  0.00     0.169 HD
BRANCH  16  18
ATOM     18  C   UNL d   1      21.474 -18.980   0.160  0.00  0.00     0.052 A 
ATOM     19  C   UNL d   1      20.707 -19.365   1.263  0.00  0.00     0.032 A 
ATOM     20  C   UNL d   1      19.364 -19.708   1.101  0.00  0.00     0.021 A 
ATOM     21  C   UNL d   1      18.827 -19.677  -0.173  0.00  0.00     0.116 A 
ATOM     22  N   UNL d   1      19.533 -19.325  -1.270  0.00  0.00    -0.271 NA
ATOM     23  C   UNL d   1      20.832 -18.976  -1.076  0.00  0.00     0.145 A 
ENDBRANCH  16  18
ENDBRANCH   2  14
TORSDOF 4
ENDMDL
MODEL 2
REMARK VINA RESULT:   -30.610      1.466      1.919
REMARK INTER + INTRA:         -32.500
REMARK INTER:                 -31.804
REMARK INTRA:                  -0.696
REMARK CONF_INDEPENDENT:        1.193
REMARK UNBOUND:                -0.696
REMARK  4 active torsions:
REMARK  status: ('A' for Active; 'I' for Inactive)
REMARK    1  A    between atoms: C_2  and  N_3 
REMARK    2  A    between atoms: C_2  and  C_13 
REMARK       I    between atoms: N_3  and  C_4 
REMARK    3  A    between atoms: C_4  and  C_6 
REMARK       I    between atoms: C_13  and  N_15 
REMARK    4  A    between atoms: N_15  and  C_16 
ROOT
ATOM      1  C   UNL d   1      25.584 -18.297   0.505  0.00  0.00     0.042 C 
ATOM      2  C   UNL d   1      24.976 -17.130  -0.294  0.00  0.00     0.173 C 
ENDROOT
BRANCH   2   3
ATOM      3  N   UNL d   1      25.684 -16.901  -1.570  0.00  0.00    -0.344 N 
ATOM      4  C   UNL d   1      25.973 -15.614  -2.006  0.00  0.00     0.252 C 
ATOM      5  O   UNL d   1      25.590 -14.594  -1.435  0.00  0.00    -0.268 OA
ATOM      6  H   UNL d   1      26.172 -17.679  -1.998  0.00  0.00     0.163 HD
BRANCH   4   7
ATOM      7  C   UNL d   1      26.819 -15.461  -3.218  0.00  0.00     0.032 A 
ATOM      8  C   UNL d   1      26.272 -15.025  -4.428  0.00  0.00     0.018 A 
ATOM      9  C   UNL d   1      27.105 -14.812  -5.534  0.00  0.00     0.025 A 
ATOM     10  C   UNL d   1      28.479 -15.037  -5.433  0.00  0.00     0.034 A 
ATOM     11 CL   UNL d   1      29.488 -14.792  -6.805  0.00  0.00    -0.084 Cl
ATOM     12  C   UNL d   1      29.035 -15.455  -4.226  0.00  0.00     0.025 A 
ATOM     13  C   UNL d   1      28.207 -15.658  -3.116  0.00  0.00     0.018 A 
ENDBRANCH   4   7
ENDBRANCH   2   3
BRANCH   2  14
ATOM     14  C   UNL d   1      23.455 -17.432  -0.462  0.00  0.00     0.244 C 
ATOM     15  O   UNL d   1      22.737 -16.710  -1.155  0.00  0.00    -0.271 OA
ATOM     16  N   UNL d   1      22.972 -18.558   0.192  0.00  0.00    -0.324 N 
ATOM     17  H   UNL d   1      23.557 -19.007   0.886  0.00  0.00     0.169 HD
BRANCH  16  18
ATOM     18  C   UNL d   1      21.609 -18.955   0.109  0.00  0.00     0.052 A 
ATOM     19  C   UNL d   1      20.872 -19.330   1.235  0.00  0.00     0.032 A 
ATOM     20  C   UNL d   1      19.527 -19.680   1.110  0.00  0.00     0.021 A 
ATOM     21  C   UNL d   1      18.957 -19.665  -0.150  0.00  0.00     0.116 A 
ATOM     22  N   UNL d   1      19.634 -19.321  -1.268  0.00  0.00    -0.271 NA
ATOM     23  C   UNL d   1      20.937 -18.966  -1.110  0.00  0.00     0.145 A 
ENDBRANCH  16  18
ENDBRANCH   2  14
TORSDOF 4
ENDMDL
MODEL 3
REMARK VINA RESULT:   -29.303      3.630      4.237
REMARK INTER + INTRA:         -31.383
REMARK INTER:                 -30.496
REMARK INTRA:                  -0.887
REMARK CONF_INDEPENDENT:        1.193
REMARK UNBOUND:                -0.887
REMARK  4 active torsions:
REMARK  status: ('A' for Active; 'I' for Inactive)
REMARK    1  A    between atoms: C_2  and  N_3 
REMARK    2  A    between atoms: C_2  and  C_13 
REMARK       I    between atoms: N_3  and  C_4 
REMARK    3  A    between atoms: C_4  and  C_6 
REMARK       I    between atoms: C_13  and  N_15 
REMARK    4  A    between atoms: N_15  and  C_16 
ROOT
ATOM      1  C   UNL d   1      25.371 -16.976  -2.111  0.00  0.00     0.042 C 
ATOM      2  C   UNL d   1      25.013 -17.140  -0.623  0.00  0.00     0.173 C 
ENDROOT
BRANCH   2   3
ATOM      3  N   UNL d   1      25.502 -16.012   0.196  0.00  0.00    -0.344 N 
ATOM      4  C   UNL d   1      26.862 -15.759   0.324  0.00  0.00     0.252 C 
ATOM      5  O   UNL d   1      27.741 -16.486  -0.135  0.00  0.00    -0.268 OA
ATOM      6  H   UNL d   1      24.847 -15.285   0.455  0.00  0.00     0.163 HD
BRANCH   4   7
ATOM      7  C   UNL d   1      27.277 -14.521   1.035  0.00  0.00     0.032 A 
ATOM      8  C   UNL d   1      26.638 -13.302   0.792  0.00  0.00     0.018 A 
ATOM      9  C   UNL d   1      26.994 -12.168   1.532  0.00  0.00     0.025 A 
ATOM     10  C   UNL d   1      27.988 -12.250   2.509  0.00  0.00     0.034 A 
ATOM     11 CL   UNL d   1      28.431 -10.844   3.398  0.00  0.00    -0.084 Cl
ATOM     12  C   UNL d   1      28.617 -13.465   2.771  0.00  0.00     0.025 A 
ATOM     13  C   UNL d   1      28.256 -14.602   2.040  0.00  0.00     0.018 A 
ENDBRANCH   4   7
ENDBRANCH   2   3
BRANCH   2  14
ATOM     14  C   UNL d   1      23.470 -17.355  -0.543  0.00  0.00     0.244 C 
ATOM     15  O   UNL d   1      22.687 -16.431  -0.768  0.00  0.00    -0.271 OA
ATOM     16  N   UNL d   1      23.040 -18.638  -0.228  0.00  0.00    -0.324 N 
ATOM     17  H   UNL d   1      23.716 -19.306   0.121  0.00  0.00     0.169 HD
BRANCH  16  18
ATOM     18  C   UNL d   1      21.661 -18.973  -0.139  0.00  0.00     0.052 A 
ATOM     19  C   UNL d   1      21.037 -19.245   1.081  0.00  0.00     0.032 A 
ATOM     20  C   UNL d   1      19.673 -19.537   1.124  0.00  0.00     0.021 A 
ATOM     21  C   UNL d   1      18.970 -19.569  -0.066  0.00  0.00     0.116 A 
ATOM     22  N   UNL d   1      19.533 -19.325  -1.270  0.00  0.00    -0.271 NA
ATOM     23  C   UNL d   1      20.858 -19.024  -1.276  0.00  0.00     0.145 A 
ENDBRANCH  16  18
ENDBRANCH   2  14
TORSDOF 4
ENDMDL
