MODEL 1
REMARK VINA RESULT:    -8.041      0.000      0.000
REMARK INTER + INTRA:         -10.616
REMARK INTER:                  -9.533
REMARK INTRA:                  -1.084
REMARK CONF_INDEPENDENT:        1.492
REMARK UNBOUND:                -1.084
REMARK  5 active torsions:
REMARK  status: ('A' for Active; 'I' for Inactive)
REMARK       I    between atoms: C_2  and  N_3 
REMARK    1  A    between atoms: C_2  and  C_16 
REMARK    2  A    between atoms: N_3  and  C_4 
REMARK    3  A    between atoms: C_5  and  C_4 
REMARK    4  A    between atoms: C_5  and  O_6 
REMARK    5  A    between atoms: C_22  and  N_23 
ROOT
ATOM      1  O   UNL d   1      28.411 -13.543  -1.751  0.00  0.00    -0.266 OA
ATOM      2  C   UNL d   1      27.418 -13.604  -1.059  0.00  0.00     0.268 C 
ATOM      3  N   UNL d   1      26.336 -14.450  -1.400  0.00  0.00    -0.352 N 
ATOM      4  H   UNL d   1      25.533 -14.386  -0.800  0.00  0.00     0.162 HD
ENDROOT
BRANCH   2   5
ATOM      5  C   UNL d   1      27.215 -12.816   0.216  0.00  0.00     0.102 C 
ATOM      6  C   UNL d   1      26.866 -13.363   1.427  0.00  0.00     0.049 C 
ATOM      7  C   UNL d   1      27.149 -12.454   2.447  0.00  0.00    -0.005 C 
ATOM      8  C   UNL d   1      27.422 -12.685   3.797  0.00  0.00     0.014 C 
ATOM      9  C   UNL d   1      27.120 -11.165   1.914  0.00  0.00     0.076 C 
ATOM     10  C   UNL d   1      27.780 -11.633   4.607  0.00  0.00     0.003 C 
ATOM     11  C   UNL d   1      27.412 -10.365   4.212  0.00  0.00     0.038 C 
ATOM     12  C   UNL d   1      26.994 -10.077   2.876  0.00  0.00     0.130 C 
ATOM     13  N   UNL d   1      27.382 -11.422   0.527  0.00  0.00    -0.349 N 
ATOM     14  H   UNL d   1      27.901 -10.802  -0.087  0.00  0.00     0.166 HD
BRANCH  12  15
ATOM     15  N   UNL d   1      26.200  -8.812   2.795  0.00  0.00    -0.113 N 
ATOM     16  O   UNL d   1      25.158  -8.823   2.107  0.00  0.00    -0.532 OA
ATOM     17  O   UNL d   1      26.655  -7.797   3.329  0.00  0.00    -0.532 OA
ENDBRANCH  12  15
ENDBRANCH   2   5
BRANCH   3  18
ATOM     18  C   UNL d   1      25.999 -14.998  -2.758  0.00  0.00     0.165 C 
BRANCH  18  19
ATOM     19  C   UNL d   1      25.632 -13.901  -3.886  0.00  0.00     0.101 C 
ATOM     20  C   UNL d   1      25.353 -12.485  -3.302  0.00  0.00     0.045 C 
ATOM     21  C   UNL d   1      25.540 -11.387  -4.365  0.00  0.00     0.008 C 
ATOM     22  C   UNL d   1      27.006 -11.339  -4.777  0.00  0.00     0.039 C 
ATOM     23  C   UNL d   1      27.489 -12.702  -5.205  0.00  0.00    -0.049 C 
ATOM     24  C   UNL d   1      28.742 -12.803  -5.829  0.00  0.00     0.007 C 
ATOM     25  C   UNL d   1      26.762 -13.878  -4.925  0.00  0.00    -0.016 C 
ATOM     26  C   UNL d   1      29.270 -14.047  -6.168  0.00  0.00     0.001 C 
ATOM     27  C   UNL d   1      28.529 -15.201  -5.944  0.00  0.00     0.001 C 
ATOM     28  C   UNL d   1      27.258 -15.114  -5.390  0.00  0.00     0.011 C 
BRANCH  19  29
ATOM     29  O   UNL d   1      24.425 -14.361  -4.526  0.00  0.00    -0.383 OA
ATOM     30  H   UNL d   1      24.015 -13.630  -5.019  0.00  0.00     0.211 HD
ENDBRANCH  19  29
ENDBRANCH  18  19
ENDBRANCH   3  18
TORSDOF 5
ENDMDL
MODEL 2
REMARK VINA RESULT:    -8.017      2.800      4.551
REMARK INTER + INTRA:         -10.578
REMARK INTER:                  -9.508
REMARK INTRA:                  -1.070
REMARK CONF_INDEPENDENT:        1.492
REMARK UNBOUND:                -1.070
REMARK  5 active torsions:
REMARK  status: ('A' for Active; 'I' for Inactive)
REMARK       I    between atoms: C_2  and  N_3 
REMARK    1  A    between atoms: C_2  and  C_16 
REMARK    2  A    between atoms: N_3  and  C_4 
REMARK    3  A    between atoms: C_5  and  C_4 
REMARK    4  A    between atoms: C_5  and  O_6 
REMARK    5  A    between atoms: C_22  and  N_23 
ROOT
ATOM      1  O   UNL d   1      27.479 -14.103   3.195  0.00  0.00    -0.266 OA
ATOM      2  C   UNL d   1      27.357 -13.722   2.050  0.00  0.00     0.268 C 
ATOM      3  N   UNL d   1      27.286 -14.641   0.975  0.00  0.00    -0.352 N 
ATOM      4  H   UNL d   1      27.248 -14.230   0.060  0.00  0.00     0.162 HD
ENDROOT
BRANCH   2   5
ATOM      5  C   UNL d   1      27.264 -12.271   1.637  0.00  0.00     0.102 C 
ATOM      6  C   UNL d   1      28.047 -11.679   0.674  0.00  0.00     0.049 C 
ATOM      7  C   UNL d   1      27.454 -10.485   0.263  0.00  0.00    -0.005 C 
ATOM      8  C   UNL d   1      27.577  -9.800  -0.948  0.00  0.00     0.014 C 
ATOM      9  C   UNL d   1      26.654 -10.005   1.300  0.00  0.00     0.076 C 
ATOM     10  C   UNL d   1      26.809  -8.682  -1.177  0.00  0.00     0.003 C 
ATOM     11  C   UNL d   1      26.314  -8.009  -0.080  0.00  0.00     0.038 C 
ATOM     12  C   UNL d   1      26.278  -8.599   1.221  0.00  0.00     0.130 C 
ATOM     13  N   UNL d   1      26.377 -11.209   2.029  0.00  0.00    -0.349 N 
ATOM     14  H   UNL d   1      25.508 -11.401   2.520  0.00  0.00     0.166 HD
BRANCH  12  15
ATOM     15  N   UNL d   1      26.176  -7.571   2.302  0.00  0.00    -0.113 N 
ATOM     16  O   UNL d   1      26.704  -7.831   3.403  0.00  0.00    -0.532 OA
ATOM     17  O   UNL d   1      25.499  -6.561   2.091  0.00  0.00    -0.532 OA
ENDBRANCH  12  15
ENDBRANCH   2   5
BRANCH   3  18
ATOM     18  C   UNL d   1      27.784 -16.057   0.951  0.00  0.00     0.165 C 
BRANCH  18  19
ATOM     19  C   UNL d   1      27.015 -17.055  -0.061  0.00  0.00     0.101 C 
ATOM     20  C   UNL d   1      25.831 -17.817   0.606  0.00  0.00     0.045 C 
ATOM     21  C   UNL d   1      24.817 -18.314  -0.441  0.00  0.00     0.008 C 
ATOM     22  C   UNL d   1      24.161 -17.111  -1.107  0.00  0.00     0.039 C 
ATOM     23  C   UNL d   1      25.200 -16.166  -1.655  0.00  0.00    -0.049 C 
ATOM     24  C   UNL d   1      24.780 -15.124  -2.496  0.00  0.00     0.007 C 
ATOM     25  C   UNL d   1      26.559 -16.247  -1.284  0.00  0.00    -0.016 C 
ATOM     26  C   UNL d   1      25.688 -14.175  -2.961  0.00  0.00     0.001 C 
ATOM     27  C   UNL d   1      27.037 -14.288  -2.642  0.00  0.00     0.001 C 
ATOM     28  C   UNL d   1      27.480 -15.353  -1.867  0.00  0.00     0.011 C 
BRANCH  19  29
ATOM     29  O   UNL d   1      27.985 -18.032  -0.488  0.00  0.00    -0.383 OA
ATOM     30  H   UNL d   1      28.610 -18.212   0.235  0.00  0.00     0.211 HD
ENDBRANCH  19  29
ENDBRANCH  18  19
ENDBRANCH   3  18
TORSDOF 5
ENDMDL
MODEL 3
REMARK VINA RESULT:    -8.008      4.026      8.835
REMARK INTER + INTRA:         -10.622
REMARK INTER:                  -9.499
REMARK INTRA:                  -1.123
REMARK CONF_INDEPENDENT:        1.492
REMARK UNBOUND:                -1.123
REMARK  5 active torsions:
REMARK  status: ('A' for Active; 'I' for Inactive)
REMARK       I    between atoms: C_2  and  N_3 
REMARK    1  A    between atoms: C_2  and  C_16 
REMARK    2  A    between atoms: N_3  and  C_4 
REMARK    3  A    between atoms: C_5  and  C_4 
REMARK    4  A    between atoms: C_5  and  O_6 
REMARK    5  A    between atoms: C_22  and  N_23 
ROOT
ATOM      1  O   UNL d   1      30.618 -14.735   0.716  0.00  0.00    -0.266 OA
ATOM      2  C   UNL d   1      29.462 -14.825   1.072  0.00  0.00     0.268 C 
ATOM      3  N   UNL d   1      29.058 -14.414   2.365  0.00  0.00    -0.352 N 
ATOM      4  H   UNL d   1      28.094 -14.584   2.589  0.00  0.00     0.162 HD
ENDROOT
BRANCH   2   5
ATOM      5  C   UNL d   1      28.342 -15.364   0.211  0.00  0.00     0.102 C 
ATOM      6  C   UNL d   1      28.042 -16.697   0.061  0.00  0.00     0.049 C 
ATOM      7  C   UNL d   1      26.752 -16.828  -0.453  0.00  0.00    -0.005 C 
ATOM      8  C   UNL d   1      25.850 -17.888  -0.338  0.00  0.00     0.014 C 
ATOM      9  C   UNL d   1      26.438 -15.671  -1.167  0.00  0.00     0.076 C 
ATOM     10  C   UNL d   1      24.578 -17.755  -0.845  0.00  0.00     0.003 C 
ATOM     11  C   UNL d   1      24.376 -16.815  -1.833  0.00  0.00     0.038 C 
ATOM     12  C   UNL d   1      25.320 -15.775  -2.097  0.00  0.00     0.130 C 
ATOM     13  N   UNL d   1      27.321 -14.714  -0.565  0.00  0.00    -0.349 N 
ATOM     14  H   UNL d   1      27.103 -13.730  -0.434  0.00  0.00     0.166 HD
BRANCH  12  15
ATOM     15  N   UNL d   1      25.155 -15.200  -3.468  0.00  0.00    -0.113 N 
ATOM     16  O   UNL d   1      24.484 -14.154  -3.582  0.00  0.00    -0.532 OA
ATOM     17  O   UNL d   1      25.605 -15.832  -4.428  0.00  0.00    -0.532 OA
ENDBRANCH  12  15
ENDBRANCH   2   5
BRANCH   3  18
ATOM     18  C   UNL d   1      29.918 -14.272   3.588  0.00  0.00     0.165 C 
BRANCH  18  19
ATOM     19  C   UNL d   1      29.131 -14.225   4.999  0.00  0.00     0.101 C 
ATOM     20  C   UNL d   1      30.030 -14.587   6.218  0.00  0.00     0.045 C 
ATOM     21  C   UNL d   1      29.451 -14.031   7.532  0.00  0.00     0.008 C 
ATOM     22  C   UNL d   1      29.481 -12.508   7.483  0.00  0.00     0.039 C 
ATOM     23  C   UNL d   1      28.796 -11.996   6.241  0.00  0.00    -0.049 C 
ATOM     24  C   UNL d   1      28.530 -10.623   6.143  0.00  0.00     0.007 C 
ATOM     25  C   UNL d   1      28.492 -12.838   5.150  0.00  0.00    -0.016 C 
ATOM     26  C   UNL d   1      27.974 -10.087   4.982  0.00  0.00     0.001 C 
ATOM     27  C   UNL d   1      27.622 -10.924   3.929  0.00  0.00     0.001 C 
ATOM     28  C   UNL d   1      27.816 -12.296   4.038  0.00  0.00     0.011 C 
BRANCH  19  29
ATOM     29  O   UNL d   1      28.083 -15.211   4.915  0.00  0.00    -0.383 OA
ATOM     30  H   UNL d   1      28.371 -15.950   4.353  0.00  0.00     0.211 HD
ENDBRANCH  19  29
ENDBRANCH  18  19
ENDBRANCH   3  18
TORSDOF 5
ENDMDL
MODEL 4
REMARK VINA RESULT:    -7.905      1.444      3.099
REMARK INTER + INTRA:         -10.665
REMARK INTER:                  -9.397
REMARK INTRA:                  -1.268
REMARK CONF_INDEPENDENT:        1.492
REMARK UNBOUND:                -1.268
REMARK  5 active torsions:
REMARK  status: ('A' for Active; 'I' for Inactive)
REMARK       I    between atoms: C_2  and  N_3 
REMARK    1  A    between atoms: C_2  and  C_16 
REMARK    2  A    between atoms: N_3  and  C_4 
REMARK    3  A    between atoms: C_5  and  C_4 
REMARK    4  A    between atoms: C_5  and  O_6 
REMARK    5  A    between atoms: C_22  and  N_23 
ROOT
ATOM      1  O   UNL d   1      28.183 -13.438  -1.690  0.00  0.00    -0.266 OA
ATOM      2  C   UNL d   1      27.156 -12.959  -1.261  0.00  0.00     0.268 C 
ATOM      3  N   UNL d   1      25.937 -13.082  -1.969  0.00  0.00    -0.352 N 
ATOM      4  H   UNL d   1      25.154 -12.600  -1.565  0.00  0.00     0.162 HD
ENDROOT
BRANCH   2   5
ATOM      5  C   UNL d   1      27.047 -12.198   0.041  0.00  0.00     0.102 C 
ATOM      6  C   UNL d   1      26.720 -12.762   1.251  0.00  0.00     0.049 C 
ATOM      7  C   UNL d   1      27.091 -11.898   2.282  0.00  0.00    -0.005 C 
ATOM      8  C   UNL d   1      27.407 -12.182   3.613  0.00  0.00     0.014 C 
ATOM      9  C   UNL d   1      27.107 -10.595   1.786  0.00  0.00     0.076 C 
ATOM     10  C   UNL d   1      27.852 -11.173   4.435  0.00  0.00     0.003 C 
ATOM     11  C   UNL d   1      27.535  -9.876   4.089  0.00  0.00     0.038 C 
ATOM     12  C   UNL d   1      27.077  -9.529   2.780  0.00  0.00     0.130 C 
ATOM     13  N   UNL d   1      27.298 -10.824   0.382  0.00  0.00    -0.349 N 
ATOM     14  H   UNL d   1      27.823 -10.214  -0.237  0.00  0.00     0.166 HD
BRANCH  12  15
ATOM     15  N   UNL d   1      26.347  -8.224   2.767  0.00  0.00    -0.113 N 
ATOM     16  O   UNL d   1      25.526  -8.027   1.848  0.00  0.00    -0.532 OA
ATOM     17  O   UNL d   1      26.655  -7.370   3.603  0.00  0.00    -0.532 OA
ENDBRANCH  12  15
ENDBRANCH   2   5
BRANCH   3  18
ATOM     18  C   UNL d   1      25.756 -13.347  -3.437  0.00  0.00     0.165 C 
BRANCH  18  19
ATOM     19  C   UNL d   1      26.408 -14.719  -3.988  0.00  0.00     0.101 C 
ATOM     20  C   UNL d   1      27.821 -14.522  -4.613  0.00  0.00     0.045 C 
ATOM     21  C   UNL d   1      28.621 -15.838  -4.629  0.00  0.00     0.008 C 
ATOM     22  C   UNL d   1      28.903 -16.265  -3.194  0.00  0.00     0.039 C 
ATOM     23  C   UNL d   1      27.628 -16.328  -2.391  0.00  0.00    -0.049 C 
ATOM     24  C   UNL d   1      27.667 -16.918  -1.119  0.00  0.00     0.007 C 
ATOM     25  C   UNL d   1      26.427 -15.741  -2.842  0.00  0.00    -0.016 C 
ATOM     26  C   UNL d   1      26.537 -16.927  -0.303  0.00  0.00     0.001 C 
ATOM     27  C   UNL d   1      25.339 -16.400  -0.771  0.00  0.00     0.001 C 
ATOM     28  C   UNL d   1      25.265 -15.873  -2.054  0.00  0.00     0.011 C 
BRANCH  19  29
ATOM     29  O   UNL d   1      25.530 -15.202  -5.024  0.00  0.00    -0.383 OA
ATOM     30  H   UNL d   1      24.903 -14.503  -5.275  0.00  0.00     0.211 HD
ENDBRANCH  19  29
ENDBRANCH  18  19
ENDBRANCH   3  18
TORSDOF 5
ENDMDL
MODEL 5
REMARK VINA RESULT:    -7.880      4.071      9.315
REMARK INTER + INTRA:         -10.067
REMARK INTER:                  -9.372
REMARK INTRA:                  -0.696
REMARK CONF_INDEPENDENT:        1.492
REMARK UNBOUND:                -0.696
REMARK  5 active torsions:
REMARK  status: ('A' for Active; 'I' for Inactive)
REMARK       I    between atoms: C_2  and  N_3 
REMARK    1  A    between atoms: C_2  and  C_16 
REMARK    2  A    between atoms: N_3  and  C_4 
REMARK    3  A    between atoms: C_5  and  C_4 
REMARK    4  A    between atoms: C_5  and  O_6 
REMARK    5  A    between atoms: C_22  and  N_23 
ROOT
ATOM      1  O   UNL d   1      29.530 -14.052   1.805  0.00  0.00    -0.266 OA
ATOM      2  C   UNL d   1      28.452 -14.570   2.004  0.00  0.00     0.268 C 
ATOM      3  N   UNL d   1      27.902 -14.643   3.306  0.00  0.00    -0.352 N 
ATOM      4  H   UNL d   1      27.035 -15.144   3.380  0.00  0.00     0.162 HD
ENDROOT
BRANCH   2   5
ATOM      5  C   UNL d   1      27.586 -15.181   0.926  0.00  0.00     0.102 C 
ATOM      6  C   UNL d   1      27.471 -16.529   0.684  0.00  0.00     0.049 C 
ATOM      7  C   UNL d   1      26.326 -16.770  -0.076  0.00  0.00    -0.005 C 
ATOM      8  C   UNL d   1      25.543 -17.922  -0.169  0.00  0.00     0.014 C 
ATOM      9  C   UNL d   1      26.027 -15.619  -0.805  0.00  0.00     0.076 C 
ATOM     10  C   UNL d   1      24.385 -17.899  -0.910  0.00  0.00     0.003 C 
ATOM     11  C   UNL d   1      24.271 -16.938  -1.892  0.00  0.00     0.038 C 
ATOM     12  C   UNL d   1      25.126 -15.794  -1.938  0.00  0.00     0.130 C 
ATOM     13  N   UNL d   1      26.665 -14.604  -0.016  0.00  0.00    -0.349 N 
ATOM     14  H   UNL d   1      26.317 -13.657   0.097  0.00  0.00     0.166 HD
BRANCH  12  15
ATOM     15  N   UNL d   1      25.162 -15.173  -3.298  0.00  0.00    -0.113 N 
ATOM     16  O   UNL d   1      26.039 -15.568  -4.094  0.00  0.00    -0.532 OA
ATOM     17  O   UNL d   1      24.392 -14.239  -3.538  0.00  0.00    -0.532 OA
ENDBRANCH  12  15
ENDBRANCH   2   5
BRANCH   3  18
ATOM     18  C   UNL d   1      28.638 -14.568   4.614  0.00  0.00     0.165 C 
BRANCH  18  19
ATOM     19  C   UNL d   1      29.403 -13.176   4.910  0.00  0.00     0.101 C 
ATOM     20  C   UNL d   1      28.771 -11.957   4.175  0.00  0.00     0.045 C 
ATOM     21  C   UNL d   1      29.141 -10.628   4.861  0.00  0.00     0.008 C 
ATOM     22  C   UNL d   1      28.513 -10.595   6.249  0.00  0.00     0.039 C 
ATOM     23  C   UNL d   1      28.889 -11.823   7.039  0.00  0.00    -0.049 C 
ATOM     24  C   UNL d   1      28.590 -11.854   8.409  0.00  0.00     0.007 C 
ATOM     25  C   UNL d   1      29.452 -12.964   6.430  0.00  0.00    -0.016 C 
ATOM     26  C   UNL d   1      28.840 -12.997   9.167  0.00  0.00     0.001 C 
ATOM     27  C   UNL d   1      29.447 -14.101   8.579  0.00  0.00     0.001 C 
ATOM     28  C   UNL d   1      29.813 -14.061   7.239  0.00  0.00     0.011 C 
BRANCH  19  29
ATOM     29  O   UNL d   1      30.749 -13.337   4.422  0.00  0.00    -0.383 OA
ATOM     30  H   UNL d   1      31.257 -13.894   5.036  0.00  0.00     0.211 HD
ENDBRANCH  19  29
ENDBRANCH  18  19
ENDBRANCH   3  18
TORSDOF 5
ENDMDL
MODEL 6
REMARK VINA RESULT:    -7.780      2.127      3.615
REMARK INTER + INTRA:         -10.553
REMARK INTER:                  -9.272
REMARK INTRA:                  -1.281
REMARK CONF_INDEPENDENT:        1.492
REMARK UNBOUND:                -1.281
REMARK  5 active torsions:
REMARK  status: ('A' for Active; 'I' for Inactive)
REMARK       I    between atoms: C_2  and  N_3 
REMARK    1  A    between atoms: C_2  and  C_16 
REMARK    2  A    between atoms: N_3  and  C_4 
REMARK    3  A    between atoms: C_5  and  C_4 
REMARK    4  A    between atoms: C_5  and  O_6 
REMARK    5  A    between atoms: C_22  and  N_23 
ROOT
ATOM      1  O   UNL d   1      28.009 -13.565  -1.272  0.00  0.00    -0.266 OA
ATOM      2  C   UNL d   1      28.398 -13.583  -0.124  0.00  0.00     0.268 C 
ATOM      3  N   UNL d   1      29.331 -14.550   0.320  0.00  0.00    -0.352 N 
ATOM      4  H   UNL d   1      29.546 -14.523   1.301  0.00  0.00     0.162 HD
ENDROOT
BRANCH   2   5
ATOM      5  C   UNL d   1      27.956 -12.608   0.944  0.00  0.00     0.102 C 
ATOM      6  C   UNL d   1      27.568 -12.961   2.214  0.00  0.00     0.049 C 
ATOM      7  C   UNL d   1      27.613 -11.839   3.043  0.00  0.00    -0.005 C 
ATOM      8  C   UNL d   1      27.779 -11.759   4.427  0.00  0.00     0.014 C 
ATOM      9  C   UNL d   1      27.453 -10.698   2.256  0.00  0.00     0.076 C 
ATOM     10  C   UNL d   1      27.898 -10.526   5.027  0.00  0.00     0.003 C 
ATOM     11  C   UNL d   1      27.394  -9.434   4.354  0.00  0.00     0.038 C 
ATOM     12  C   UNL d   1      27.075  -9.480   2.961  0.00  0.00     0.130 C 
ATOM     13  N   UNL d   1      27.888 -11.172   0.973  0.00  0.00    -0.349 N 
ATOM     14  H   UNL d   1      28.372 -10.606   0.282  0.00  0.00     0.166 HD
BRANCH  12  15
ATOM     15  N   UNL d   1      26.120  -8.399   2.567  0.00  0.00    -0.113 N 
ATOM     16  O   UNL d   1      26.302  -7.260   3.044  0.00  0.00    -0.532 OA
ATOM     17  O   UNL d   1      25.147  -8.700   1.870  0.00  0.00    -0.532 OA
ENDBRANCH  12  15
ENDBRANCH   2   5
BRANCH   3  18
ATOM     18  C   UNL d   1      29.622 -15.888  -0.297  0.00  0.00     0.165 C 
BRANCH  18  19
ATOM     19  C   UNL d   1      28.345 -16.853  -0.518  0.00  0.00     0.101 C 
ATOM     20  C   UNL d   1      27.319 -16.794   0.652  0.00  0.00     0.045 C 
ATOM     21  C   UNL d   1      25.922 -17.264   0.204  0.00  0.00     0.008 C 
ATOM     22  C   UNL d   1      25.374 -16.281  -0.824  0.00  0.00     0.039 C 
ATOM     23  C   UNL d   1      26.352 -16.085  -1.955  0.00  0.00    -0.049 C 
ATOM     24  C   UNL d   1      25.923 -15.395  -3.098  0.00  0.00     0.007 C 
ATOM     25  C   UNL d   1      27.698 -16.499  -1.864  0.00  0.00    -0.016 C 
ATOM     26  C   UNL d   1      26.810 -15.115  -4.136  0.00  0.00     0.001 C 
ATOM     27  C   UNL d   1      28.121 -15.573  -4.072  0.00  0.00     0.001 C 
ATOM     28  C   UNL d   1      28.544 -16.317  -2.978  0.00  0.00     0.011 C 
BRANCH  19  29
ATOM     29  O   UNL d   1      28.856 -18.198  -0.590  0.00  0.00    -0.383 OA
ATOM     30  H   UNL d   1      29.530 -18.331   0.098  0.00  0.00     0.211 HD
ENDBRANCH  19  29
ENDBRANCH  18  19
ENDBRANCH   3  18
TORSDOF 5
ENDMDL
MODEL 7
REMARK VINA RESULT:    -7.445      4.584      6.278
REMARK INTER + INTRA:         -10.443
REMARK INTER:                  -8.937
REMARK INTRA:                  -1.506
REMARK CONF_INDEPENDENT:        1.492
REMARK UNBOUND:                -1.506
REMARK  5 active torsions:
REMARK  status: ('A' for Active; 'I' for Inactive)
REMARK       I    between atoms: C_2  and  N_3 
REMARK    1  A    between atoms: C_2  and  C_16 
REMARK    2  A    between atoms: N_3  and  C_4 
REMARK    3  A    between atoms: C_5  and  C_4 
REMARK    4  A    between atoms: C_5  and  O_6 
REMARK    5  A    between atoms: C_22  and  N_23 
ROOT
ATOM      1  O   UNL d   1      25.092 -13.445  -4.793  0.00  0.00    -0.266 OA
ATOM      2  C   UNL d   1      25.484 -13.685  -3.671  0.00  0.00     0.268 C 
ATOM      3  N   UNL d   1      26.359 -12.801  -2.994  0.00  0.00    -0.352 N 
ATOM      4  H   UNL d   1      26.677 -13.114  -2.095  0.00  0.00     0.162 HD
ENDROOT
BRANCH   2   5
ATOM      5  C   UNL d   1      25.100 -14.912  -2.876  0.00  0.00     0.102 C 
ATOM      6  C   UNL d   1      25.957 -15.940  -2.560  0.00  0.00     0.049 C 
ATOM      7  C   UNL d   1      25.419 -16.689  -1.513  0.00  0.00    -0.005 C 
ATOM      8  C   UNL d   1      26.063 -17.481  -0.561  0.00  0.00     0.014 C 
ATOM      9  C   UNL d   1      24.031 -16.547  -1.533  0.00  0.00     0.076 C 
ATOM     10  C   UNL d   1      25.332 -18.052   0.455  0.00  0.00     0.003 C 
ATOM     11  C   UNL d   1      23.979 -18.225   0.252  0.00  0.00     0.038 C 
ATOM     12  C   UNL d   1      23.274 -17.547  -0.790  0.00  0.00     0.130 C 
ATOM     13  N   UNL d   1      23.880 -15.296  -2.219  0.00  0.00    -0.349 N 
ATOM     14  H   UNL d   1      23.145 -14.620  -2.032  0.00  0.00     0.166 HD
BRANCH  12  15
ATOM     15  N   UNL d   1      21.987 -18.227  -1.133  0.00  0.00    -0.113 N 
ATOM     16  O   UNL d   1      22.049 -19.320  -1.733  0.00  0.00    -0.532 OA
ATOM     17  O   UNL d   1      20.929 -17.637  -0.897  0.00  0.00    -0.532 OA
ENDBRANCH  12  15
ENDBRANCH   2   5
BRANCH   3  18
ATOM     18  C   UNL d   1      27.272 -11.777  -3.604  0.00  0.00     0.165 C 
BRANCH  18  19
ATOM     19  C   UNL d   1      26.568 -10.404  -4.084  0.00  0.00     0.101 C 
ATOM     20  C   UNL d   1      27.036  -9.157  -3.277  0.00  0.00     0.045 C 
ATOM     21  C   UNL d   1      26.795  -7.853  -4.061  0.00  0.00     0.008 C 
ATOM     22  C   UNL d   1      27.678  -7.849  -5.302  0.00  0.00     0.039 C 
ATOM     23  C   UNL d   1      27.472  -9.104  -6.113  0.00  0.00    -0.049 C 
ATOM     24  C   UNL d   1      28.029  -9.169  -7.398  0.00  0.00     0.007 C 
ATOM     25  C   UNL d   1      26.811 -10.235  -5.590  0.00  0.00    -0.016 C 
ATOM     26  C   UNL d   1      27.939 -10.336  -8.156  0.00  0.00     0.001 C 
ATOM     27  C   UNL d   1      27.239 -11.431  -7.663  0.00  0.00     0.001 C 
ATOM     28  C   UNL d   1      26.622 -11.359  -6.420  0.00  0.00     0.011 C 
BRANCH  19  29
ATOM     29  O   UNL d   1      25.154 -10.570  -3.859  0.00  0.00    -0.383 OA
ATOM     30  H   UNL d   1      24.850 -11.396  -4.272  0.00  0.00     0.211 HD
ENDBRANCH  19  29
ENDBRANCH  18  19
ENDBRANCH   3  18
TORSDOF 5
ENDMDL
MODEL 8
REMARK VINA RESULT:    -7.431      4.876      6.284
REMARK INTER + INTRA:         -10.414
REMARK INTER:                  -8.922
REMARK INTRA:                  -1.492
REMARK CONF_INDEPENDENT:        1.492
REMARK UNBOUND:                -1.492
REMARK  5 active torsions:
REMARK  status: ('A' for Active; 'I' for Inactive)
REMARK       I    between atoms: C_2  and  N_3 
REMARK    1  A    between atoms: C_2  and  C_16 
REMARK    2  A    between atoms: N_3  and  C_4 
REMARK    3  A    between atoms: C_5  and  C_4 
REMARK    4  A    between atoms: C_5  and  O_6 
REMARK    5  A    between atoms: C_22  and  N_23 
ROOT
ATOM      1  O   UNL d   1      25.176 -13.378  -4.329  0.00  0.00    -0.266 OA
ATOM      2  C   UNL d   1      25.830 -13.982  -3.506  0.00  0.00     0.268 C 
ATOM      3  N   UNL d   1      27.162 -13.605  -3.207  0.00  0.00    -0.352 N 
ATOM      4  H   UNL d   1      27.643 -14.202  -2.558  0.00  0.00     0.162 HD
ENDROOT
BRANCH   2   5
ATOM      5  C   UNL d   1      25.327 -15.169  -2.718  0.00  0.00     0.102 C 
ATOM      6  C   UNL d   1      26.112 -16.211  -2.284  0.00  0.00     0.049 C 
ATOM      7  C   UNL d   1      25.445 -16.908  -1.276  0.00  0.00    -0.005 C 
ATOM      8  C   UNL d   1      25.962 -17.686  -0.239  0.00  0.00     0.014 C 
ATOM      9  C   UNL d   1      24.072 -16.725  -1.443  0.00  0.00     0.076 C 
ATOM     10  C   UNL d   1      25.112 -18.201   0.713  0.00  0.00     0.003 C 
ATOM     11  C   UNL d   1      23.782 -18.339   0.378  0.00  0.00     0.038 C 
ATOM     12  C   UNL d   1      23.210 -17.676  -0.752  0.00  0.00     0.130 C 
ATOM     13  N   UNL d   1      24.034 -15.494  -2.179  0.00  0.00    -0.349 N 
ATOM     14  H   UNL d   1      23.307 -14.790  -2.090  0.00  0.00     0.166 HD
BRANCH  12  15
ATOM     15  N   UNL d   1      21.943 -18.328  -1.205  0.00  0.00    -0.113 N 
ATOM     16  O   UNL d   1      22.036 -19.320  -1.957  0.00  0.00    -0.532 OA
ATOM     17  O   UNL d   1      20.869 -17.804  -0.896  0.00  0.00    -0.532 OA
ENDBRANCH  12  15
ENDBRANCH   2   5
BRANCH   3  18
ATOM     18  C   UNL d   1      28.103 -12.817  -4.072  0.00  0.00     0.165 C 
BRANCH  18  19
ATOM     19  C   UNL d   1      28.339 -13.394  -5.563  0.00  0.00     0.101 C 
ATOM     20  C   UNL d   1      29.138 -12.423  -6.481  0.00  0.00     0.045 C 
ATOM     21  C   UNL d   1      29.801 -13.169  -7.654  0.00  0.00     0.008 C 
ATOM     22  C   UNL d   1      30.858 -14.119  -7.104  0.00  0.00     0.039 C 
ATOM     23  C   UNL d   1      30.272 -15.023  -6.049  0.00  0.00    -0.049 C 
ATOM     24  C   UNL d   1      31.039 -16.107  -5.597  0.00  0.00     0.007 C 
ATOM     25  C   UNL d   1      29.022 -14.764  -5.448  0.00  0.00    -0.016 C 
ATOM     26  C   UNL d   1      30.579 -16.924  -4.565  0.00  0.00     0.001 C 
ATOM     27  C   UNL d   1      29.322 -16.703  -4.013  0.00  0.00     0.001 C 
ATOM     28  C   UNL d   1      28.522 -15.676  -4.496  0.00  0.00     0.011 C 
BRANCH  19  29
ATOM     29  O   UNL d   1      27.032 -13.576  -6.142  0.00  0.00    -0.383 OA
ATOM     30  H   UNL d   1      26.398 -13.829  -5.450  0.00  0.00     0.211 HD
ENDBRANCH  19  29
ENDBRANCH  18  19
ENDBRANCH   3  18
TORSDOF 5
ENDMDL
MODEL 9
REMARK VINA RESULT:    -6.956      3.831      9.255
REMARK INTER + INTRA:          -9.899
REMARK INTER:                  -8.447
REMARK INTRA:                  -1.452
REMARK CONF_INDEPENDENT:        1.492
REMARK UNBOUND:                -1.452
REMARK  5 active torsions:
REMARK  status: ('A' for Active; 'I' for Inactive)
REMARK       I    between atoms: C_2  and  N_3 
REMARK    1  A    between atoms: C_2  and  C_16 
REMARK    2  A    between atoms: N_3  and  C_4 
REMARK    3  A    between atoms: C_5  and  C_4 
REMARK    4  A    between atoms: C_5  and  O_6 
REMARK    5  A    between atoms: C_22  and  N_23 
ROOT
ATOM      1  O   UNL d   1      27.808 -12.520   2.308  0.00  0.00    -0.266 OA
ATOM      2  C   UNL d   1      27.844 -13.727   2.211  0.00  0.00     0.268 C 
ATOM      3  N   UNL d   1      28.503 -14.523   3.179  0.00  0.00    -0.352 N 
ATOM      4  H   UNL d   1      28.532 -15.507   2.981  0.00  0.00     0.162 HD
ENDROOT
BRANCH   2   5
ATOM      5  C   UNL d   1      27.209 -14.514   1.086  0.00  0.00     0.102 C 
ATOM      6  C   UNL d   1      27.392 -15.859   0.871  0.00  0.00     0.049 C 
ATOM      7  C   UNL d   1      26.384 -16.337   0.032  0.00  0.00    -0.005 C 
ATOM      8  C   UNL d   1      25.864 -17.627  -0.090  0.00  0.00     0.014 C 
ATOM      9  C   UNL d   1      25.915 -15.280  -0.747  0.00  0.00     0.076 C 
ATOM     10  C   UNL d   1      24.788 -17.850  -0.917  0.00  0.00     0.003 C 
ATOM     11  C   UNL d   1      24.558 -16.943  -1.929  0.00  0.00     0.038 C 
ATOM     12  C   UNL d   1      25.162 -15.647  -1.940  0.00  0.00     0.130 C 
ATOM     13  N   UNL d   1      26.267 -14.148   0.063  0.00  0.00    -0.349 N 
ATOM     14  H   UNL d   1      25.725 -13.292   0.125  0.00  0.00     0.166 HD
BRANCH  12  15
ATOM     15  N   UNL d   1      25.178 -15.045  -3.308  0.00  0.00    -0.113 N 
ATOM     16  O   UNL d   1      24.404 -14.091  -3.532  0.00  0.00    -0.532 OA
ATOM     17  O   UNL d   1      25.880 -15.574  -4.175  0.00  0.00    -0.532 OA
ENDBRANCH  12  15
ENDBRANCH   2   5
BRANCH   3  18
ATOM     18  C   UNL d   1      29.584 -14.094   4.130  0.00  0.00     0.165 C 
BRANCH  18  19
ATOM     19  C   UNL d   1      29.079 -13.424   5.511  0.00  0.00     0.101 C 
ATOM     20  C   UNL d   1      28.904 -14.452   6.667  0.00  0.00     0.045 C 
ATOM     21  C   UNL d   1      28.957 -13.768   8.046  0.00  0.00     0.008 C 
ATOM     22  C   UNL d   1      30.352 -13.196   8.262  0.00  0.00     0.039 C 
ATOM     23  C   UNL d   1      30.752 -12.303   7.115  0.00  0.00    -0.049 C 
ATOM     24  C   UNL d   1      31.904 -11.515   7.250  0.00  0.00     0.007 C 
ATOM     25  C   UNL d   1      30.055 -12.300   5.888  0.00  0.00    -0.016 C 
ATOM     26  C   UNL d   1      32.363 -10.736   6.189  0.00  0.00     0.001 C 
ATOM     27  C   UNL d   1      31.644 -10.689   5.001  0.00  0.00     0.001 C 
ATOM     28  C   UNL d   1      30.463 -11.410   4.874  0.00  0.00     0.011 C 
BRANCH  19  29
ATOM     29  O   UNL d   1      27.789 -12.843   5.236  0.00  0.00    -0.383 OA
ATOM     30  H   UNL d   1      27.824 -12.344   4.403  0.00  0.00     0.211 HD
ENDBRANCH  19  29
ENDBRANCH  18  19
ENDBRANCH   3  18
TORSDOF 5
ENDMDL
