MODEL 1
REMARK VINA RESULT:    -7.601      0.000      0.000
REMARK INTER + INTRA:         -10.610
REMARK INTER:                  -9.689
REMARK INTRA:                  -0.921
REMARK CONF_INDEPENDENT:        2.088
REMARK UNBOUND:                -0.921
REMARK  7 active torsions:
REMARK  status: ('A' for Active; 'I' for Inactive)
REMARK    1  A    between atoms: C_2  and  O_5 
REMARK    2  A    between atoms: O_5  and  C_6 
REMARK       I    between atoms: C_6  and  N_8 
REMARK    3  A    between atoms: N_8  and  C_9 
REMARK    4  A    between atoms: C_9  and  C_10 
REMARK    5  A    between atoms: C_10  and  C_11 
REMARK       I    between atoms: C_11  and  N_13 
REMARK    6  A    between atoms: N_13  and  N_14 
REMARK    7  A    between atoms: N_14  and  C_15 
ROOT
ATOM      1  C   UNL d   1      22.908 -17.044  -0.904  0.00  0.00     0.237 C 
ATOM      2  O   UNL d   1      22.252 -16.002  -0.897  0.00  0.00    -0.272 OA
ATOM      3  N   UNL d   1      22.301 -18.303  -0.801  0.00  0.00    -0.270 N 
ATOM      4  H   UNL d   1      22.800 -19.154  -1.039  0.00  0.00     0.190 HD
ENDROOT
BRANCH   1   5
ATOM      5  C   UNL d   1      24.445 -17.051  -1.004  0.00  0.00     0.124 C 
BRANCH   5   6
ATOM      6  C   UNL d   1      24.983 -15.775  -1.674  0.00  0.00     0.134 C 
BRANCH   6   7
ATOM      7  N   UNL d   1      25.857 -15.976  -2.839  0.00  0.00    -0.336 N 
ATOM      8  C   UNL d   1      25.629 -15.258  -3.994  0.00  0.00     0.361 C 
ATOM      9  O   UNL d   1      24.711 -14.448  -4.083  0.00  0.00    -0.238 OA
ATOM     10  H   UNL d   1      26.629 -16.629  -2.830  0.00  0.00     0.164 HD
BRANCH   8  11
ATOM     11  O   UNL d   1      26.516 -15.542  -5.001  0.00  0.00    -0.294 OA
BRANCH  11  12
ATOM     12  C   UNL d   1      27.842 -14.903  -4.964  0.00  0.00     0.061 C 
ATOM     13  C   UNL d   1      28.417 -14.821  -6.398  0.00  0.00     0.046 C 
ATOM     14  C   UNL d   1      28.834 -15.730  -4.132  0.00  0.00     0.046 C 
ATOM     15  C   UNL d   1      27.749 -13.462  -4.438  0.00  0.00     0.046 C 
ENDBRANCH  11  12
ENDBRANCH   8  11
ENDBRANCH   6   7
ENDBRANCH   5   6
ENDBRANCH   1   5
BRANCH   3  16
ATOM     16  N   UNL d   1      20.904 -18.348  -0.983  0.00  0.00    -0.298 N 
ATOM     17  H   UNL d   1      20.465 -17.525  -1.408  0.00  0.00     0.187 HD
BRANCH  16  18
ATOM     18  C   UNL d   1      20.108 -19.252  -0.256  0.00  0.00     0.049 A 
ATOM     19  C   UNL d   1      18.992 -19.909  -0.789  0.00  0.00     0.031 A 
ATOM     20  C   UNL d   1      18.191 -20.750   0.003  0.00  0.00     0.004 A 
ATOM     21  C   UNL d   1      18.474 -20.924   1.355  0.00  0.00     0.024 A 
ATOM     22  C   UNL d   1      19.572 -20.271   1.904  0.00  0.00     0.036 A 
ATOM     23 CL   UNL d   1      19.903 -20.450   3.585  0.00  0.00    -0.084 Cl
ATOM     24  C   UNL d   1      20.393 -19.461   1.107  0.00  0.00     0.054 A 
ENDBRANCH  16  18
ENDBRANCH   3  16
TORSDOF 7
ENDMDL
MODEL 2
REMARK VINA RESULT:    -6.590      3.534      5.004
REMARK INTER + INTRA:         -10.070
REMARK INTER:                  -8.679
REMARK INTRA:                  -1.391
REMARK CONF_INDEPENDENT:        2.088
REMARK UNBOUND:                -1.391
REMARK  7 active torsions:
REMARK  status: ('A' for Active; 'I' for Inactive)
REMARK    1  A    between atoms: C_2  and  O_5 
REMARK    2  A    between atoms: O_5  and  C_6 
REMARK       I    between atoms: C_6  and  N_8 
REMARK    3  A    between atoms: N_8  and  C_9 
REMARK    4  A    between atoms: C_9  and  C_10 
REMARK    5  A    between atoms: C_10  and  C_11 
REMARK       I    between atoms: C_11  and  N_13 
REMARK    6  A    between atoms: N_13  and  N_14 
REMARK    7  A    between atoms: N_14  and  C_15 
ROOT
ATOM      1  C   UNL d   1      25.508 -13.912  -3.749  0.00  0.00     0.237 C 
ATOM      2  O   UNL d   1      24.285 -13.939  -3.879  0.00  0.00    -0.272 OA
ATOM      3  N   UNL d   1      26.224 -15.003  -3.239  0.00  0.00    -0.270 N 
ATOM      4  H   UNL d   1      27.231 -15.076  -3.347  0.00  0.00     0.190 HD
ENDROOT
BRANCH   1   5
ATOM      5  C   UNL d   1      26.350 -12.675  -4.114  0.00  0.00     0.124 C 
BRANCH   5   6
ATOM      6  C   UNL d   1      26.683 -12.630  -5.616  0.00  0.00     0.134 C 
BRANCH   6   7
ATOM      7  N   UNL d   1      27.822 -13.452  -6.050  0.00  0.00    -0.336 N 
ATOM      8  C   UNL d   1      27.697 -14.825  -6.088  0.00  0.00     0.361 C 
ATOM      9  O   UNL d   1      26.654 -15.389  -5.769  0.00  0.00    -0.238 OA
ATOM     10  H   UNL d   1      28.707 -13.048  -6.324  0.00  0.00     0.164 HD
BRANCH   8  11
ATOM     11  O   UNL d   1      28.832 -15.469  -6.511  0.00  0.00    -0.294 OA
BRANCH  11  12
ATOM     12  C   UNL d   1      29.831 -15.856  -5.502  0.00  0.00     0.061 C 
ATOM     13  C   UNL d   1      30.934 -14.774  -5.424  0.00  0.00     0.046 C 
ATOM     14  C   UNL d   1      30.524 -17.173  -5.884  0.00  0.00     0.046 C 
ATOM     15  C   UNL d   1      29.200 -15.951  -4.104  0.00  0.00     0.046 C 
ENDBRANCH  11  12
ENDBRANCH   8  11
ENDBRANCH   6   7
ENDBRANCH   5   6
ENDBRANCH   1   5
BRANCH   3  16
ATOM     16  N   UNL d   1      25.533 -16.229  -3.154  0.00  0.00    -0.298 N 
ATOM     17  H   UNL d   1      24.974 -16.504  -3.968  0.00  0.00     0.187 HD
BRANCH  16  18
ATOM     18  C   UNL d   1      25.270 -16.828  -1.908  0.00  0.00     0.049 A 
ATOM     19  C   UNL d   1      26.248 -17.055  -0.932  0.00  0.00     0.031 A 
ATOM     20  C   UNL d   1      25.942 -17.719   0.269  0.00  0.00     0.004 A 
ATOM     21  C   UNL d   1      24.656 -18.200   0.500  0.00  0.00     0.024 A 
ATOM     22  C   UNL d   1      23.675 -17.993  -0.462  0.00  0.00     0.036 A 
ATOM     23 CL   UNL d   1      22.092 -18.621  -0.199  0.00  0.00    -0.084 Cl
ATOM     24  C   UNL d   1      23.969 -17.298  -1.644  0.00  0.00     0.054 A 
ENDBRANCH  16  18
ENDBRANCH   3  16
TORSDOF 7
ENDMDL
MODEL 3
REMARK VINA RESULT:    -6.271      3.696      6.012
REMARK INTER + INTRA:          -9.701
REMARK INTER:                  -8.359
REMARK INTRA:                  -1.342
REMARK CONF_INDEPENDENT:        2.088
REMARK UNBOUND:                -1.342
REMARK  7 active torsions:
REMARK  status: ('A' for Active; 'I' for Inactive)
REMARK    1  A    between atoms: C_2  and  O_5 
REMARK    2  A    between atoms: O_5  and  C_6 
REMARK       I    between atoms: C_6  and  N_8 
REMARK    3  A    between atoms: N_8  and  C_9 
REMARK    4  A    between atoms: C_9  and  C_10 
REMARK    5  A    between atoms: C_10  and  C_11 
REMARK       I    between atoms: C_11  and  N_13 
REMARK    6  A    between atoms: N_13  and  N_14 
REMARK    7  A    between atoms: N_14  and  C_15 
ROOT
ATOM      1  C   UNL d   1      25.502 -14.215  -4.243  0.00  0.00     0.237 C 
ATOM      2  O   UNL d   1      24.407 -13.819  -4.642  0.00  0.00    -0.272 OA
ATOM      3  N   UNL d   1      25.665 -14.793  -2.977  0.00  0.00    -0.270 N 
ATOM      4  H   UNL d   1      26.495 -15.325  -2.739  0.00  0.00     0.190 HD
ENDROOT
BRANCH   1   5
ATOM      5  C   UNL d   1      26.783 -14.090  -5.088  0.00  0.00     0.124 C 
BRANCH   5   6
ATOM      6  C   UNL d   1      27.074 -12.630  -5.478  0.00  0.00     0.134 C 
BRANCH   6   7
ATOM      7  N   UNL d   1      25.913 -11.729  -5.517  0.00  0.00    -0.336 N 
ATOM      8  C   UNL d   1      25.930 -10.631  -6.352  0.00  0.00     0.361 C 
ATOM      9  O   UNL d   1      26.893 -10.379  -7.072  0.00  0.00    -0.238 OA
ATOM     10  H   UNL d   1      25.091 -11.880  -4.948  0.00  0.00     0.164 HD
BRANCH   8  11
ATOM     11  O   UNL d   1      24.787  -9.876  -6.291  0.00  0.00    -0.294 OA
BRANCH  11  12
ATOM     12  C   UNL d   1      24.786  -8.677  -5.436  0.00  0.00     0.061 C 
ATOM     13  C   UNL d   1      23.363  -8.071  -5.396  0.00  0.00     0.046 C 
ATOM     14  C   UNL d   1      25.717  -7.593  -6.000  0.00  0.00     0.046 C 
ATOM     15  C   UNL d   1      25.163  -9.028  -3.988  0.00  0.00     0.046 C 
ENDBRANCH  11  12
ENDBRANCH   8  11
ENDBRANCH   6   7
ENDBRANCH   5   6
ENDBRANCH   1   5
BRANCH   3  16
ATOM     16  N   UNL d   1      24.488 -15.169  -2.298  0.00  0.00    -0.298 N 
ATOM     17  H   UNL d   1      23.746 -14.466  -2.230  0.00  0.00     0.187 HD
BRANCH  16  18
ATOM     18  C   UNL d   1      24.482 -16.260  -1.409  0.00  0.00     0.049 A 
ATOM     19  C   UNL d   1      25.627 -16.745  -0.764  0.00  0.00     0.031 A 
ATOM     20  C   UNL d   1      25.575 -17.881   0.062  0.00  0.00     0.004 A 
ATOM     21  C   UNL d   1      24.380 -18.575   0.232  0.00  0.00     0.024 A 
ATOM     22  C   UNL d   1      23.236 -18.114  -0.409  0.00  0.00     0.036 A 
ATOM     23 CL   UNL d   1      21.763 -18.991  -0.235  0.00  0.00    -0.084 Cl
ATOM     24  C   UNL d   1      23.278 -16.959  -1.203  0.00  0.00     0.054 A 
ENDBRANCH  16  18
ENDBRANCH   3  16
TORSDOF 7
ENDMDL
MODEL 4
REMARK VINA RESULT:    -6.215      2.107      2.810
REMARK INTER + INTRA:          -9.879
REMARK INTER:                  -8.303
REMARK INTRA:                  -1.576
REMARK CONF_INDEPENDENT:        2.088
REMARK UNBOUND:                -1.576
REMARK  7 active torsions:
REMARK  status: ('A' for Active; 'I' for Inactive)
REMARK    1  A    between atoms: C_2  and  O_5 
REMARK    2  A    between atoms: O_5  and  C_6 
REMARK       I    between atoms: C_6  and  N_8 
REMARK    3  A    between atoms: N_8  and  C_9 
REMARK    4  A    between atoms: C_9  and  C_10 
REMARK    5  A    between atoms: C_10  and  C_11 
REMARK       I    between atoms: C_11  and  N_13 
REMARK    6  A    between atoms: N_13  and  N_14 
REMARK    7  A    between atoms: N_14  and  C_15 
ROOT
ATOM      1  C   UNL d   1      25.529 -18.055   0.190  0.00  0.00     0.237 C 
ATOM      2  O   UNL d   1      25.764 -18.574   1.281  0.00  0.00    -0.272 OA
ATOM      3  N   UNL d   1      24.231 -17.978  -0.331  0.00  0.00    -0.270 N 
ATOM      4  H   UNL d   1      24.002 -17.357  -1.100  0.00  0.00     0.190 HD
ENDROOT
BRANCH   1   5
ATOM      5  C   UNL d   1      26.640 -17.467  -0.700  0.00  0.00     0.124 C 
BRANCH   5   6
ATOM      6  C   UNL d   1      27.172 -16.132  -0.148  0.00  0.00     0.134 C 
BRANCH   6   7
ATOM      7  N   UNL d   1      27.155 -14.995  -1.079  0.00  0.00    -0.336 N 
ATOM      8  C   UNL d   1      26.006 -14.713  -1.788  0.00  0.00     0.361 C 
ATOM      9  O   UNL d   1      24.987 -15.387  -1.665  0.00  0.00    -0.238 OA
ATOM     10  H   UNL d   1      27.961 -14.403  -1.226  0.00  0.00     0.164 HD
BRANCH   8  11
ATOM     11  O   UNL d   1      26.125 -13.628  -2.619  0.00  0.00    -0.294 OA
BRANCH  11  12
ATOM     12  C   UNL d   1      25.570 -13.726  -3.979  0.00  0.00     0.061 C 
ATOM     13  C   UNL d   1      24.028 -13.816  -3.903  0.00  0.00     0.046 C 
ATOM     14  C   UNL d   1      26.057 -14.999  -4.687  0.00  0.00     0.046 C 
ATOM     15  C   UNL d   1      25.904 -12.474  -4.805  0.00  0.00     0.046 C 
ENDBRANCH  11  12
ENDBRANCH   8  11
ENDBRANCH   6   7
ENDBRANCH   5   6
ENDBRANCH   1   5
BRANCH   3  16
ATOM     16  N   UNL d   1      23.175 -18.253   0.562  0.00  0.00    -0.298 N 
ATOM     17  H   UNL d   1      23.415 -18.336   1.554  0.00  0.00     0.187 HD
BRANCH  16  18
ATOM     18  C   UNL d   1      21.961 -18.797   0.103  0.00  0.00     0.049 A 
ATOM     19  C   UNL d   1      21.585 -18.834  -1.246  0.00  0.00     0.031 A 
ATOM     20  C   UNL d   1      20.331 -19.329  -1.643  0.00  0.00     0.004 A 
ATOM     21  C   UNL d   1      19.413 -19.766  -0.691  0.00  0.00     0.024 A 
ATOM     22  C   UNL d   1      19.765 -19.727   0.653  0.00  0.00     0.036 A 
ATOM     23 CL   UNL d   1      18.619 -20.229   1.838  0.00  0.00    -0.084 Cl
ATOM     24  C   UNL d   1      21.030 -19.269   1.047  0.00  0.00     0.054 A 
ENDBRANCH  16  18
ENDBRANCH   3  16
TORSDOF 7
ENDMDL
MODEL 5
REMARK VINA RESULT:    -5.900      4.093      5.209
REMARK INTER + INTRA:         -10.234
REMARK INTER:                  -7.988
REMARK INTRA:                  -2.246
REMARK CONF_INDEPENDENT:        2.088
REMARK UNBOUND:                -2.246
REMARK  7 active torsions:
REMARK  status: ('A' for Active; 'I' for Inactive)
REMARK    1  A    between atoms: C_2  and  O_5 
REMARK    2  A    between atoms: O_5  and  C_6 
REMARK       I    between atoms: C_6  and  N_8 
REMARK    3  A    between atoms: N_8  and  C_9 
REMARK    4  A    between atoms: C_9  and  C_10 
REMARK    5  A    between atoms: C_10  and  C_11 
REMARK       I    between atoms: C_11  and  N_13 
REMARK    6  A    between atoms: N_13  and  N_14 
REMARK    7  A    between atoms: N_14  and  C_15 
ROOT
ATOM      1  C   UNL d   1      26.295 -12.610  -2.184  0.00  0.00     0.237 C 
ATOM      2  O   UNL d   1      27.066 -12.038  -1.413  0.00  0.00    -0.272 OA
ATOM      3  N   UNL d   1      25.983 -13.969  -2.046  0.00  0.00    -0.270 N 
ATOM      4  H   UNL d   1      25.186 -14.382  -2.520  0.00  0.00     0.190 HD
ENDROOT
BRANCH   1   5
ATOM      5  C   UNL d   1      25.629 -11.890  -3.371  0.00  0.00     0.124 C 
BRANCH   5   6
ATOM      6  C   UNL d   1      25.197 -12.876  -4.471  0.00  0.00     0.134 C 
BRANCH   6   7
ATOM      7  N   UNL d   1      26.278 -13.629  -5.124  0.00  0.00    -0.336 N 
ATOM      8  C   UNL d   1      26.349 -14.997  -4.963  0.00  0.00     0.361 C 
ATOM      9  O   UNL d   1      25.530 -15.613  -4.286  0.00  0.00    -0.238 OA
ATOM     10  H   UNL d   1      26.983 -13.181  -5.693  0.00  0.00     0.164 HD
BRANCH   8  11
ATOM     11  O   UNL d   1      27.403 -15.574  -5.624  0.00  0.00    -0.294 OA
BRANCH  11  12
ATOM     12  C   UNL d   1      28.743 -15.473  -5.024  0.00  0.00     0.061 C 
ATOM     13  C   UNL d   1      29.362 -14.098  -5.372  0.00  0.00     0.046 C 
ATOM     14  C   UNL d   1      29.688 -16.544  -5.590  0.00  0.00     0.046 C 
ATOM     15  C   UNL d   1      28.673 -15.555  -3.491  0.00  0.00     0.046 C 
ENDBRANCH  11  12
ENDBRANCH   8  11
ENDBRANCH   6   7
ENDBRANCH   5   6
ENDBRANCH   1   5
BRANCH   3  16
ATOM     16  N   UNL d   1      26.350 -14.582  -0.831  0.00  0.00    -0.298 N 
ATOM     17  H   UNL d   1      27.140 -14.172  -0.324  0.00  0.00     0.187 HD
BRANCH  16  18
ATOM     18  C   UNL d   1      25.960 -15.902  -0.539  0.00  0.00     0.049 A 
ATOM     19  C   UNL d   1      26.847 -16.903  -0.123  0.00  0.00     0.031 A 
ATOM     20  C   UNL d   1      26.414 -18.223   0.090  0.00  0.00     0.004 A 
ATOM     21  C   UNL d   1      25.087 -18.575  -0.143  0.00  0.00     0.024 A 
ATOM     22  C   UNL d   1      24.194 -17.597  -0.566  0.00  0.00     0.036 A 
ATOM     23 CL   UNL d   1      22.560 -18.035  -0.894  0.00  0.00    -0.084 Cl
ATOM     24  C   UNL d   1      24.617 -16.272  -0.743  0.00  0.00     0.054 A 
ENDBRANCH  16  18
ENDBRANCH   3  16
TORSDOF 7
ENDMDL
MODEL 6
REMARK VINA RESULT:    -5.845      6.151      8.532
REMARK INTER + INTRA:          -9.416
REMARK INTER:                  -7.933
REMARK INTRA:                  -1.483
REMARK CONF_INDEPENDENT:        2.088
REMARK UNBOUND:                -1.483
REMARK  7 active torsions:
REMARK  status: ('A' for Active; 'I' for Inactive)
REMARK    1  A    between atoms: C_2  and  O_5 
REMARK    2  A    between atoms: O_5  and  C_6 
REMARK       I    between atoms: C_6  and  N_8 
REMARK    3  A    between atoms: N_8  and  C_9 
REMARK    4  A    between atoms: C_9  and  C_10 
REMARK    5  A    between atoms: C_10  and  C_11 
REMARK       I    between atoms: C_11  and  N_13 
REMARK    6  A    between atoms: N_13  and  N_14 
REMARK    7  A    between atoms: N_14  and  C_15 
ROOT
ATOM      1  C   UNL d   1      30.295 -15.932   0.048  0.00  0.00     0.237 C 
ATOM      2  O   UNL d   1      30.646 -16.533  -0.968  0.00  0.00    -0.272 OA
ATOM      3  N   UNL d   1      29.020 -16.099   0.605  0.00  0.00    -0.270 N 
ATOM      4  H   UNL d   1      28.809 -15.797   1.550  0.00  0.00     0.190 HD
ENDROOT
BRANCH   1   5
ATOM      5  C   UNL d   1      31.215 -14.936   0.777  0.00  0.00     0.124 C 
BRANCH   5   6
ATOM      6  C   UNL d   1      31.622 -15.444   2.172  0.00  0.00     0.134 C 
BRANCH   6   7
ATOM      7  N   UNL d   1      31.256 -14.582   3.305  0.00  0.00    -0.336 N 
ATOM      8  C   UNL d   1      29.987 -14.046   3.371  0.00  0.00     0.361 C 
ATOM      9  O   UNL d   1      29.144 -14.267   2.506  0.00  0.00    -0.238 OA
ATOM     10  H   UNL d   1      31.904 -14.361   4.048  0.00  0.00     0.164 HD
BRANCH   8  11
ATOM     11  O   UNL d   1      29.779 -13.262   4.478  0.00  0.00    -0.294 OA
BRANCH  11  12
ATOM     12  C   UNL d   1      28.988 -13.819   5.588  0.00  0.00     0.061 C 
ATOM     13  C   UNL d   1      28.420 -15.198   5.178  0.00  0.00     0.046 C 
ATOM     14  C   UNL d   1      27.785 -12.921   5.918  0.00  0.00     0.046 C 
ATOM     15  C   UNL d   1      29.862 -14.048   6.831  0.00  0.00     0.046 C 
ENDBRANCH  11  12
ENDBRANCH   8  11
ENDBRANCH   6   7
ENDBRANCH   5   6
ENDBRANCH   1   5
BRANCH   3  16
ATOM     16  N   UNL d   1      28.262 -17.190   0.132  0.00  0.00    -0.298 N 
ATOM     17  H   UNL d   1      28.761 -18.072  -0.016  0.00  0.00     0.187 HD
BRANCH  16  18
ATOM     18  C   UNL d   1      27.020 -16.990  -0.498  0.00  0.00     0.049 A 
ATOM     19  C   UNL d   1      26.770 -15.963  -1.417  0.00  0.00     0.031 A 
ATOM     20  C   UNL d   1      25.491 -15.768  -1.966  0.00  0.00     0.004 A 
ATOM     21  C   UNL d   1      24.426 -16.578  -1.578  0.00  0.00     0.024 A 
ATOM     22  C   UNL d   1      24.654 -17.595  -0.659  0.00  0.00     0.036 A 
ATOM     23 CL   UNL d   1      23.333 -18.575  -0.144  0.00  0.00    -0.084 Cl
ATOM     24  C   UNL d   1      25.937 -17.815  -0.139  0.00  0.00     0.054 A 
ENDBRANCH  16  18
ENDBRANCH   3  16
TORSDOF 7
ENDMDL
MODEL 7
REMARK VINA RESULT:    -5.582      4.491      5.686
REMARK INTER + INTRA:          -9.654
REMARK INTER:                  -7.670
REMARK INTRA:                  -1.984
REMARK CONF_INDEPENDENT:        2.088
REMARK UNBOUND:                -1.984
REMARK  7 active torsions:
REMARK  status: ('A' for Active; 'I' for Inactive)
REMARK    1  A    between atoms: C_2  and  O_5 
REMARK    2  A    between atoms: O_5  and  C_6 
REMARK       I    between atoms: C_6  and  N_8 
REMARK    3  A    between atoms: N_8  and  C_9 
REMARK    4  A    between atoms: C_9  and  C_10 
REMARK    5  A    between atoms: C_10  and  C_11 
REMARK       I    between atoms: C_11  and  N_13 
REMARK    6  A    between atoms: N_13  and  N_14 
REMARK    7  A    between atoms: N_14  and  C_15 
ROOT
ATOM      1  C   UNL d   1      24.730 -13.735  -3.906  0.00  0.00     0.237 C 
ATOM      2  O   UNL d   1      23.500 -13.711  -3.901  0.00  0.00    -0.272 OA
ATOM      3  N   UNL d   1      25.459 -14.598  -3.076  0.00  0.00    -0.270 N 
ATOM      4  H   UNL d   1      26.442 -14.788  -3.239  0.00  0.00     0.190 HD
ENDROOT
BRANCH   1   5
ATOM      5  C   UNL d   1      25.570 -12.808  -4.804  0.00  0.00     0.124 C 
BRANCH   5   6
ATOM      6  C   UNL d   1      27.069 -12.879  -4.461  0.00  0.00     0.134 C 
BRANCH   6   7
ATOM      7  N   UNL d   1      27.927 -13.544  -5.453  0.00  0.00    -0.336 N 
ATOM      8  C   UNL d   1      27.781 -14.896  -5.684  0.00  0.00     0.361 C 
ATOM      9  O   UNL d   1      26.949 -15.570  -5.082  0.00  0.00    -0.238 OA
ATOM     10  H   UNL d   1      28.631 -13.045  -5.981  0.00  0.00     0.164 HD
BRANCH   8  11
ATOM     11  O   UNL d   1      28.642 -15.387  -6.632  0.00  0.00    -0.294 OA
BRANCH  11  12
ATOM     12  C   UNL d   1      30.002 -15.764  -6.213  0.00  0.00     0.061 C 
ATOM     13  C   UNL d   1      31.011 -14.710  -6.727  0.00  0.00     0.046 C 
ATOM     14  C   UNL d   1      30.417 -17.113  -6.819  0.00  0.00     0.046 C 
ATOM     15  C   UNL d   1      30.123 -15.786  -4.681  0.00  0.00     0.046 C 
ENDBRANCH  11  12
ENDBRANCH   8  11
ENDBRANCH   6   7
ENDBRANCH   5   6
ENDBRANCH   1   5
BRANCH   3  16
ATOM     16  N   UNL d   1      24.735 -15.635  -2.453  0.00  0.00    -0.298 N 
ATOM     17  H   UNL d   1      23.717 -15.534  -2.416  0.00  0.00     0.187 HD
BRANCH  16  18
ATOM     18  C   UNL d   1      25.368 -16.529  -1.569  0.00  0.00     0.049 A 
ATOM     19  C   UNL d   1      24.679 -17.348  -0.665  0.00  0.00     0.031 A 
ATOM     20  C   UNL d   1      25.365 -18.173   0.243  0.00  0.00     0.004 A 
ATOM     21  C   UNL d   1      26.757 -18.168   0.287  0.00  0.00     0.024 A 
ATOM     22  C   UNL d   1      27.456 -17.354  -0.595  0.00  0.00     0.036 A 
ATOM     23 CL   UNL d   1      29.177 -17.313  -0.518  0.00  0.00    -0.084 Cl
ATOM     24  C   UNL d   1      26.774 -16.558  -1.527  0.00  0.00     0.054 A 
ENDBRANCH  16  18
ENDBRANCH   3  16
TORSDOF 7
ENDMDL
MODEL 8
REMARK VINA RESULT:    -5.193      3.845      5.764
REMARK INTER + INTRA:          -9.577
REMARK INTER:                  -7.281
REMARK INTRA:                  -2.296
REMARK CONF_INDEPENDENT:        2.088
REMARK UNBOUND:                -2.296
REMARK  7 active torsions:
REMARK  status: ('A' for Active; 'I' for Inactive)
REMARK    1  A    between atoms: C_2  and  O_5 
REMARK    2  A    between atoms: O_5  and  C_6 
REMARK       I    between atoms: C_6  and  N_8 
REMARK    3  A    between atoms: N_8  and  C_9 
REMARK    4  A    between atoms: C_9  and  C_10 
REMARK    5  A    between atoms: C_10  and  C_11 
REMARK       I    between atoms: C_11  and  N_13 
REMARK    6  A    between atoms: N_13  and  N_14 
REMARK    7  A    between atoms: N_14  and  C_15 
ROOT
ATOM      1  C   UNL d   1      25.249 -13.667  -3.656  0.00  0.00     0.237 C 
ATOM      2  O   UNL d   1      24.696 -14.149  -4.645  0.00  0.00    -0.272 OA
ATOM      3  N   UNL d   1      25.612 -14.452  -2.554  0.00  0.00    -0.270 N 
ATOM      4  H   UNL d   1      26.265 -14.115  -1.853  0.00  0.00     0.190 HD
ENDROOT
BRANCH   1   5
ATOM      5  C   UNL d   1      25.569 -12.165  -3.539  0.00  0.00     0.124 C 
BRANCH   5   6
ATOM      6  C   UNL d   1      27.055 -11.917  -3.225  0.00  0.00     0.134 C 
BRANCH   6   7
ATOM      7  N   UNL d   1      27.427 -11.944  -1.803  0.00  0.00    -0.336 N 
ATOM      8  C   UNL d   1      28.106 -13.033  -1.297  0.00  0.00     0.361 C 
ATOM      9  O   UNL d   1      28.413 -13.990  -2.003  0.00  0.00    -0.238 OA
ATOM     10  H   UNL d   1      27.203 -11.188  -1.170  0.00  0.00     0.164 HD
BRANCH   8  11
ATOM     11  O   UNL d   1      28.392 -12.929   0.040  0.00  0.00    -0.294 OA
BRANCH  11  12
ATOM     12  C   UNL d   1      27.775 -13.896   0.963  0.00  0.00     0.061 C 
ATOM     13  C   UNL d   1      26.280 -14.073   0.604  0.00  0.00     0.046 C 
ATOM     14  C   UNL d   1      27.828 -13.392   2.413  0.00  0.00     0.046 C 
ATOM     15  C   UNL d   1      28.430 -15.280   0.836  0.00  0.00     0.046 C 
ENDBRANCH  11  12
ENDBRANCH   8  11
ENDBRANCH   6   7
ENDBRANCH   5   6
ENDBRANCH   1   5
BRANCH   3  16
ATOM     16  N   UNL d   1      25.587 -15.850  -2.737  0.00  0.00    -0.298 N 
ATOM     17  H   UNL d   1      25.544 -16.191  -3.702  0.00  0.00     0.187 HD
BRANCH  16  18
ATOM     18  C   UNL d   1      25.214 -16.711  -1.688  0.00  0.00     0.049 A 
ATOM     19  C   UNL d   1      26.116 -17.238  -0.756  0.00  0.00     0.031 A 
ATOM     20  C   UNL d   1      25.699 -18.149   0.231  0.00  0.00     0.004 A 
ATOM     21  C   UNL d   1      24.374 -18.575   0.282  0.00  0.00     0.024 A 
ATOM     22  C   UNL d   1      23.467 -18.069  -0.642  0.00  0.00     0.036 A 
ATOM     23 CL   UNL d   1      21.836 -18.624  -0.609  0.00  0.00    -0.084 Cl
ATOM     24  C   UNL d   1      23.874 -17.133  -1.603  0.00  0.00     0.054 A 
ENDBRANCH  16  18
ENDBRANCH   3  16
TORSDOF 7
ENDMDL
MODEL 9
REMARK VINA RESULT:    -4.990      4.681      6.276
REMARK INTER + INTRA:          -9.436
REMARK INTER:                  -7.078
REMARK INTRA:                  -2.358
REMARK CONF_INDEPENDENT:        2.088
REMARK UNBOUND:                -2.358
REMARK  7 active torsions:
REMARK  status: ('A' for Active; 'I' for Inactive)
REMARK    1  A    between atoms: C_2  and  O_5 
REMARK    2  A    between atoms: O_5  and  C_6 
REMARK       I    between atoms: C_6  and  N_8 
REMARK    3  A    between atoms: N_8  and  C_9 
REMARK    4  A    between atoms: C_9  and  C_10 
REMARK    5  A    between atoms: C_10  and  C_11 
REMARK       I    between atoms: C_11  and  N_13 
REMARK    6  A    between atoms: N_13  and  N_14 
REMARK    7  A    between atoms: N_14  and  C_15 
ROOT
ATOM      1  C   UNL d   1      29.820 -15.539  -3.566  0.00  0.00     0.237 C 
ATOM      2  O   UNL d   1      30.427 -14.766  -2.825  0.00  0.00    -0.272 OA
ATOM      3  N   UNL d   1      28.632 -16.168  -3.169  0.00  0.00    -0.270 N 
ATOM      4  H   UNL d   1      28.015 -16.610  -3.842  0.00  0.00     0.190 HD
ENDROOT
BRANCH   1   5
ATOM      5  C   UNL d   1      30.323 -15.896  -4.977  0.00  0.00     0.124 C 
BRANCH   5   6
ATOM      6  C   UNL d   1      29.275 -15.578  -6.058  0.00  0.00     0.134 C 
BRANCH   6   7
ATOM      7  N   UNL d   1      28.472 -14.366  -5.841  0.00  0.00    -0.336 N 
ATOM      8  C   UNL d   1      27.172 -14.481  -5.394  0.00  0.00     0.361 C 
ATOM      9  O   UNL d   1      26.659 -15.574  -5.168  0.00  0.00    -0.238 OA
ATOM     10  H   UNL d   1      28.835 -13.438  -6.010  0.00  0.00     0.164 HD
BRANCH   8  11
ATOM     11  O   UNL d   1      26.537 -13.276  -5.233  0.00  0.00    -0.294 OA
BRANCH  11  12
ATOM     12  C   UNL d   1      26.024 -12.929  -3.898  0.00  0.00     0.061 C 
ATOM     13  C   UNL d   1      25.531 -11.463  -3.898  0.00  0.00     0.046 C 
ATOM     14  C   UNL d   1      27.129 -13.028  -2.835  0.00  0.00     0.046 C 
ATOM     15  C   UNL d   1      24.819 -13.806  -3.523  0.00  0.00     0.046 C 
ENDBRANCH  11  12
ENDBRANCH   8  11
ENDBRANCH   6   7
ENDBRANCH   5   6
ENDBRANCH   1   5
BRANCH   3  16
ATOM     16  N   UNL d   1      28.006 -15.662  -2.012  0.00  0.00    -0.298 N 
ATOM     17  H   UNL d   1      28.396 -14.804  -1.610  0.00  0.00     0.187 HD
BRANCH  16  18
ATOM     18  C   UNL d   1      27.188 -16.483  -1.213  0.00  0.00     0.049 A 
ATOM     19  C   UNL d   1      27.683 -17.458  -0.338  0.00  0.00     0.031 A 
ATOM     20  C   UNL d   1      26.818 -18.297   0.386  0.00  0.00     0.004 A 
ATOM     21  C   UNL d   1      25.439 -18.199   0.220  0.00  0.00     0.024 A 
ATOM     22  C   UNL d   1      24.931 -17.245  -0.653  0.00  0.00     0.036 A 
ATOM     23 CL   UNL d   1      23.227 -17.146  -0.892  0.00  0.00    -0.084 Cl
ATOM     24  C   UNL d   1      25.790 -16.382  -1.347  0.00  0.00     0.054 A 
ENDBRANCH  16  18
ENDBRANCH   3  16
TORSDOF 7
ENDMDL
