MODEL 1
REMARK VINA RESULT:   -32.556      0.000      0.000
REMARK INTER + INTRA:         -37.671
REMARK INTER:                 -35.539
REMARK INTRA:                  -2.132
REMARK CONF_INDEPENDENT:        2.983
REMARK UNBOUND:                -2.132
REMARK  10 active torsions:
REMARK  status: ('A' for Active; 'I' for Inactive)
REMARK    1  A    between atoms: C_2  and  C_3 
REMARK       I    between atoms: C_2  and  N_30 
REMARK    2  A    between atoms: C_3  and  S_4 
REMARK    3  A    between atoms: S_4  and  C_5 
REMARK    4  A    between atoms: N_15  and  N_16 
REMARK       I    between atoms: N_16  and  C_17 
REMARK    5  A    between atoms: C_17  and  C_19 
REMARK    6  A    between atoms: C_19  and  C_20 
REMARK    7  A    between atoms: C_20  and  C_21 
REMARK    8  A    between atoms: N_30  and  C_31 
REMARK    9  A    between atoms: C_31  and  C_32 
REMARK   10  A    between atoms: C_32  and  C_33 
ROOT
ATOM      1  C   UNL d   1      27.828 -15.796  -2.406  0.00  0.00     0.192 A 
ATOM      2  N   UNL d   1      28.953 -15.551  -3.005  0.00  0.00    -0.222 NA
ATOM      3  C   UNL d   1      29.002 -15.120  -4.317  0.00  0.00     0.075 A 
ATOM      4  C   UNL d   1      30.258 -14.803  -4.856  0.00  0.00     0.032 C 
ATOM      5  C   UNL d   1      30.361 -14.203  -6.107  0.00  0.00     0.002 C 
ATOM      6  C   UNL d   1      29.205 -13.997  -6.853  0.00  0.00     0.001 C 
ATOM      7  C   UNL d   1      27.975 -14.505  -6.399  0.00  0.00     0.019 C 
ATOM      8  C   UNL d   1      27.856 -14.986  -5.082  0.00  0.00     0.063 A 
ATOM      9  C   UNL d   1      26.548 -15.309  -4.411  0.00  0.00     0.281 A 
ATOM     10  O   UNL d   1      25.513 -15.247  -5.081  0.00  0.00    -0.265 OA
ATOM     11  N   UNL d   1      26.573 -15.666  -3.024  0.00  0.00    -0.192 N 
ENDROOT
BRANCH  11  12
ATOM     12  N   UNL d   1      25.148 -16.069  -2.424  0.00  0.00    -0.258 N 
ATOM     13  C   UNL d   1      24.799 -16.201  -1.058  0.00  0.00     0.236 C 
ATOM     14  O   UNL d   1      25.573 -15.820  -0.154  0.00  0.00    -0.272 OA
ATOM     15  H   UNL d   1      24.442 -15.895  -3.149  0.00  0.00     0.190 HD
BRANCH  13  16
ATOM     16  C   UNL d   1      23.375 -16.788  -0.505  0.00  0.00     0.105 C 
BRANCH  16  17
ATOM     17  C   UNL d   1      23.139 -18.519  -0.808  0.00  0.00     0.023 C 
BRANCH  17  18
ATOM     18  C   UNL d   1      21.653 -19.622  -0.814  0.00  0.00     0.006 C 
ATOM     19  C   UNL d   1      21.013 -18.575  -0.177  0.00  0.00     0.089 C 
ATOM     20  N   UNL d   1      19.877 -18.739  -0.896  0.00  0.00    -0.288 NA
ATOM     21  C   UNL d   1      19.404 -19.559   0.062  0.00  0.00     0.001 C 
ATOM     22  H   UNL d   1      19.898 -19.090  -1.850  0.00  0.00     0.128 HD
ATOM     23  C   UNL d   1      18.783 -19.154   1.311  0.00  0.00     0.020 C 
ATOM     24  C   UNL d   1      20.282 -20.712  -0.241  0.00  0.00     0.042 C 
ATOM     25  C   UNL d   1      18.311 -20.039   2.233  0.00  0.00     0.001 C 
ATOM     26  C   UNL d   1      18.333 -21.301   1.758  0.00  0.00    -0.003 C 
ATOM     27  C   UNL d   1      19.238 -21.559   0.605  0.00  0.00    -0.009 C 
ENDBRANCH  17  18
ENDBRANCH  16  17
ENDBRANCH  13  16
ENDBRANCH  11  12
BRANCH   1  28
ATOM     28  S   UNL d   1      28.156 -16.220  -0.758  0.00  0.00    -0.081 SA
BRANCH  28  29
ATOM     29  C   UNL d   1      28.591 -14.652   0.017  0.00  0.00     0.185 C 
BRANCH  29  30
ATOM     30  C   UNL d   1      27.868 -13.478  -0.667  0.00  0.00     0.227 C 
ATOM     31  O   UNL d   1      28.057 -13.089  -1.820  0.00  0.00    -0.273 OA
ATOM     32  N   UNL d   1      26.912 -12.811   0.058  0.00  0.00    -0.360 N 
ATOM     33  H   UNL d   1      26.485 -12.046  -0.457  0.00  0.00     0.162 HD
BRANCH  32  34
ATOM     34  C   UNL d   1      26.484 -13.110   1.406  0.00  0.00     0.127 C 
BRANCH  34  35
ATOM     35  C   UNL d   1      27.117 -12.198   2.460  0.00  0.00     0.058 C 
BRANCH  35  36
ATOM     36  C   UNL d   1      27.728 -13.028   3.562  0.00  0.00    -0.057 A 
ATOM     37  C   UNL d   1      27.811 -14.421   3.436  0.00  0.00     0.007 A 
ATOM     38  C   UNL d   1      28.156 -15.207   4.537  0.00  0.00     0.001 A 
ATOM     39  C   UNL d   1      28.551 -14.601   5.727  0.00  0.00     0.000 A 
ATOM     40  C   UNL d   1      28.610 -13.212   5.812  0.00  0.00     0.001 A 
ATOM     41  C   UNL d   1      28.142 -12.428   4.757  0.00  0.00     0.007 A 
ENDBRANCH  35  36
ENDBRANCH  34  35
ENDBRANCH  32  34
ENDBRANCH  29  30
ENDBRANCH  28  29
ENDBRANCH   1  28
TORSDOF 10
ENDMDL
MODEL 2
REMARK VINA RESULT:   -31.597      1.143      1.451
REMARK INTER + INTRA:         -37.222
REMARK INTER:                 -34.580
REMARK INTRA:                  -2.642
REMARK CONF_INDEPENDENT:        2.983
REMARK UNBOUND:                -2.642
REMARK  10 active torsions:
REMARK  status: ('A' for Active; 'I' for Inactive)
REMARK    1  A    between atoms: C_2  and  C_3 
REMARK       I    between atoms: C_2  and  N_30 
REMARK    2  A    between atoms: C_3  and  S_4 
REMARK    3  A    between atoms: S_4  and  C_5 
REMARK    4  A    between atoms: N_15  and  N_16 
REMARK       I    between atoms: N_16  and  C_17 
REMARK    5  A    between atoms: C_17  and  C_19 
REMARK    6  A    between atoms: C_19  and  C_20 
REMARK    7  A    between atoms: C_20  and  C_21 
REMARK    8  A    between atoms: N_30  and  C_31 
REMARK    9  A    between atoms: C_31  and  C_32 
REMARK   10  A    between atoms: C_32  and  C_33 
ROOT
ATOM      1  C   UNL d   1      28.110 -16.173  -2.334  0.00  0.00     0.192 A 
ATOM      2  N   UNL d   1      29.017 -15.574  -3.042  0.00  0.00    -0.222 NA
ATOM      3  C   UNL d   1      28.695 -14.598  -3.966  0.00  0.00     0.075 A 
ATOM      4  C   UNL d   1      29.750 -13.950  -4.628  0.00  0.00     0.032 C 
ATOM      5  C   UNL d   1      29.504 -12.846  -5.439  0.00  0.00     0.002 C 
ATOM      6  C   UNL d   1      28.189 -12.444  -5.650  0.00  0.00     0.001 C 
ATOM      7  C   UNL d   1      27.127 -13.221  -5.154  0.00  0.00     0.019 C 
ATOM      8  C   UNL d   1      27.381 -14.251  -4.229  0.00  0.00     0.063 A 
ATOM      9  C   UNL d   1      26.317 -14.969  -3.445  0.00  0.00     0.281 A 
ATOM     10  O   UNL d   1      25.134 -14.717  -3.691  0.00  0.00    -0.265 OA
ATOM     11  N   UNL d   1      26.734 -15.905  -2.444  0.00  0.00    -0.192 N 
ENDROOT
BRANCH  11  12
ATOM     12  N   UNL d   1      25.535 -16.675  -1.723  0.00  0.00    -0.258 N 
ATOM     13  C   UNL d   1      25.564 -17.322  -0.464  0.00  0.00     0.236 C 
ATOM     14  O   UNL d   1      26.537 -17.188   0.309  0.00  0.00    -0.272 OA
ATOM     15  H   UNL d   1      24.655 -16.349  -2.143  0.00  0.00     0.190 HD
BRANCH  13  16
ATOM     16  C   UNL d   1      24.359 -18.245   0.146  0.00  0.00     0.105 C 
BRANCH  16  17
ATOM     17  C   UNL d   1      23.094 -18.654  -1.028  0.00  0.00     0.023 C 
BRANCH  17  18
ATOM     18  C   UNL d   1      21.543 -19.658  -0.934  0.00  0.00     0.006 C 
ATOM     19  C   UNL d   1      21.016 -18.575  -0.255  0.00  0.00     0.089 C 
ATOM     20  N   UNL d   1      19.826 -18.661  -0.895  0.00  0.00    -0.288 NA
ATOM     21  C   UNL d   1      19.367 -19.453   0.091  0.00  0.00     0.001 C 
ATOM     22  H   UNL d   1      19.760 -19.008  -1.849  0.00  0.00     0.128 HD
ATOM     23  C   UNL d   1      18.859 -19.015   1.380  0.00  0.00     0.020 C 
ATOM     24  C   UNL d   1      20.145 -20.660  -0.271  0.00  0.00     0.042 C 
ATOM     25  C   UNL d   1      18.393 -19.873   2.331  0.00  0.00     0.001 C 
ATOM     26  C   UNL d   1      18.300 -21.131   1.854  0.00  0.00    -0.003 C 
ATOM     27  C   UNL d   1      19.107 -21.442   0.643  0.00  0.00    -0.009 C 
ENDBRANCH  17  18
ENDBRANCH  16  17
ENDBRANCH  13  16
ENDBRANCH  11  12
BRANCH   1  28
ATOM     28  S   UNL d   1      28.891 -17.256  -1.229  0.00  0.00    -0.081 SA
BRANCH  28  29
ATOM     29  C   UNL d   1      29.359 -16.201   0.157  0.00  0.00     0.185 C 
BRANCH  29  30
ATOM     30  C   UNL d   1      29.487 -14.732  -0.285  0.00  0.00     0.227 C 
ATOM     31  O   UNL d   1      30.444 -14.240  -0.883  0.00  0.00    -0.273 OA
ATOM     32  N   UNL d   1      28.437 -13.893  -0.010  0.00  0.00    -0.360 N 
ATOM     33  H   UNL d   1      28.597 -12.940  -0.325  0.00  0.00     0.162 HD
BRANCH  32  34
ATOM     34  C   UNL d   1      27.193 -14.247   0.637  0.00  0.00     0.127 C 
BRANCH  34  35
ATOM     35  C   UNL d   1      26.671 -13.162   1.583  0.00  0.00     0.058 C 
BRANCH  35  36
ATOM     36  C   UNL d   1      27.307 -13.313   2.943  0.00  0.00    -0.057 A 
ATOM     37  C   UNL d   1      27.404 -12.212   3.805  0.00  0.00     0.007 A 
ATOM     38  C   UNL d   1      28.192 -12.288   4.955  0.00  0.00     0.001 A 
ATOM     39  C   UNL d   1      28.773 -13.499   5.321  0.00  0.00     0.000 A 
ATOM     40  C   UNL d   1      28.559 -14.634   4.543  0.00  0.00     0.001 A 
ATOM     41  C   UNL d   1      27.882 -14.530   3.328  0.00  0.00     0.007 A 
ENDBRANCH  35  36
ENDBRANCH  34  35
ENDBRANCH  32  34
ENDBRANCH  29  30
ENDBRANCH  28  29
ENDBRANCH   1  28
TORSDOF 10
ENDMDL
MODEL 3
REMARK VINA RESULT:   -31.517      1.884      4.206
REMARK INTER + INTRA:         -37.359
REMARK INTER:                 -34.500
REMARK INTRA:                  -2.858
REMARK CONF_INDEPENDENT:        2.983
REMARK UNBOUND:                -2.858
REMARK  10 active torsions:
REMARK  status: ('A' for Active; 'I' for Inactive)
REMARK    1  A    between atoms: C_2  and  C_3 
REMARK       I    between atoms: C_2  and  N_30 
REMARK    2  A    between atoms: C_3  and  S_4 
REMARK    3  A    between atoms: S_4  and  C_5 
REMARK    4  A    between atoms: N_15  and  N_16 
REMARK       I    between atoms: N_16  and  C_17 
REMARK    5  A    between atoms: C_17  and  C_19 
REMARK    6  A    between atoms: C_19  and  C_20 
REMARK    7  A    between atoms: C_20  and  C_21 
REMARK    8  A    between atoms: N_30  and  C_31 
REMARK    9  A    between atoms: C_31  and  C_32 
REMARK   10  A    between atoms: C_32  and  C_33 
ROOT
ATOM      1  C   UNL d   1      27.935 -15.912  -2.253  0.00  0.00     0.192 A 
ATOM      2  N   UNL d   1      29.042 -15.638  -2.870  0.00  0.00    -0.222 NA
ATOM      3  C   UNL d   1      29.059 -15.214  -4.185  0.00  0.00     0.075 A 
ATOM      4  C   UNL d   1      30.298 -14.864  -4.745  0.00  0.00     0.032 C 
ATOM      5  C   UNL d   1      30.365 -14.270  -6.002  0.00  0.00     0.002 C 
ATOM      6  C   UNL d   1      29.192 -14.102  -6.731  0.00  0.00     0.001 C 
ATOM      7  C   UNL d   1      27.985 -14.643  -6.256  0.00  0.00     0.019 C 
ATOM      8  C   UNL d   1      27.899 -15.119  -4.934  0.00  0.00     0.063 A 
ATOM      9  C   UNL d   1      26.611 -15.476  -4.243  0.00  0.00     0.281 A 
ATOM     10  O   UNL d   1      25.565 -15.448  -4.897  0.00  0.00    -0.265 OA
ATOM     11  N   UNL d   1      26.667 -15.823  -2.854  0.00  0.00    -0.192 N 
ENDROOT
BRANCH  11  12
ATOM     12  N   UNL d   1      25.264 -16.264  -2.230  0.00  0.00    -0.258 N 
ATOM     13  C   UNL d   1      24.909 -16.306  -0.860  0.00  0.00     0.236 C 
ATOM     14  O   UNL d   1      25.650 -15.808   0.015  0.00  0.00    -0.272 OA
ATOM     15  H   UNL d   1      24.555 -16.192  -2.970  0.00  0.00     0.190 HD
BRANCH  13  16
ATOM     16  C   UNL d   1      23.519 -16.934  -0.268  0.00  0.00     0.105 C 
BRANCH  16  17
ATOM     17  C   UNL d   1      23.166 -18.577  -0.836  0.00  0.00     0.023 C 
BRANCH  17  18
ATOM     18  C   UNL d   1      21.641 -19.624  -0.843  0.00  0.00     0.006 C 
ATOM     19  C   UNL d   1      21.046 -18.563  -0.185  0.00  0.00     0.089 C 
ATOM     20  N   UNL d   1      19.898 -18.675  -0.895  0.00  0.00    -0.288 NA
ATOM     21  C   UNL d   1      19.404 -19.491   0.055  0.00  0.00     0.001 C 
ATOM     22  H   UNL d   1      19.897 -19.013  -1.854  0.00  0.00     0.128 HD
ATOM     23  C   UNL d   1      18.810 -19.081   1.316  0.00  0.00     0.020 C 
ATOM     24  C   UNL d   1      20.237 -20.671  -0.271  0.00  0.00     0.042 C 
ATOM     25  C   UNL d   1      18.314 -19.962   2.230  0.00  0.00     0.001 C 
ATOM     26  C   UNL d   1      18.285 -21.216   1.737  0.00  0.00    -0.003 C 
ATOM     27  C   UNL d   1      19.169 -21.491   0.572  0.00  0.00    -0.009 C 
ENDBRANCH  17  18
ENDBRANCH  16  17
ENDBRANCH  13  16
ENDBRANCH  11  12
BRANCH   1  28
ATOM     28  S   UNL d   1      28.299 -16.316  -0.608  0.00  0.00    -0.081 SA
BRANCH  28  29
ATOM     29  C   UNL d   1      28.867 -14.761   0.106  0.00  0.00     0.185 C 
BRANCH  29  30
ATOM     30  C   UNL d   1      27.685 -13.941   0.654  0.00  0.00     0.227 C 
ATOM     31  O   UNL d   1      27.141 -14.102   1.747  0.00  0.00    -0.273 OA
ATOM     32  N   UNL d   1      27.200 -12.923  -0.129  0.00  0.00    -0.360 N 
ATOM     33  H   UNL d   1      26.417 -12.434   0.295  0.00  0.00     0.162 HD
BRANCH  32  34
ATOM     34  C   UNL d   1      27.700 -12.514  -1.422  0.00  0.00     0.127 C 
BRANCH  34  35
ATOM     35  C   UNL d   1      26.756 -12.863  -2.577  0.00  0.00     0.058 C 
BRANCH  35  36
ATOM     36  C   UNL d   1      26.694 -11.717  -3.557  0.00  0.00    -0.057 A 
ATOM     37  C   UNL d   1      26.573 -10.399  -3.098  0.00  0.00     0.007 A 
ATOM     38  C   UNL d   1      26.282  -9.367  -3.993  0.00  0.00     0.001 A 
ATOM     39  C   UNL d   1      26.246  -9.623  -5.361  0.00  0.00     0.000 A 
ATOM     40  C   UNL d   1      26.509 -10.907  -5.833  0.00  0.00     0.001 A 
ATOM     41  C   UNL d   1      26.671 -11.962  -4.935  0.00  0.00     0.007 A 
ENDBRANCH  35  36
ENDBRANCH  34  35
ENDBRANCH  32  34
ENDBRANCH  29  30
ENDBRANCH  28  29
ENDBRANCH   1  28
TORSDOF 10
ENDMDL
MODEL 4
REMARK VINA RESULT:   -31.460      3.204      6.049
REMARK INTER + INTRA:         -36.819
REMARK INTER:                 -34.443
REMARK INTRA:                  -2.377
REMARK CONF_INDEPENDENT:        2.983
REMARK UNBOUND:                -2.377
REMARK  10 active torsions:
REMARK  status: ('A' for Active; 'I' for Inactive)
REMARK    1  A    between atoms: C_2  and  C_3 
REMARK       I    between atoms: C_2  and  N_30 
REMARK    2  A    between atoms: C_3  and  S_4 
REMARK    3  A    between atoms: S_4  and  C_5 
REMARK    4  A    between atoms: N_15  and  N_16 
REMARK       I    between atoms: N_16  and  C_17 
REMARK    5  A    between atoms: C_17  and  C_19 
REMARK    6  A    between atoms: C_19  and  C_20 
REMARK    7  A    between atoms: C_20  and  C_21 
REMARK    8  A    between atoms: N_30  and  C_31 
REMARK    9  A    between atoms: C_31  and  C_32 
REMARK   10  A    between atoms: C_32  and  C_33 
ROOT
ATOM      1  C   UNL d   1      28.065 -15.874  -2.554  0.00  0.00     0.192 A 
ATOM      2  N   UNL d   1      29.118 -15.523  -3.227  0.00  0.00    -0.222 NA
ATOM      3  C   UNL d   1      29.024 -14.889  -4.451  0.00  0.00     0.075 A 
ATOM      4  C   UNL d   1      30.215 -14.476  -5.067  0.00  0.00     0.032 C 
ATOM      5  C   UNL d   1      30.182 -13.684  -6.211  0.00  0.00     0.002 C 
ATOM      6  C   UNL d   1      28.951 -13.376  -6.783  0.00  0.00     0.001 C 
ATOM      7  C   UNL d   1      27.776 -13.964  -6.283  0.00  0.00     0.019 C 
ATOM      8  C   UNL d   1      27.801 -14.650  -5.054  0.00  0.00     0.063 A 
ATOM      9  C   UNL d   1      26.573 -15.091  -4.304  0.00  0.00     0.281 A 
ATOM     10  O   UNL d   1      25.471 -14.936  -4.837  0.00  0.00    -0.265 OA
ATOM     11  N   UNL d   1      26.749 -15.663  -3.002  0.00  0.00    -0.192 N 
ENDROOT
BRANCH  11  12
ATOM     12  N   UNL d   1      25.398 -16.174  -2.321  0.00  0.00    -0.258 N 
ATOM     13  C   UNL d   1      25.135 -16.315  -0.937  0.00  0.00     0.236 C 
ATOM     14  O   UNL d   1      25.923 -15.860  -0.080  0.00  0.00    -0.272 OA
ATOM     15  H   UNL d   1      24.641 -16.068  -3.007  0.00  0.00     0.190 HD
BRANCH  13  16
ATOM     16  C   UNL d   1      23.797 -17.009  -0.301  0.00  0.00     0.105 C 
BRANCH  16  17
ATOM     17  C   UNL d   1      22.961 -18.118  -1.404  0.00  0.00     0.023 C 
BRANCH  17  18
ATOM     18  C   UNL d   1      21.575 -19.325  -1.193  0.00  0.00     0.006 C 
ATOM     19  C   UNL d   1      20.936 -18.300  -0.520  0.00  0.00     0.089 C 
ATOM     20  N   UNL d   1      19.739 -18.577  -1.090  0.00  0.00    -0.288 NA
ATOM     21  C   UNL d   1      19.447 -19.386  -0.055  0.00  0.00     0.001 C 
ATOM     22  H   UNL d   1      19.674 -18.966  -2.027  0.00  0.00     0.128 HD
ATOM     23  C   UNL d   1      18.948 -18.974   1.245  0.00  0.00     0.020 C 
ATOM     24  C   UNL d   1      20.369 -20.485  -0.421  0.00  0.00     0.042 C 
ATOM     25  C   UNL d   1      18.657 -19.850   2.247  0.00  0.00     0.001 C 
ATOM     26  C   UNL d   1      18.720 -21.126   1.817  0.00  0.00    -0.003 C 
ATOM     27  C   UNL d   1      19.500 -21.368   0.573  0.00  0.00    -0.009 C 
ENDBRANCH  17  18
ENDBRANCH  16  17
ENDBRANCH  13  16
ENDBRANCH  11  12
BRANCH   1  28
ATOM     28  S   UNL d   1      28.571 -16.550  -1.041  0.00  0.00    -0.081 SA
BRANCH  28  29
ATOM     29  C   UNL d   1      30.358 -16.717  -1.215  0.00  0.00     0.185 C 
BRANCH  29  30
ATOM     30  C   UNL d   1      30.754 -18.185  -1.456  0.00  0.00     0.227 C 
ATOM     31  O   UNL d   1      30.727 -19.086  -0.617  0.00  0.00    -0.273 OA
ATOM     32  N   UNL d   1      31.158 -18.535  -2.720  0.00  0.00    -0.360 N 
ATOM     33  H   UNL d   1      31.410 -19.516  -2.799  0.00  0.00     0.162 HD
BRANCH  32  34
ATOM     34  C   UNL d   1      31.229 -17.669  -3.876  0.00  0.00     0.127 C 
BRANCH  34  35
ATOM     35  C   UNL d   1      30.072 -17.874  -4.859  0.00  0.00     0.058 C 
BRANCH  35  36
ATOM     36  C   UNL d   1      30.476 -18.853  -5.934  0.00  0.00    -0.057 A 
ATOM     37  C   UNL d   1      30.618 -20.214  -5.635  0.00  0.00     0.007 A 
ATOM     38  C   UNL d   1      31.211 -21.078  -6.556  0.00  0.00     0.001 A 
ATOM     39  C   UNL d   1      31.541 -20.618  -7.829  0.00  0.00     0.000 A 
ATOM     40  C   UNL d   1      31.269 -19.299  -8.180  0.00  0.00     0.001 A 
ATOM     41  C   UNL d   1      30.797 -18.403  -7.221  0.00  0.00     0.007 A 
ENDBRANCH  35  36
ENDBRANCH  34  35
ENDBRANCH  32  34
ENDBRANCH  29  30
ENDBRANCH  28  29
ENDBRANCH   1  28
TORSDOF 10
ENDMDL
MODEL 5
REMARK VINA RESULT:   -31.292      2.453      4.875
REMARK INTER + INTRA:         -37.427
REMARK INTER:                 -34.275
REMARK INTRA:                  -3.151
REMARK CONF_INDEPENDENT:        2.983
REMARK UNBOUND:                -3.151
REMARK  10 active torsions:
REMARK  status: ('A' for Active; 'I' for Inactive)
REMARK    1  A    between atoms: C_2  and  C_3 
REMARK       I    between atoms: C_2  and  N_30 
REMARK    2  A    between atoms: C_3  and  S_4 
REMARK    3  A    between atoms: S_4  and  C_5 
REMARK    4  A    between atoms: N_15  and  N_16 
REMARK       I    between atoms: N_16  and  C_17 
REMARK    5  A    between atoms: C_17  and  C_19 
REMARK    6  A    between atoms: C_19  and  C_20 
REMARK    7  A    between atoms: C_20  and  C_21 
REMARK    8  A    between atoms: N_30  and  C_31 
REMARK    9  A    between atoms: C_31  and  C_32 
REMARK   10  A    between atoms: C_32  and  C_33 
ROOT
ATOM      1  C   UNL d   1      27.546 -13.906  -2.369  0.00  0.00     0.192 A 
ATOM      2  N   UNL d   1      28.634 -13.670  -3.035  0.00  0.00    -0.222 NA
ATOM      3  C   UNL d   1      28.733 -13.933  -4.388  0.00  0.00     0.075 A 
ATOM      4  C   UNL d   1      29.921 -13.571  -5.040  0.00  0.00     0.032 C 
ATOM      5  C   UNL d   1      30.021 -13.649  -6.426  0.00  0.00     0.002 C 
ATOM      6  C   UNL d   1      28.952 -14.171  -7.150  0.00  0.00     0.001 C 
ATOM      7  C   UNL d   1      27.850 -14.725  -6.476  0.00  0.00     0.019 C 
ATOM      8  C   UNL d   1      27.696 -14.521  -5.092  0.00  0.00     0.063 A 
ATOM      9  C   UNL d   1      26.444 -14.839  -4.321  0.00  0.00     0.281 A 
ATOM     10  O   UNL d   1      25.520 -15.408  -4.910  0.00  0.00    -0.265 OA
ATOM     11  N   UNL d   1      26.387 -14.457  -2.942  0.00  0.00    -0.192 N 
ENDROOT
BRANCH  11  12
ATOM     12  N   UNL d   1      25.052 -14.910  -2.189  0.00  0.00    -0.258 N 
ATOM     13  C   UNL d   1      24.777 -16.175  -1.617  0.00  0.00     0.236 C 
ATOM     14  O   UNL d   1      25.674 -17.037  -1.494  0.00  0.00    -0.272 OA
ATOM     15  H   UNL d   1      24.559 -14.061  -1.887  0.00  0.00     0.190 HD
BRANCH  13  16
ATOM     16  C   UNL d   1      23.328 -16.639  -1.015  0.00  0.00     0.105 C 
BRANCH  16  17
ATOM     17  C   UNL d   1      23.117 -18.397  -0.908  0.00  0.00     0.023 C 
BRANCH  17  18
ATOM     18  C   UNL d   1      21.635 -19.505  -0.893  0.00  0.00     0.006 C 
ATOM     19  C   UNL d   1      21.013 -18.477  -0.210  0.00  0.00     0.089 C 
ATOM     20  N   UNL d   1      19.854 -18.627  -0.895  0.00  0.00    -0.288 NA
ATOM     21  C   UNL d   1      19.416 -19.472   0.056  0.00  0.00     0.001 C 
ATOM     22  H   UNL d   1      19.845 -18.954  -1.858  0.00  0.00     0.128 HD
ATOM     23  C   UNL d   1      18.835 -19.101   1.335  0.00  0.00     0.020 C 
ATOM     24  C   UNL d   1      20.287 -20.614  -0.303  0.00  0.00     0.042 C 
ATOM     25  C   UNL d   1      18.396 -20.011   2.249  0.00  0.00     0.001 C 
ATOM     26  C   UNL d   1      18.406 -21.260   1.743  0.00  0.00    -0.003 C 
ATOM     27  C   UNL d   1      19.274 -21.486   0.555  0.00  0.00    -0.009 C 
ENDBRANCH  17  18
ENDBRANCH  16  17
ENDBRANCH  13  16
ENDBRANCH  11  12
BRANCH   1  28
ATOM     28  S   UNL d   1      27.764 -13.367  -0.737  0.00  0.00    -0.081 SA
BRANCH  28  29
ATOM     29  C   UNL d   1      28.772 -14.658   0.017  0.00  0.00     0.185 C 
BRANCH  29  30
ATOM     30  C   UNL d   1      27.983 -15.974   0.141  0.00  0.00     0.227 C 
ATOM     31  O   UNL d   1      27.250 -16.289   1.078  0.00  0.00    -0.273 OA
ATOM     32  N   UNL d   1      28.083 -16.874  -0.891  0.00  0.00    -0.360 N 
ATOM     33  H   UNL d   1      27.541 -17.719  -0.734  0.00  0.00     0.162 HD
BRANCH  32  34
ATOM     34  C   UNL d   1      28.840 -16.710  -2.111  0.00  0.00     0.127 C 
BRANCH  34  35
ATOM     35  C   UNL d   1      30.087 -17.597  -2.176  0.00  0.00     0.058 C 
BRANCH  35  36
ATOM     36  C   UNL d   1      30.473 -17.841  -3.615  0.00  0.00    -0.057 A 
ATOM     37  C   UNL d   1      30.367 -16.813  -4.560  0.00  0.00     0.007 A 
ATOM     38  C   UNL d   1      30.497 -17.093  -5.921  0.00  0.00     0.001 A 
ATOM     39  C   UNL d   1      30.868 -18.370  -6.336  0.00  0.00     0.000 A 
ATOM     40  C   UNL d   1      31.116 -19.361  -5.389  0.00  0.00     0.001 A 
ATOM     41  C   UNL d   1      30.861 -19.117  -4.039  0.00  0.00     0.007 A 
ENDBRANCH  35  36
ENDBRANCH  34  35
ENDBRANCH  32  34
ENDBRANCH  29  30
ENDBRANCH  28  29
ENDBRANCH   1  28
TORSDOF 10
ENDMDL
MODEL 6
REMARK VINA RESULT:   -31.261      3.084      5.844
REMARK INTER + INTRA:         -37.261
REMARK INTER:                 -34.244
REMARK INTRA:                  -3.017
REMARK CONF_INDEPENDENT:        2.983
REMARK UNBOUND:                -3.017
REMARK  10 active torsions:
REMARK  status: ('A' for Active; 'I' for Inactive)
REMARK    1  A    between atoms: C_2  and  C_3 
REMARK       I    between atoms: C_2  and  N_30 
REMARK    2  A    between atoms: C_3  and  S_4 
REMARK    3  A    between atoms: S_4  and  C_5 
REMARK    4  A    between atoms: N_15  and  N_16 
REMARK       I    between atoms: N_16  and  C_17 
REMARK    5  A    between atoms: C_17  and  C_19 
REMARK    6  A    between atoms: C_19  and  C_20 
REMARK    7  A    between atoms: C_20  and  C_21 
REMARK    8  A    between atoms: N_30  and  C_31 
REMARK    9  A    between atoms: C_31  and  C_32 
REMARK   10  A    between atoms: C_32  and  C_33 
ROOT
ATOM      1  C   UNL d   1      27.919 -14.751  -1.827  0.00  0.00     0.192 A 
ATOM      2  N   UNL d   1      29.130 -14.353  -2.069  0.00  0.00    -0.222 NA
ATOM      3  C   UNL d   1      30.228 -15.143  -1.787  0.00  0.00     0.075 A 
ATOM      4  C   UNL d   1      31.494 -14.662  -2.157  0.00  0.00     0.032 C 
ATOM      5  C   UNL d   1      32.618 -15.477  -2.060  0.00  0.00     0.002 C 
ATOM      6  C   UNL d   1      32.482 -16.749  -1.512  0.00  0.00     0.001 C 
ATOM      7  C   UNL d   1      31.255 -17.147  -0.952  0.00  0.00     0.019 C 
ATOM      8  C   UNL d   1      30.098 -16.378  -1.174  0.00  0.00     0.063 A 
ATOM      9  C   UNL d   1      28.701 -16.832  -0.848  0.00  0.00     0.281 A 
ATOM     10  O   UNL d   1      28.555 -17.905  -0.257  0.00  0.00    -0.265 OA
ATOM     11  N   UNL d   1      27.610 -15.995  -1.250  0.00  0.00    -0.192 N 
ENDROOT
BRANCH  11  12
ATOM     12  N   UNL d   1      26.174 -16.522  -0.789  0.00  0.00    -0.258 N 
ATOM     13  C   UNL d   1      24.965 -16.472  -1.524  0.00  0.00     0.236 C 
ATOM     14  O   UNL d   1      24.957 -16.151  -2.732  0.00  0.00    -0.272 OA
ATOM     15  H   UNL d   1      26.317 -17.197  -0.028  0.00  0.00     0.190 HD
BRANCH  13  16
ATOM     16  C   UNL d   1      23.490 -16.864  -0.935  0.00  0.00     0.105 C 
BRANCH  16  17
ATOM     17  C   UNL d   1      23.175 -18.608  -0.871  0.00  0.00     0.023 C 
BRANCH  17  18
ATOM     18  C   UNL d   1      21.631 -19.627  -0.879  0.00  0.00     0.006 C 
ATOM     19  C   UNL d   1      21.063 -18.567  -0.197  0.00  0.00     0.089 C 
ATOM     20  N   UNL d   1      19.905 -18.645  -0.895  0.00  0.00    -0.288 NA
ATOM     21  C   UNL d   1      19.407 -19.469   0.046  0.00  0.00     0.001 C 
ATOM     22  H   UNL d   1      19.888 -18.965  -1.860  0.00  0.00     0.128 HD
ATOM     23  C   UNL d   1      18.834 -19.071   1.320  0.00  0.00     0.020 C 
ATOM     24  C   UNL d   1      20.213 -20.658  -0.311  0.00  0.00     0.042 C 
ATOM     25  C   UNL d   1      18.331 -19.959   2.224  0.00  0.00     0.001 C 
ATOM     26  C   UNL d   1      18.274 -21.204   1.709  0.00  0.00    -0.003 C 
ATOM     27  C   UNL d   1      19.140 -21.474   0.529  0.00  0.00    -0.009 C 
ENDBRANCH  17  18
ENDBRANCH  16  17
ENDBRANCH  13  16
ENDBRANCH  11  12
BRANCH   1  28
ATOM     28  S   UNL d   1      26.813 -13.544  -2.393  0.00  0.00    -0.081 SA
BRANCH  28  29
ATOM     29  C   UNL d   1      27.278 -13.302  -4.118  0.00  0.00     0.185 C 
BRANCH  29  30
ATOM     30  C   UNL d   1      26.650 -14.382  -5.017  0.00  0.00     0.227 C 
ATOM     31  O   UNL d   1      25.514 -14.842  -4.904  0.00  0.00    -0.273 OA
ATOM     32  N   UNL d   1      27.410 -14.867  -6.052  0.00  0.00    -0.360 N 
ATOM     33  H   UNL d   1      26.932 -15.581  -6.595  0.00  0.00     0.162 HD
BRANCH  32  34
ATOM     34  C   UNL d   1      28.747 -14.452  -6.412  0.00  0.00     0.127 C 
BRANCH  34  35
ATOM     35  C   UNL d   1      29.816 -14.921  -5.421  0.00  0.00     0.058 C 
BRANCH  35  36
ATOM     36  C   UNL d   1      30.149 -16.372  -5.667  0.00  0.00    -0.057 A 
ATOM     37  C   UNL d   1      29.893 -17.334  -4.682  0.00  0.00     0.007 A 
ATOM     38  C   UNL d   1      30.407 -18.625  -4.810  0.00  0.00     0.001 A 
ATOM     39  C   UNL d   1      31.061 -19.000  -5.981  0.00  0.00     0.000 A 
ATOM     40  C   UNL d   1      31.192 -18.087  -7.024  0.00  0.00     0.001 A 
ATOM     41  C   UNL d   1      30.794 -16.762  -6.847  0.00  0.00     0.007 A 
ENDBRANCH  35  36
ENDBRANCH  34  35
ENDBRANCH  32  34
ENDBRANCH  29  30
ENDBRANCH  28  29
ENDBRANCH   1  28
TORSDOF 10
ENDMDL
MODEL 7
REMARK VINA RESULT:   -30.790      2.082      3.457
REMARK INTER + INTRA:         -37.511
REMARK INTER:                 -33.773
REMARK INTRA:                  -3.739
REMARK CONF_INDEPENDENT:        2.983
REMARK UNBOUND:                -3.739
REMARK  10 active torsions:
REMARK  status: ('A' for Active; 'I' for Inactive)
REMARK    1  A    between atoms: C_2  and  C_3 
REMARK       I    between atoms: C_2  and  N_30 
REMARK    2  A    between atoms: C_3  and  S_4 
REMARK    3  A    between atoms: S_4  and  C_5 
REMARK    4  A    between atoms: N_15  and  N_16 
REMARK       I    between atoms: N_16  and  C_17 
REMARK    5  A    between atoms: C_17  and  C_19 
REMARK    6  A    between atoms: C_19  and  C_20 
REMARK    7  A    between atoms: C_20  and  C_21 
REMARK    8  A    between atoms: N_30  and  C_31 
REMARK    9  A    between atoms: C_31  and  C_32 
REMARK   10  A    between atoms: C_32  and  C_33 
ROOT
ATOM      1  C   UNL d   1      28.040 -15.735  -3.451  0.00  0.00     0.192 A 
ATOM      2  N   UNL d   1      29.309 -15.467  -3.436  0.00  0.00    -0.222 NA
ATOM      3  C   UNL d   1      30.109 -15.784  -2.355  0.00  0.00     0.075 A 
ATOM      4  C   UNL d   1      31.485 -15.528  -2.460  0.00  0.00     0.032 C 
ATOM      5  C   UNL d   1      32.366 -15.978  -1.482  0.00  0.00     0.002 C 
ATOM      6  C   UNL d   1      31.854 -16.614  -0.354  0.00  0.00     0.001 C 
ATOM      7  C   UNL d   1      30.464 -16.681  -0.155  0.00  0.00     0.019 C 
ATOM      8  C   UNL d   1      29.586 -16.348  -1.203  0.00  0.00     0.063 A 
ATOM      9  C   UNL d   1      28.107 -16.624  -1.192  0.00  0.00     0.281 A 
ATOM     10  O   UNL d   1      27.603 -17.081  -0.163  0.00  0.00    -0.265 OA
ATOM     11  N   UNL d   1      27.361 -16.348  -2.384  0.00  0.00    -0.192 N 
ENDROOT
BRANCH  11  12
ATOM     12  N   UNL d   1      25.789 -16.597  -2.247  0.00  0.00    -0.258 N 
ATOM     13  C   UNL d   1      24.982 -16.377  -1.106  0.00  0.00     0.236 C 
ATOM     14  O   UNL d   1      25.427 -15.772  -0.107  0.00  0.00    -0.272 OA
ATOM     15  H   UNL d   1      25.392 -16.620  -3.194  0.00  0.00     0.190 HD
BRANCH  13  16
ATOM     16  C   UNL d   1      23.412 -16.816  -0.967  0.00  0.00     0.105 C 
BRANCH  16  17
ATOM     17  C   UNL d   1      23.149 -18.570  -0.939  0.00  0.00     0.023 C 
BRANCH  17  18
ATOM     18  C   UNL d   1      21.635 -19.632  -0.894  0.00  0.00     0.006 C 
ATOM     19  C   UNL d   1      21.050 -18.575  -0.222  0.00  0.00     0.089 C 
ATOM     20  N   UNL d   1      19.881 -18.701  -0.895  0.00  0.00    -0.288 NA
ATOM     21  C   UNL d   1      19.426 -19.518   0.073  0.00  0.00     0.001 C 
ATOM     22  H   UNL d   1      19.854 -19.043  -1.852  0.00  0.00     0.128 HD
ATOM     23  C   UNL d   1      18.867 -19.109   1.350  0.00  0.00     0.020 C 
ATOM     24  C   UNL d   1      20.259 -20.691  -0.275  0.00  0.00     0.042 C 
ATOM     25  C   UNL d   1      18.408 -19.990   2.282  0.00  0.00     0.001 C 
ATOM     26  C   UNL d   1      18.377 -21.247   1.796  0.00  0.00    -0.003 C 
ATOM     27  C   UNL d   1      19.227 -21.518   0.605  0.00  0.00    -0.009 C 
ENDBRANCH  17  18
ENDBRANCH  16  17
ENDBRANCH  13  16
ENDBRANCH  11  12
BRANCH   1  28
ATOM     28  S   UNL d   1      27.394 -15.283  -4.994  0.00  0.00    -0.081 SA
BRANCH  28  29
ATOM     29  C   UNL d   1      26.709 -13.639  -4.714  0.00  0.00     0.185 C 
BRANCH  29  30
ATOM     30  C   UNL d   1      25.547 -13.689  -3.705  0.00  0.00     0.227 C 
ATOM     31  O   UNL d   1      24.583 -14.454  -3.753  0.00  0.00    -0.273 OA
ATOM     32  N   UNL d   1      25.590 -12.821  -2.643  0.00  0.00    -0.360 N 
ATOM     33  H   UNL d   1      24.787 -12.908  -2.026  0.00  0.00     0.162 HD
BRANCH  32  34
ATOM     34  C   UNL d   1      26.635 -11.866  -2.348  0.00  0.00     0.127 C 
BRANCH  34  35
ATOM     35  C   UNL d   1      28.019 -12.507  -2.204  0.00  0.00     0.058 C 
BRANCH  35  36
ATOM     36  C   UNL d   1      28.208 -13.015  -0.796  0.00  0.00    -0.057 A 
ATOM     37  C   UNL d   1      27.133 -13.580  -0.097  0.00  0.00     0.007 A 
ATOM     38  C   UNL d   1      27.241 -13.835   1.271  0.00  0.00     0.001 A 
ATOM     39  C   UNL d   1      28.461 -13.655   1.918  0.00  0.00     0.000 A 
ATOM     40  C   UNL d   1      29.573 -13.230   1.195  0.00  0.00     0.001 A 
ATOM     41  C   UNL d   1      29.434 -12.852  -0.140  0.00  0.00     0.007 A 
ENDBRANCH  35  36
ENDBRANCH  34  35
ENDBRANCH  32  34
ENDBRANCH  29  30
ENDBRANCH  28  29
ENDBRANCH   1  28
TORSDOF 10
ENDMDL
MODEL 8
REMARK VINA RESULT:   -30.538      2.420      5.075
REMARK INTER + INTRA:         -37.074
REMARK INTER:                 -33.521
REMARK INTRA:                  -3.554
REMARK CONF_INDEPENDENT:        2.983
REMARK UNBOUND:                -3.554
REMARK  10 active torsions:
REMARK  status: ('A' for Active; 'I' for Inactive)
REMARK    1  A    between atoms: C_2  and  C_3 
REMARK       I    between atoms: C_2  and  N_30 
REMARK    2  A    between atoms: C_3  and  S_4 
REMARK    3  A    between atoms: S_4  and  C_5 
REMARK    4  A    between atoms: N_15  and  N_16 
REMARK       I    between atoms: N_16  and  C_17 
REMARK    5  A    between atoms: C_17  and  C_19 
REMARK    6  A    between atoms: C_19  and  C_20 
REMARK    7  A    between atoms: C_20  and  C_21 
REMARK    8  A    between atoms: N_30  and  C_31 
REMARK    9  A    between atoms: C_31  and  C_32 
REMARK   10  A    between atoms: C_32  and  C_33 
ROOT
ATOM      1  C   UNL d   1      27.242 -13.659  -0.746  0.00  0.00     0.192 A 
ATOM      2  N   UNL d   1      27.696 -12.540  -1.223  0.00  0.00    -0.222 NA
ATOM      3  C   UNL d   1      27.187 -11.980  -2.379  0.00  0.00     0.075 A 
ATOM      4  C   UNL d   1      27.685 -10.729  -2.774  0.00  0.00     0.032 C 
ATOM      5  C   UNL d   1      27.098 -10.034  -3.827  0.00  0.00     0.002 C 
ATOM      6  C   UNL d   1      26.062 -10.634  -4.536  0.00  0.00     0.001 C 
ATOM      7  C   UNL d   1      25.708 -11.968  -4.271  0.00  0.00     0.019 C 
ATOM      8  C   UNL d   1      26.208 -12.614  -3.125  0.00  0.00     0.063 A 
ATOM      9  C   UNL d   1      25.704 -13.933  -2.606  0.00  0.00     0.281 A 
ATOM     10  O   UNL d   1      24.867 -14.546  -3.273  0.00  0.00    -0.265 OA
ATOM     11  N   UNL d   1      26.219 -14.406  -1.355  0.00  0.00    -0.192 N 
ENDROOT
BRANCH  11  12
ATOM     12  N   UNL d   1      25.685 -15.850  -0.928  0.00  0.00    -0.258 N 
ATOM     13  C   UNL d   1      24.341 -16.293  -0.897  0.00  0.00     0.236 C 
ATOM     14  O   UNL d   1      23.423 -15.607  -1.397  0.00  0.00    -0.272 OA
ATOM     15  H   UNL d   1      26.471 -16.508  -1.000  0.00  0.00     0.190 HD
BRANCH  13  16
ATOM     16  C   UNL d   1      23.838 -17.724  -0.284  0.00  0.00     0.105 C 
BRANCH  16  17
ATOM     17  C   UNL d   1      22.768 -18.639  -1.362  0.00  0.00     0.023 C 
BRANCH  17  18
ATOM     18  C   UNL d   1      21.256 -19.668  -1.087  0.00  0.00     0.006 C 
ATOM     19  C   UNL d   1      20.776 -18.575  -0.389  0.00  0.00     0.089 C 
ATOM     20  N   UNL d   1      19.530 -18.702  -0.905  0.00  0.00    -0.288 NA
ATOM     21  C   UNL d   1      19.188 -19.473   0.144  0.00  0.00     0.001 C 
ATOM     22  H   UNL d   1      19.377 -19.079  -1.837  0.00  0.00     0.128 HD
ATOM     23  C   UNL d   1      18.800 -19.006   1.464  0.00  0.00     0.020 C 
ATOM     24  C   UNL d   1      19.953 -20.675  -0.260  0.00  0.00     0.042 C 
ATOM     25  C   UNL d   1      18.449 -19.843   2.480  0.00  0.00     0.001 C 
ATOM     26  C   UNL d   1      18.337 -21.117   2.051  0.00  0.00    -0.003 C 
ATOM     27  C   UNL d   1      19.027 -21.449   0.774  0.00  0.00    -0.009 C 
ENDBRANCH  17  18
ENDBRANCH  16  17
ENDBRANCH  13  16
ENDBRANCH  11  12
BRANCH   1  28
ATOM     28  S   UNL d   1      28.050 -13.995   0.749  0.00  0.00    -0.081 SA
BRANCH  28  29
ATOM     29  C   UNL d   1      29.302 -15.213   0.304  0.00  0.00     0.185 C 
BRANCH  29  30
ATOM     30  C   UNL d   1      28.654 -16.491  -0.259  0.00  0.00     0.227 C 
ATOM     31  O   UNL d   1      27.785 -17.164   0.298  0.00  0.00    -0.273 OA
ATOM     32  N   UNL d   1      29.059 -16.916  -1.500  0.00  0.00    -0.360 N 
ATOM     33  H   UNL d   1      28.593 -17.768  -1.800  0.00  0.00     0.162 HD
BRANCH  32  34
ATOM     34  C   UNL d   1      30.024 -16.271  -2.361  0.00  0.00     0.127 C 
BRANCH  34  35
ATOM     35  C   UNL d   1      29.853 -16.631  -3.840  0.00  0.00     0.058 C 
BRANCH  35  36
ATOM     36  C   UNL d   1      29.130 -15.520  -4.562  0.00  0.00    -0.057 A 
ATOM     37  C   UNL d   1      27.740 -15.573  -4.729  0.00  0.00     0.007 A 
ATOM     38  C   UNL d   1      27.102 -14.677  -5.589  0.00  0.00     0.001 A 
ATOM     39  C   UNL d   1      27.825 -13.643  -6.178  0.00  0.00     0.000 A 
ATOM     40  C   UNL d   1      29.182 -13.500  -5.899  0.00  0.00     0.001 A 
ATOM     41  C   UNL d   1      29.846 -14.468  -5.146  0.00  0.00     0.007 A 
ENDBRANCH  35  36
ENDBRANCH  34  35
ENDBRANCH  32  34
ENDBRANCH  29  30
ENDBRANCH  28  29
ENDBRANCH   1  28
TORSDOF 10
ENDMDL
MODEL 9
REMARK VINA RESULT:   -30.461      2.121      3.207
REMARK INTER + INTRA:         -36.752
REMARK INTER:                 -33.444
REMARK INTRA:                  -3.308
REMARK CONF_INDEPENDENT:        2.983
REMARK UNBOUND:                -3.308
REMARK  10 active torsions:
REMARK  status: ('A' for Active; 'I' for Inactive)
REMARK    1  A    between atoms: C_2  and  C_3 
REMARK       I    between atoms: C_2  and  N_30 
REMARK    2  A    between atoms: C_3  and  S_4 
REMARK    3  A    between atoms: S_4  and  C_5 
REMARK    4  A    between atoms: N_15  and  N_16 
REMARK       I    between atoms: N_16  and  C_17 
REMARK    5  A    between atoms: C_17  and  C_19 
REMARK    6  A    between atoms: C_19  and  C_20 
REMARK    7  A    between atoms: C_20  and  C_21 
REMARK    8  A    between atoms: N_30  and  C_31 
REMARK    9  A    between atoms: C_31  and  C_32 
REMARK   10  A    between atoms: C_32  and  C_33 
ROOT
ATOM      1  C   UNL d   1      27.688 -15.911  -2.660  0.00  0.00     0.192 A 
ATOM      2  N   UNL d   1      28.659 -15.440  -3.381  0.00  0.00    -0.222 NA
ATOM      3  C   UNL d   1      28.438 -14.523  -4.390  0.00  0.00     0.075 A 
ATOM      4  C   UNL d   1      29.557 -14.010  -5.065  0.00  0.00     0.032 C 
ATOM      5  C   UNL d   1      29.419 -12.961  -5.969  0.00  0.00     0.002 C 
ATOM      6  C   UNL d   1      28.145 -12.482  -6.257  0.00  0.00     0.001 C 
ATOM      7  C   UNL d   1      27.014 -13.137  -5.739  0.00  0.00     0.019 C 
ATOM      8  C   UNL d   1      27.162 -14.104  -4.727  0.00  0.00     0.063 A 
ATOM      9  C   UNL d   1      26.024 -14.675  -3.925  0.00  0.00     0.281 A 
ATOM     10  O   UNL d   1      24.872 -14.359  -4.233  0.00  0.00    -0.265 OA
ATOM     11  N   UNL d   1      26.341 -15.554  -2.839  0.00  0.00    -0.192 N 
ENDROOT
BRANCH  11  12
ATOM     12  N   UNL d   1      25.066 -16.173  -2.102  0.00  0.00    -0.258 N 
ATOM     13  C   UNL d   1      24.888 -16.363  -0.710  0.00  0.00     0.236 C 
ATOM     14  O   UNL d   1      25.689 -15.874   0.116  0.00  0.00    -0.272 OA
ATOM     15  H   UNL d   1      24.267 -16.104  -2.744  0.00  0.00     0.190 HD
BRANCH  13  16
ATOM     16  C   UNL d   1      23.637 -17.163  -0.024  0.00  0.00     0.105 C 
BRANCH  16  17
ATOM     17  C   UNL d   1      23.114 -18.600  -0.922  0.00  0.00     0.023 C 
BRANCH  17  18
ATOM     18  C   UNL d   1      21.586 -19.642  -0.885  0.00  0.00     0.006 C 
ATOM     19  C   UNL d   1      21.012 -18.577  -0.217  0.00  0.00     0.089 C 
ATOM     20  N   UNL d   1      19.845 -18.687  -0.896  0.00  0.00    -0.288 NA
ATOM     21  C   UNL d   1      19.374 -19.497   0.070  0.00  0.00     0.001 C 
ATOM     22  H   UNL d   1      19.819 -19.028  -1.853  0.00  0.00     0.128 HD
ATOM     23  C   UNL d   1      18.813 -19.081   1.344  0.00  0.00     0.020 C 
ATOM     24  C   UNL d   1      20.193 -20.682  -0.274  0.00  0.00     0.042 C 
ATOM     25  C   UNL d   1      18.338 -19.956   2.274  0.00  0.00     0.001 C 
ATOM     26  C   UNL d   1      18.292 -21.212   1.787  0.00  0.00    -0.003 C 
ATOM     27  C   UNL d   1      19.145 -21.495   0.600  0.00  0.00    -0.009 C 
ENDBRANCH  17  18
ENDBRANCH  16  17
ENDBRANCH  13  16
ENDBRANCH  11  12
BRANCH   1  28
ATOM     28  S   UNL d   1      28.353 -16.954  -1.446  0.00  0.00    -0.081 SA
BRANCH  28  29
ATOM     29  C   UNL d   1      30.097 -17.076  -1.884  0.00  0.00     0.185 C 
BRANCH  29  30
ATOM     30  C   UNL d   1      30.907 -17.735  -0.752  0.00  0.00     0.227 C 
ATOM     31  O   UNL d   1      31.190 -18.930  -0.671  0.00  0.00    -0.273 OA
ATOM     32  N   UNL d   1      31.375 -16.922   0.250  0.00  0.00    -0.360 N 
ATOM     33  H   UNL d   1      31.893 -17.428   0.962  0.00  0.00     0.162 HD
BRANCH  32  34
ATOM     34  C   UNL d   1      31.211 -15.489   0.348  0.00  0.00     0.127 C 
BRANCH  34  35
ATOM     35  C   UNL d   1      29.907 -15.073   1.034  0.00  0.00     0.058 C 
BRANCH  35  36
ATOM     36  C   UNL d   1      29.106 -14.176   0.121  0.00  0.00    -0.057 A 
ATOM     37  C   UNL d   1      29.734 -13.499  -0.933  0.00  0.00     0.007 A 
ATOM     38  C   UNL d   1      29.053 -12.498  -1.629  0.00  0.00     0.001 A 
ATOM     39  C   UNL d   1      27.705 -12.263  -1.367  0.00  0.00     0.000 A 
ATOM     40  C   UNL d   1      27.039 -13.034  -0.419  0.00  0.00     0.001 A 
ATOM     41  C   UNL d   1      27.748 -13.944   0.366  0.00  0.00     0.007 A 
ENDBRANCH  35  36
ENDBRANCH  34  35
ENDBRANCH  32  34
ENDBRANCH  29  30
ENDBRANCH  28  29
ENDBRANCH   1  28
TORSDOF 10
ENDMDL
