MODEL 1
REMARK VINA RESULT:    -8.634      0.000      0.000
REMARK INTER + INTRA:         -14.743
REMARK INTER:                 -12.214
REMARK INTRA:                  -2.529
REMARK CONF_INDEPENDENT:        3.580
REMARK UNBOUND:                -2.529
REMARK  12 active torsions:
REMARK  status: ('A' for Active; 'I' for Inactive)
REMARK    1  A    between atoms: C_2  and  C_3 
REMARK    2  A    between atoms: C_3  and  O_4 
REMARK    3  A    between atoms: O_4  and  C_5 
REMARK    4  A    between atoms: C_8  and  C_9 
REMARK    5  A    between atoms: C_9  and  C_11 
REMARK    6  A    between atoms: C_12  and  O_13 
REMARK    7  A    between atoms: N_16  and  C_17 
REMARK    8  A    between atoms: C_17  and  C_18 
REMARK    9  A    between atoms: C_18  and  C_19 
REMARK   10  A    between atoms: C_19  and  O_20 
REMARK   11  A    between atoms: C_21  and  C_22 
REMARK   12  A    between atoms: C_25  and  O_26 
ROOT
ATOM      1  C   UNL d   1      27.991 -16.645  -1.213  0.00  0.00     0.059 A 
ATOM      2  C   UNL d   1      29.296 -16.794  -0.944  0.00  0.00     0.146 A 
ATOM      3  C   UNL d   1      30.025 -16.658  -2.219  0.00  0.00     0.278 A 
ATOM      4  O   UNL d   1      31.223 -16.801  -2.320  0.00  0.00    -0.265 OA
ATOM      5  N   UNL d   1      29.092 -16.363  -3.205  0.00  0.00    -0.333 N 
ATOM      6  C   UNL d   1      27.726 -16.324  -2.670  0.00  0.00     0.161 A 
ENDROOT
BRANCH   1   7
ATOM      7  C   UNL d   1      26.978 -16.630  -0.131  0.00  0.00     0.193 C 
ATOM      8  O   UNL d   1      27.316 -16.294   1.003  0.00  0.00    -0.287 OA
BRANCH   7   9
ATOM      9  C   UNL d   1      25.567 -17.031  -0.391  0.00  0.00     0.015 A 
ATOM     10  C   UNL d   1      24.652 -16.077  -0.863  0.00  0.00     0.018 A 
ATOM     11  C   UNL d   1      23.280 -16.370  -0.896  0.00  0.00     0.038 A 
ATOM     12  C   UNL d   1      22.818 -17.640  -0.545  0.00  0.00     0.069 A 
ATOM     13  C   UNL d   1      23.738 -18.609  -0.156  0.00  0.00     0.038 A 
ATOM     14  C   UNL d   1      25.095 -18.300  -0.061  0.00  0.00     0.018 A 
BRANCH  12  15
ATOM     15  O   UNL d   1      21.476 -17.872  -0.689  0.00  0.00    -0.348 OA
BRANCH  15  16
ATOM     16  C   UNL d   1      21.069 -19.236  -0.527  0.00  0.00     0.202 C 
BRANCH  16  17
ATOM     17  C   UNL d   1      19.582 -19.328  -0.707  0.00  0.00    -0.011 C 
ATOM     18  C   UNL d   1      18.841 -20.290  -0.140  0.00  0.00     0.009 C 
ENDBRANCH  16  17
ENDBRANCH  15  16
ENDBRANCH  12  15
ENDBRANCH   7   9
ENDBRANCH   1   7
BRANCH   2  19
ATOM     19  O   UNL d   1      29.956 -17.032   0.226  0.00  0.00    -0.355 OA
ATOM     20  H   UNL d   1      29.402 -16.762   0.977  0.00  0.00     0.218 HD
ENDBRANCH   2  19
BRANCH   6  21
ATOM     21  C   UNL d   1      26.999 -15.012  -2.942  0.00  0.00    -0.030 C 
ATOM     22  C   UNL d   1      25.773 -14.996  -3.632  0.00  0.00     0.012 C 
ATOM     23  C   UNL d   1      25.186 -13.789  -4.031  0.00  0.00     0.037 C 
ATOM     24  C   UNL d   1      25.727 -12.588  -3.596  0.00  0.00     0.065 C 
ATOM     25  C   UNL d   1      26.878 -12.574  -2.837  0.00  0.00     0.037 C 
ATOM     26  C   UNL d   1      27.514 -13.770  -2.540  0.00  0.00     0.012 C 
BRANCH  24  27
ATOM     27  O   UNL d   1      25.155 -11.388  -3.877  0.00  0.00    -0.361 OA
ATOM     28  H   UNL d   1      24.900 -11.379  -4.813  0.00  0.00     0.217 HD
ENDBRANCH  24  27
ENDBRANCH   6  21
BRANCH   5  29
ATOM     29  C   UNL d   1      29.423 -16.222  -4.626  0.00  0.00     0.129 C 
BRANCH  29  30
ATOM     30  C   UNL d   1      29.466 -14.789  -5.141  0.00  0.00     0.046 C 
BRANCH  30  31
ATOM     31  C   UNL d   1      28.590 -14.575  -6.357  0.00  0.00     0.165 C 
BRANCH  31  32
ATOM     32  O   UNL d   1      27.330 -15.202  -6.155  0.00  0.00    -0.401 OA
ATOM     33  H   UNL d   1      26.746 -14.555  -5.720  0.00  0.00     0.209 HD
ENDBRANCH  31  32
ENDBRANCH  30  31
ENDBRANCH  29  30
ENDBRANCH   5  29
TORSDOF 12
ENDMDL
MODEL 2
REMARK VINA RESULT:    -7.864      1.097      1.405
REMARK INTER + INTRA:         -14.386
REMARK INTER:                 -11.444
REMARK INTRA:                  -2.942
REMARK CONF_INDEPENDENT:        3.580
REMARK UNBOUND:                -2.942
REMARK  12 active torsions:
REMARK  status: ('A' for Active; 'I' for Inactive)
REMARK    1  A    between atoms: C_2  and  C_3 
REMARK    2  A    between atoms: C_3  and  O_4 
REMARK    3  A    between atoms: O_4  and  C_5 
REMARK    4  A    between atoms: C_8  and  C_9 
REMARK    5  A    between atoms: C_9  and  C_11 
REMARK    6  A    between atoms: C_12  and  O_13 
REMARK    7  A    between atoms: N_16  and  C_17 
REMARK    8  A    between atoms: C_17  and  C_18 
REMARK    9  A    between atoms: C_18  and  C_19 
REMARK   10  A    between atoms: C_19  and  O_20 
REMARK   11  A    between atoms: C_21  and  C_22 
REMARK   12  A    between atoms: C_25  and  O_26 
ROOT
ATOM      1  C   UNL d   1      27.997 -16.630  -1.231  0.00  0.00     0.059 A 
ATOM      2  C   UNL d   1      29.300 -16.761  -0.946  0.00  0.00     0.146 A 
ATOM      3  C   UNL d   1      30.043 -16.606  -2.211  0.00  0.00     0.278 A 
ATOM      4  O   UNL d   1      31.244 -16.729  -2.297  0.00  0.00    -0.265 OA
ATOM      5  N   UNL d   1      29.118 -16.318  -3.206  0.00  0.00    -0.333 N 
ATOM      6  C   UNL d   1      27.745 -16.303  -2.689  0.00  0.00     0.161 A 
ENDROOT
BRANCH   1   7
ATOM      7  C   UNL d   1      26.969 -16.638  -0.162  0.00  0.00     0.193 C 
ATOM      8  O   UNL d   1      27.280 -16.277   0.972  0.00  0.00    -0.287 OA
BRANCH   7   9
ATOM      9  C   UNL d   1      25.577 -17.092  -0.435  0.00  0.00     0.015 A 
ATOM     10  C   UNL d   1      24.622 -16.165  -0.880  0.00  0.00     0.018 A 
ATOM     11  C   UNL d   1      23.264 -16.516  -0.923  0.00  0.00     0.038 A 
ATOM     12  C   UNL d   1      22.857 -17.814  -0.608  0.00  0.00     0.069 A 
ATOM     13  C   UNL d   1      23.817 -18.752  -0.246  0.00  0.00     0.038 A 
ATOM     14  C   UNL d   1      25.160 -18.388  -0.141  0.00  0.00     0.018 A 
BRANCH  12  15
ATOM     15  O   UNL d   1      21.526 -18.099  -0.760  0.00  0.00    -0.348 OA
BRANCH  15  16
ATOM     16  C   UNL d   1      21.059 -19.245  -0.039  0.00  0.00     0.202 C 
BRANCH  16  17
ATOM     17  C   UNL d   1      19.572 -19.359  -0.210  0.00  0.00    -0.011 C 
ATOM     18  C   UNL d   1      18.883 -20.454   0.140  0.00  0.00     0.009 C 
ENDBRANCH  16  17
ENDBRANCH  15  16
ENDBRANCH  12  15
ENDBRANCH   7   9
ENDBRANCH   1   7
BRANCH   2  19
ATOM     19  O   UNL d   1      29.949 -16.997   0.231  0.00  0.00    -0.355 OA
ATOM     20  H   UNL d   1      29.309 -17.008   0.963  0.00  0.00     0.218 HD
ENDBRANCH   2  19
BRANCH   6  21
ATOM     21  C   UNL d   1      27.001 -15.001  -2.962  0.00  0.00    -0.030 C 
ATOM     22  C   UNL d   1      26.219 -14.846  -4.121  0.00  0.00     0.012 C 
ATOM     23  C   UNL d   1      25.672 -13.603  -4.461  0.00  0.00     0.037 C 
ATOM     24  C   UNL d   1      25.756 -12.549  -3.561  0.00  0.00     0.065 C 
ATOM     25  C   UNL d   1      26.437 -12.698  -2.372  0.00  0.00     0.037 C 
ATOM     26  C   UNL d   1      27.070 -13.901  -2.094  0.00  0.00     0.012 C 
BRANCH  24  27
ATOM     27  O   UNL d   1      25.172 -11.344  -3.795  0.00  0.00    -0.361 OA
ATOM     28  H   UNL d   1      24.779 -11.359  -4.681  0.00  0.00     0.217 HD
ENDBRANCH  24  27
ENDBRANCH   6  21
BRANCH   5  29
ATOM     29  C   UNL d   1      29.465 -16.162  -4.622  0.00  0.00     0.129 C 
BRANCH  29  30
ATOM     30  C   UNL d   1      30.688 -16.948  -5.079  0.00  0.00     0.046 C 
BRANCH  30  31
ATOM     31  C   UNL d   1      30.407 -18.425  -5.253  0.00  0.00     0.165 C 
BRANCH  31  32
ATOM     32  O   UNL d   1      30.710 -19.115  -4.047  0.00  0.00    -0.401 OA
ATOM     33  H   UNL d   1      31.013 -18.455  -3.398  0.00  0.00     0.209 HD
ENDBRANCH  31  32
ENDBRANCH  30  31
ENDBRANCH  29  30
ENDBRANCH   5  29
TORSDOF 12
ENDMDL
MODEL 3
REMARK VINA RESULT:    -7.683      4.118      6.347
REMARK INTER + INTRA:         -13.183
REMARK INTER:                 -11.263
REMARK INTRA:                  -1.920
REMARK CONF_INDEPENDENT:        3.580
REMARK UNBOUND:                -1.920
REMARK  12 active torsions:
REMARK  status: ('A' for Active; 'I' for Inactive)
REMARK    1  A    between atoms: C_2  and  C_3 
REMARK    2  A    between atoms: C_3  and  O_4 
REMARK    3  A    between atoms: O_4  and  C_5 
REMARK    4  A    between atoms: C_8  and  C_9 
REMARK    5  A    between atoms: C_9  and  C_11 
REMARK    6  A    between atoms: C_12  and  O_13 
REMARK    7  A    between atoms: N_16  and  C_17 
REMARK    8  A    between atoms: C_17  and  C_18 
REMARK    9  A    between atoms: C_18  and  C_19 
REMARK   10  A    between atoms: C_19  and  O_20 
REMARK   11  A    between atoms: C_21  and  C_22 
REMARK   12  A    between atoms: C_25  and  O_26 
ROOT
ATOM      1  C   UNL d   1      27.203 -13.956   0.216  0.00  0.00     0.059 A 
ATOM      2  C   UNL d   1      27.483 -13.018  -0.701  0.00  0.00     0.146 A 
ATOM      3  C   UNL d   1      27.310 -11.705  -0.051  0.00  0.00     0.278 A 
ATOM      4  O   UNL d   1      27.434 -10.652  -0.635  0.00  0.00    -0.265 OA
ATOM      5  N   UNL d   1      26.985 -11.936   1.279  0.00  0.00    -0.333 N 
ATOM      6  C   UNL d   1      26.889 -13.369   1.577  0.00  0.00     0.161 A 
ENDROOT
BRANCH   1   7
ATOM      7  C   UNL d   1      27.371 -15.399  -0.081  0.00  0.00     0.193 C 
ATOM      8  O   UNL d   1      28.498 -15.837  -0.308  0.00  0.00    -0.287 OA
BRANCH   7   9
ATOM      9  C   UNL d   1      26.200 -16.317  -0.126  0.00  0.00     0.015 A 
ATOM     10  C   UNL d   1      26.332 -17.631   0.349  0.00  0.00     0.018 A 
ATOM     11  C   UNL d   1      25.321 -18.575   0.108  0.00  0.00     0.038 A 
ATOM     12  C   UNL d   1      24.137 -18.198  -0.527  0.00  0.00     0.069 A 
ATOM     13  C   UNL d   1      23.976 -16.875  -0.924  0.00  0.00     0.038 A 
ATOM     14  C   UNL d   1      25.006 -15.950  -0.743  0.00  0.00     0.018 A 
BRANCH  12  15
ATOM     15  O   UNL d   1      23.165 -19.156  -0.645  0.00  0.00    -0.348 OA
BRANCH  15  16
ATOM     16  C   UNL d   1      21.873 -18.674  -1.033  0.00  0.00     0.202 C 
BRANCH  16  17
ATOM     17  C   UNL d   1      20.830 -19.325  -0.173  0.00  0.00    -0.011 C 
ATOM     18  C   UNL d   1      19.532 -19.357  -0.506  0.00  0.00     0.009 C 
ENDBRANCH  16  17
ENDBRANCH  15  16
ENDBRANCH  12  15
ENDBRANCH   7   9
ENDBRANCH   1   7
BRANCH   2  19
ATOM     19  O   UNL d   1      27.861 -13.117  -2.008  0.00  0.00    -0.355 OA
ATOM     20  H   UNL d   1      28.203 -12.261  -2.316  0.00  0.00     0.218 HD
ENDBRANCH   2  19
BRANCH   6  21
ATOM     21  C   UNL d   1      27.790 -13.820   2.722  0.00  0.00    -0.030 C 
ATOM     22  C   UNL d   1      27.280 -13.976   4.024  0.00  0.00     0.012 C 
ATOM     23  C   UNL d   1      28.132 -14.225   5.106  0.00  0.00     0.037 C 
ATOM     24  C   UNL d   1      29.474 -14.492   4.874  0.00  0.00     0.065 C 
ATOM     25  C   UNL d   1      29.986 -14.440   3.595  0.00  0.00     0.037 C 
ATOM     26  C   UNL d   1      29.156 -14.083   2.543  0.00  0.00     0.012 C 
BRANCH  24  27
ATOM     27  O   UNL d   1      30.333 -14.825   5.873  0.00  0.00    -0.361 OA
ATOM     28  H   UNL d   1      31.154 -14.324   5.753  0.00  0.00     0.217 HD
ENDBRANCH  24  27
ENDBRANCH   6  21
BRANCH   5  29
ATOM     29  C   UNL d   1      26.667 -10.874   2.238  0.00  0.00     0.129 C 
BRANCH  29  30
ATOM     30  C   UNL d   1      27.704 -10.659   3.333  0.00  0.00     0.046 C 
BRANCH  30  31
ATOM     31  C   UNL d   1      27.892  -9.198   3.686  0.00  0.00     0.165 C 
BRANCH  31  32
ATOM     32  O   UNL d   1      26.660  -8.652   4.137  0.00  0.00    -0.401 OA
ATOM     33  H   UNL d   1      26.632  -8.747   5.106  0.00  0.00     0.209 HD
ENDBRANCH  31  32
ENDBRANCH  30  31
ENDBRANCH  29  30
ENDBRANCH   5  29
TORSDOF 12
ENDMDL
MODEL 4
REMARK VINA RESULT:    -7.479      1.694      4.041
REMARK INTER + INTRA:         -13.826
REMARK INTER:                 -11.059
REMARK INTRA:                  -2.767
REMARK CONF_INDEPENDENT:        3.580
REMARK UNBOUND:                -2.767
REMARK  12 active torsions:
REMARK  status: ('A' for Active; 'I' for Inactive)
REMARK    1  A    between atoms: C_2  and  C_3 
REMARK    2  A    between atoms: C_3  and  O_4 
REMARK    3  A    between atoms: O_4  and  C_5 
REMARK    4  A    between atoms: C_8  and  C_9 
REMARK    5  A    between atoms: C_9  and  C_11 
REMARK    6  A    between atoms: C_12  and  O_13 
REMARK    7  A    between atoms: N_16  and  C_17 
REMARK    8  A    between atoms: C_17  and  C_18 
REMARK    9  A    between atoms: C_18  and  C_19 
REMARK   10  A    between atoms: C_19  and  O_20 
REMARK   11  A    between atoms: C_21  and  C_22 
REMARK   12  A    between atoms: C_25  and  O_26 
ROOT
ATOM      1  C   UNL d   1      26.989 -14.920  -2.768  0.00  0.00     0.059 A 
ATOM      2  C   UNL d   1      26.448 -15.128  -3.977  0.00  0.00     0.146 A 
ATOM      3  C   UNL d   1      27.548 -15.100  -4.960  0.00  0.00     0.278 A 
ATOM      4  O   UNL d   1      27.376 -15.200  -6.154  0.00  0.00    -0.265 OA
ATOM      5  N   UNL d   1      28.734 -14.933  -4.257  0.00  0.00    -0.333 N 
ATOM      6  C   UNL d   1      28.500 -14.807  -2.814  0.00  0.00     0.161 A 
ENDROOT
BRANCH   1   7
ATOM      7  C   UNL d   1      26.168 -14.981  -1.535  0.00  0.00     0.193 C 
ATOM      8  O   UNL d   1      26.256 -14.074  -0.710  0.00  0.00    -0.287 OA
BRANCH   7   9
ATOM      9  C   UNL d   1      25.256 -16.129  -1.273  0.00  0.00     0.015 A 
ATOM     10  C   UNL d   1      23.869 -15.952  -1.392  0.00  0.00     0.018 A 
ATOM     11  C   UNL d   1      22.988 -16.943  -0.932  0.00  0.00     0.038 A 
ATOM     12  C   UNL d   1      23.478 -18.151  -0.434  0.00  0.00     0.069 A 
ATOM     13  C   UNL d   1      24.854 -18.356  -0.395  0.00  0.00     0.038 A 
ATOM     14  C   UNL d   1      25.732 -17.347  -0.792  0.00  0.00     0.018 A 
BRANCH  12  15
ATOM     15  O   UNL d   1      22.553 -19.100  -0.089  0.00  0.00    -0.348 OA
BRANCH  15  16
ATOM     16  C   UNL d   1      21.276 -18.971  -0.725  0.00  0.00     0.202 C 
BRANCH  16  17
ATOM     17  C   UNL d   1      20.276 -19.814   0.011  0.00  0.00    -0.011 C 
ATOM     18  C   UNL d   1      20.103 -19.742   1.338  0.00  0.00     0.009 C 
ENDBRANCH  16  17
ENDBRANCH  15  16
ENDBRANCH  12  15
ENDBRANCH   7   9
ENDBRANCH   1   7
BRANCH   2  19
ATOM     19  O   UNL d   1      25.157 -15.335  -4.365  0.00  0.00    -0.355 OA
ATOM     20  H   UNL d   1      25.118 -15.451  -5.329  0.00  0.00     0.218 HD
ENDBRANCH   2  19
BRANCH   6  21
ATOM     21  C   UNL d   1      29.271 -15.821  -1.976  0.00  0.00    -0.030 C 
ATOM     22  C   UNL d   1      29.650 -15.527  -0.654  0.00  0.00     0.012 C 
ATOM     23  C   UNL d   1      30.499 -16.380   0.060  0.00  0.00     0.037 C 
ATOM     24  C   UNL d   1      30.834 -17.616  -0.475  0.00  0.00     0.065 C 
ATOM     25  C   UNL d   1      30.399 -17.975  -1.733  0.00  0.00     0.037 C 
ATOM     26  C   UNL d   1      29.650 -17.075  -2.478  0.00  0.00     0.012 C 
BRANCH  24  27
ATOM     27  O   UNL d   1      31.583 -18.525   0.204  0.00  0.00    -0.361 OA
ATOM     28  H   UNL d   1      30.987 -19.177   0.605  0.00  0.00     0.217 HD
ENDBRANCH  24  27
ENDBRANCH   6  21
BRANCH   5  29
ATOM     29  C   UNL d   1      30.046 -14.788  -4.893  0.00  0.00     0.129 C 
BRANCH  29  30
ATOM     30  C   UNL d   1      30.519 -16.001  -5.684  0.00  0.00     0.046 C 
BRANCH  30  31
ATOM     31  C   UNL d   1      30.793 -15.682  -7.139  0.00  0.00     0.165 C 
BRANCH  31  32
ATOM     32  O   UNL d   1      29.981 -14.591  -7.551  0.00  0.00    -0.401 OA
ATOM     33  H   UNL d   1      29.053 -14.884  -7.516  0.00  0.00     0.209 HD
ENDBRANCH  31  32
ENDBRANCH  30  31
ENDBRANCH  29  30
ENDBRANCH   5  29
TORSDOF 12
ENDMDL
MODEL 5
REMARK VINA RESULT:    -7.409      2.381      7.115
REMARK INTER + INTRA:         -12.752
REMARK INTER:                 -10.989
REMARK INTRA:                  -1.763
REMARK CONF_INDEPENDENT:        3.580
REMARK UNBOUND:                -1.763
REMARK  12 active torsions:
REMARK  status: ('A' for Active; 'I' for Inactive)
REMARK    1  A    between atoms: C_2  and  C_3 
REMARK    2  A    between atoms: C_3  and  O_4 
REMARK    3  A    between atoms: O_4  and  C_5 
REMARK    4  A    between atoms: C_8  and  C_9 
REMARK    5  A    between atoms: C_9  and  C_11 
REMARK    6  A    between atoms: C_12  and  O_13 
REMARK    7  A    between atoms: N_16  and  C_17 
REMARK    8  A    between atoms: C_17  and  C_18 
REMARK    9  A    between atoms: C_18  and  C_19 
REMARK   10  A    between atoms: C_19  and  O_20 
REMARK   11  A    between atoms: C_21  and  C_22 
REMARK   12  A    between atoms: C_25  and  O_26 
ROOT
ATOM      1  C   UNL d   1      26.891 -15.020  -3.472  0.00  0.00     0.059 A 
ATOM      2  C   UNL d   1      27.876 -15.526  -4.228  0.00  0.00     0.146 A 
ATOM      3  C   UNL d   1      28.741 -16.327  -3.341  0.00  0.00     0.278 A 
ATOM      4  O   UNL d   1      29.756 -16.871  -3.715  0.00  0.00    -0.265 OA
ATOM      5  N   UNL d   1      28.174 -16.307  -2.073  0.00  0.00    -0.333 N 
ATOM      6  C   UNL d   1      26.958 -15.487  -2.032  0.00  0.00     0.161 A 
ENDROOT
BRANCH   1   7
ATOM      7  C   UNL d   1      25.784 -14.236  -4.071  0.00  0.00     0.193 C 
ATOM      8  O   UNL d   1      24.782 -14.824  -4.474  0.00  0.00    -0.287 OA
BRANCH   7   9
ATOM      9  C   UNL d   1      25.875 -12.756  -4.209  0.00  0.00     0.015 A 
ATOM     10  C   UNL d   1      25.795 -11.948  -3.063  0.00  0.00     0.018 A 
ATOM     11  C   UNL d   1      25.647 -10.558  -3.188  0.00  0.00     0.038 A 
ATOM     12  C   UNL d   1      25.668  -9.953  -4.446  0.00  0.00     0.069 A 
ATOM     13  C   UNL d   1      25.830 -10.750  -5.574  0.00  0.00     0.038 A 
ATOM     14  C   UNL d   1      25.912 -12.138  -5.457  0.00  0.00     0.018 A 
BRANCH  12  15
ATOM     15  O   UNL d   1      25.608  -8.585  -4.476  0.00  0.00    -0.348 OA
BRANCH  15  16
ATOM     16  C   UNL d   1      24.945  -8.026  -5.617  0.00  0.00     0.202 C 
BRANCH  16  17
ATOM     17  C   UNL d   1      23.462  -8.082  -5.396  0.00  0.00    -0.011 C 
ATOM     18  C   UNL d   1      22.688  -6.988  -5.389  0.00  0.00     0.009 C 
ENDBRANCH  16  17
ENDBRANCH  15  16
ENDBRANCH  12  15
ENDBRANCH   7   9
ENDBRANCH   1   7
BRANCH   2  19
ATOM     19  O   UNL d   1      28.147 -15.405  -5.559  0.00  0.00    -0.355 OA
ATOM     20  H   UNL d   1      28.832 -16.044  -5.815  0.00  0.00     0.218 HD
ENDBRANCH   2  19
BRANCH   6  21
ATOM     21  C   UNL d   1      25.733 -16.232  -1.515  0.00  0.00    -0.030 C 
ATOM     22  C   UNL d   1      24.440 -15.705  -1.687  0.00  0.00     0.012 C 
ATOM     23  C   UNL d   1      23.331 -16.297  -1.071  0.00  0.00     0.037 C 
ATOM     24  C   UNL d   1      23.478 -17.515  -0.423  0.00  0.00     0.065 C 
ATOM     25  C   UNL d   1      24.719 -18.106  -0.318  0.00  0.00     0.037 C 
ATOM     26  C   UNL d   1      25.830 -17.457  -0.836  0.00  0.00     0.012 C 
BRANCH  24  27
ATOM     27  O   UNL d   1      22.426 -18.183   0.120  0.00  0.00    -0.361 OA
ATOM     28  H   UNL d   1      21.958 -17.583   0.722  0.00  0.00     0.217 HD
ENDBRANCH  24  27
ENDBRANCH   6  21
BRANCH   5  29
ATOM     29  C   UNL d   1      28.782 -16.935  -0.897  0.00  0.00     0.129 C 
BRANCH  29  30
ATOM     30  C   UNL d   1      29.237 -15.971   0.190  0.00  0.00     0.046 C 
BRANCH  30  31
ATOM     31  C   UNL d   1      28.083 -15.388   0.979  0.00  0.00     0.165 C 
BRANCH  31  32
ATOM     32  O   UNL d   1      28.568 -14.823   2.190  0.00  0.00    -0.401 OA
ATOM     33  H   UNL d   1      29.176 -15.468   2.594  0.00  0.00     0.209 HD
ENDBRANCH  31  32
ENDBRANCH  30  31
ENDBRANCH  29  30
ENDBRANCH   5  29
TORSDOF 12
ENDMDL
MODEL 6
REMARK VINA RESULT:    -7.335      3.526      6.769
REMARK INTER + INTRA:         -12.915
REMARK INTER:                 -10.914
REMARK INTRA:                  -2.001
REMARK CONF_INDEPENDENT:        3.580
REMARK UNBOUND:                -2.001
REMARK  12 active torsions:
REMARK  status: ('A' for Active; 'I' for Inactive)
REMARK    1  A    between atoms: C_2  and  C_3 
REMARK    2  A    between atoms: C_3  and  O_4 
REMARK    3  A    between atoms: O_4  and  C_5 
REMARK    4  A    between atoms: C_8  and  C_9 
REMARK    5  A    between atoms: C_9  and  C_11 
REMARK    6  A    between atoms: C_12  and  O_13 
REMARK    7  A    between atoms: N_16  and  C_17 
REMARK    8  A    between atoms: C_17  and  C_18 
REMARK    9  A    between atoms: C_18  and  C_19 
REMARK   10  A    between atoms: C_19  and  O_20 
REMARK   11  A    between atoms: C_21  and  C_22 
REMARK   12  A    between atoms: C_25  and  O_26 
ROOT
ATOM      1  C   UNL d   1      26.820 -16.543  -0.005  0.00  0.00     0.059 A 
ATOM      2  C   UNL d   1      26.661 -17.875   0.001  0.00  0.00     0.146 A 
ATOM      3  C   UNL d   1      25.245 -18.149  -0.307  0.00  0.00     0.278 A 
ATOM      4  O   UNL d   1      24.769 -19.262  -0.319  0.00  0.00    -0.265 OA
ATOM      5  N   UNL d   1      24.626 -16.929  -0.549  0.00  0.00    -0.333 N 
ATOM      6  C   UNL d   1      25.553 -15.804  -0.385  0.00  0.00     0.161 A 
ENDROOT
BRANCH   1   7
ATOM      7  C   UNL d   1      28.155 -15.925   0.176  0.00  0.00     0.193 C 
ATOM      8  O   UNL d   1      29.131 -16.434  -0.374  0.00  0.00    -0.287 OA
BRANCH   7   9
ATOM      9  C   UNL d   1      28.335 -14.714   1.024  0.00  0.00     0.015 A 
ATOM     10  C   UNL d   1      29.627 -14.329   1.416  0.00  0.00     0.018 A 
ATOM     11  C   UNL d   1      29.802 -13.337   2.393  0.00  0.00     0.038 A 
ATOM     12  C   UNL d   1      28.701 -12.660   2.921  0.00  0.00     0.069 A 
ATOM     13  C   UNL d   1      27.427 -12.989   2.469  0.00  0.00     0.038 A 
ATOM     14  C   UNL d   1      27.247 -14.018   1.545  0.00  0.00     0.018 A 
BRANCH  12  15
ATOM     15  O   UNL d   1      28.963 -11.646   3.804  0.00  0.00    -0.348 OA
BRANCH  15  16
ATOM     16  C   UNL d   1      27.872 -11.279   4.657  0.00  0.00     0.202 C 
BRANCH  16  17
ATOM     17  C   UNL d   1      28.168 -11.741   6.054  0.00  0.00    -0.011 C 
ATOM     18  C   UNL d   1      28.153 -13.034   6.409  0.00  0.00     0.009 C 
ENDBRANCH  16  17
ENDBRANCH  15  16
ENDBRANCH  12  15
ENDBRANCH   7   9
ENDBRANCH   1   7
BRANCH   2  19
ATOM     19  O   UNL d   1      27.544 -18.889   0.233  0.00  0.00    -0.355 OA
ATOM     20  H   UNL d   1      28.452 -18.543   0.223  0.00  0.00     0.218 HD
ENDBRANCH   2  19
BRANCH   6  21
ATOM     21  C   UNL d   1      25.649 -14.905  -1.613  0.00  0.00    -0.030 C 
ATOM     22  C   UNL d   1      26.258 -13.639  -1.536  0.00  0.00     0.012 C 
ATOM     23  C   UNL d   1      26.200 -12.744  -2.611  0.00  0.00     0.037 C 
ATOM     24  C   UNL d   1      25.687 -13.169  -3.828  0.00  0.00     0.065 C 
ATOM     25  C   UNL d   1      25.168 -14.439  -3.963  0.00  0.00     0.037 C 
ATOM     26  C   UNL d   1      25.128 -15.280  -2.861  0.00  0.00     0.012 C 
BRANCH  24  27
ATOM     27  O   UNL d   1      25.683 -12.377  -4.932  0.00  0.00    -0.361 OA
ATOM     28  H   UNL d   1      24.779 -12.339  -5.281  0.00  0.00     0.217 HD
ENDBRANCH  24  27
ENDBRANCH   6  21
BRANCH   5  29
ATOM     29  C   UNL d   1      23.193 -16.781  -0.823  0.00  0.00     0.129 C 
BRANCH  29  30
ATOM     30  C   UNL d   1      22.284 -17.718  -0.037  0.00  0.00     0.046 C 
BRANCH  30  31
ATOM     31  C   UNL d   1      21.358 -18.520  -0.926  0.00  0.00     0.165 C 
BRANCH  31  32
ATOM     32  O   UNL d   1      20.056 -17.950  -0.899  0.00  0.00    -0.401 OA
ATOM     33  H   UNL d   1      19.984 -17.342  -1.656  0.00  0.00     0.209 HD
ENDBRANCH  31  32
ENDBRANCH  30  31
ENDBRANCH  29  30
ENDBRANCH   5  29
TORSDOF 12
ENDMDL
MODEL 7
REMARK VINA RESULT:    -7.220      2.351      4.122
REMARK INTER + INTRA:         -13.173
REMARK INTER:                 -10.799
REMARK INTRA:                  -2.374
REMARK CONF_INDEPENDENT:        3.580
REMARK UNBOUND:                -2.374
REMARK  12 active torsions:
REMARK  status: ('A' for Active; 'I' for Inactive)
REMARK    1  A    between atoms: C_2  and  C_3 
REMARK    2  A    between atoms: C_3  and  O_4 
REMARK    3  A    between atoms: O_4  and  C_5 
REMARK    4  A    between atoms: C_8  and  C_9 
REMARK    5  A    between atoms: C_9  and  C_11 
REMARK    6  A    between atoms: C_12  and  O_13 
REMARK    7  A    between atoms: N_16  and  C_17 
REMARK    8  A    between atoms: C_17  and  C_18 
REMARK    9  A    between atoms: C_18  and  C_19 
REMARK   10  A    between atoms: C_19  and  O_20 
REMARK   11  A    between atoms: C_21  and  C_22 
REMARK   12  A    between atoms: C_25  and  O_26 
ROOT
ATOM      1  C   UNL d   1      26.254 -14.792  -3.002  0.00  0.00     0.059 A 
ATOM      2  C   UNL d   1      26.634 -14.665  -4.282  0.00  0.00     0.146 A 
ATOM      3  C   UNL d   1      26.439 -13.252  -4.658  0.00  0.00     0.278 A 
ATOM      4  O   UNL d   1      26.638 -12.826  -5.774  0.00  0.00    -0.265 OA
ATOM      5  N   UNL d   1      25.997 -12.575  -3.528  0.00  0.00    -0.333 N 
ATOM      6  C   UNL d   1      25.840 -13.474  -2.380  0.00  0.00     0.161 A 
ENDROOT
BRANCH   1   7
ATOM      7  C   UNL d   1      26.411 -16.075  -2.276  0.00  0.00     0.193 C 
ATOM      8  O   UNL d   1      27.467 -16.698  -2.378  0.00  0.00    -0.287 OA
BRANCH   7   9
ATOM      9  C   UNL d   1      25.307 -16.628  -1.442  0.00  0.00     0.015 A 
ATOM     10  C   UNL d   1      25.521 -17.801  -0.701  0.00  0.00     0.018 A 
ATOM     11  C   UNL d   1      24.439 -18.462  -0.097  0.00  0.00     0.038 A 
ATOM     12  C   UNL d   1      23.156 -17.916  -0.151  0.00  0.00     0.069 A 
ATOM     13  C   UNL d   1      22.963 -16.710  -0.817  0.00  0.00     0.038 A 
ATOM     14  C   UNL d   1      24.025 -16.085  -1.472  0.00  0.00     0.018 A 
BRANCH  12  15
ATOM     15  O   UNL d   1      22.173 -18.575   0.538  0.00  0.00    -0.348 OA
BRANCH  15  16
ATOM     16  C   UNL d   1      21.241 -19.304  -0.270  0.00  0.00     0.202 C 
BRANCH  16  17
ATOM     17  C   UNL d   1      19.968 -19.494   0.502  0.00  0.00    -0.011 C 
ATOM     18  C   UNL d   1      19.076 -20.450   0.206  0.00  0.00     0.009 C 
ENDBRANCH  16  17
ENDBRANCH  15  16
ENDBRANCH  12  15
ENDBRANCH   7   9
ENDBRANCH   1   7
BRANCH   2  19
ATOM     19  O   UNL d   1      27.119 -15.575  -5.175  0.00  0.00    -0.355 OA
ATOM     20  H   UNL d   1      27.633 -16.254  -4.707  0.00  0.00     0.218 HD
ENDBRANCH   2  19
BRANCH   6  21
ATOM     21  C   UNL d   1      26.629 -13.041  -1.149  0.00  0.00    -0.030 C 
ATOM     22  C   UNL d   1      26.601 -13.804   0.033  0.00  0.00     0.012 C 
ATOM     23  C   UNL d   1      27.184 -13.327   1.213  0.00  0.00     0.037 C 
ATOM     24  C   UNL d   1      27.947 -12.169   1.180  0.00  0.00     0.065 C 
ATOM     25  C   UNL d   1      28.073 -11.447   0.011  0.00  0.00     0.037 C 
ATOM     26  C   UNL d   1      27.400 -11.869  -1.126  0.00  0.00     0.012 C 
BRANCH  24  27
ATOM     27  O   UNL d   1      28.609 -11.702   2.271  0.00  0.00    -0.361 OA
ATOM     28  H   UNL d   1      29.304 -12.337   2.505  0.00  0.00     0.217 HD
ENDBRANCH  24  27
ENDBRANCH   6  21
BRANCH   5  29
ATOM     29  C   UNL d   1      25.625 -11.157  -3.520  0.00  0.00     0.129 C 
BRANCH  29  30
ATOM     30  C   UNL d   1      26.368 -10.288  -4.526  0.00  0.00     0.046 C 
BRANCH  30  31
ATOM     31  C   UNL d   1      25.472  -9.777  -5.635  0.00  0.00     0.165 C 
BRANCH  31  32
ATOM     32  O   UNL d   1      25.151 -10.842  -6.519  0.00  0.00    -0.401 OA
ATOM     33  H   UNL d   1      24.852 -11.595  -5.978  0.00  0.00     0.209 HD
ENDBRANCH  31  32
ENDBRANCH  30  31
ENDBRANCH  29  30
ENDBRANCH   5  29
TORSDOF 12
ENDMDL
MODEL 8
REMARK VINA RESULT:    -7.122      2.020      3.106
REMARK INTER + INTRA:         -12.731
REMARK INTER:                 -10.701
REMARK INTRA:                  -2.030
REMARK CONF_INDEPENDENT:        3.580
REMARK UNBOUND:                -2.030
REMARK  12 active torsions:
REMARK  status: ('A' for Active; 'I' for Inactive)
REMARK    1  A    between atoms: C_2  and  C_3 
REMARK    2  A    between atoms: C_3  and  O_4 
REMARK    3  A    between atoms: O_4  and  C_5 
REMARK    4  A    between atoms: C_8  and  C_9 
REMARK    5  A    between atoms: C_9  and  C_11 
REMARK    6  A    between atoms: C_12  and  O_13 
REMARK    7  A    between atoms: N_16  and  C_17 
REMARK    8  A    between atoms: C_17  and  C_18 
REMARK    9  A    between atoms: C_18  and  C_19 
REMARK   10  A    between atoms: C_19  and  O_20 
REMARK   11  A    between atoms: C_21  and  C_22 
REMARK   12  A    between atoms: C_25  and  O_26 
ROOT
ATOM      1  C   UNL d   1      28.005 -15.704   0.129  0.00  0.00     0.059 A 
ATOM      2  C   UNL d   1      28.117 -15.064   1.301  0.00  0.00     0.146 A 
ATOM      3  C   UNL d   1      28.726 -13.749   1.026  0.00  0.00     0.278 A 
ATOM      4  O   UNL d   1      29.012 -12.953   1.892  0.00  0.00    -0.265 OA
ATOM      5  N   UNL d   1      28.894 -13.645  -0.349  0.00  0.00    -0.333 N 
ATOM      6  C   UNL d   1      28.456 -14.860  -1.046  0.00  0.00     0.161 A 
ENDROOT
BRANCH   1   7
ATOM      7  C   UNL d   1      27.340 -17.026   0.033  0.00  0.00     0.193 C 
ATOM      8  O   UNL d   1      28.028 -18.046   0.039  0.00  0.00    -0.287 OA
BRANCH   7   9
ATOM      9  C   UNL d   1      25.860 -17.137  -0.088  0.00  0.00     0.015 A 
ATOM     10  C   UNL d   1      25.221 -18.328   0.291  0.00  0.00     0.018 A 
ATOM     11  C   UNL d   1      23.870 -18.537  -0.025  0.00  0.00     0.038 A 
ATOM     12  C   UNL d   1      23.122 -17.531  -0.640  0.00  0.00     0.069 A 
ATOM     13  C   UNL d   1      23.739 -16.321  -0.940  0.00  0.00     0.038 A 
ATOM     14  C   UNL d   1      25.097 -16.135  -0.685  0.00  0.00     0.018 A 
BRANCH  12  15
ATOM     15  O   UNL d   1      21.790 -17.781  -0.835  0.00  0.00    -0.348 OA
BRANCH  15  16
ATOM     16  C   UNL d   1      21.428 -19.166  -0.895  0.00  0.00     0.202 C 
BRANCH  16  17
ATOM     17  C   UNL d   1      20.021 -19.326  -0.398  0.00  0.00    -0.011 C 
ATOM     18  C   UNL d   1      19.642 -20.339   0.395  0.00  0.00     0.009 C 
ENDBRANCH  16  17
ENDBRANCH  15  16
ENDBRANCH  12  15
ENDBRANCH   7   9
ENDBRANCH   1   7
BRANCH   2  19
ATOM     19  O   UNL d   1      27.780 -15.436   2.570  0.00  0.00    -0.355 OA
ATOM     20  H   UNL d   1      28.526 -15.898   2.986  0.00  0.00     0.218 HD
ENDBRANCH   2  19
BRANCH   6  21
ATOM     21  C   UNL d   1      27.410 -14.605  -2.125  0.00  0.00    -0.030 C 
ATOM     22  C   UNL d   1      26.530 -13.511  -2.034  0.00  0.00     0.012 C 
ATOM     23  C   UNL d   1      25.462 -13.368  -2.928  0.00  0.00     0.037 C 
ATOM     24  C   UNL d   1      25.368 -14.216  -4.022  0.00  0.00     0.065 C 
ATOM     25  C   UNL d   1      26.273 -15.241  -4.192  0.00  0.00     0.037 C 
ATOM     26  C   UNL d   1      27.261 -15.444  -3.240  0.00  0.00     0.012 C 
BRANCH  24  27
ATOM     27  O   UNL d   1      24.406 -14.074  -4.972  0.00  0.00    -0.361 OA
ATOM     28  H   UNL d   1      24.141 -13.142  -5.005  0.00  0.00     0.217 HD
ENDBRANCH  24  27
ENDBRANCH   6  21
BRANCH   5  29
ATOM     29  C   UNL d   1      29.536 -12.505  -1.009  0.00  0.00     0.129 C 
BRANCH  29  30
ATOM     30  C   UNL d   1      28.804 -11.177  -0.863  0.00  0.00     0.046 C 
BRANCH  30  31
ATOM     31  C   UNL d   1      28.566 -10.488  -2.191  0.00  0.00     0.165 C 
BRANCH  31  32
ATOM     32  O   UNL d   1      29.405 -11.062  -3.184  0.00  0.00    -0.401 OA
ATOM     33  H   UNL d   1      30.321 -11.020  -2.857  0.00  0.00     0.209 HD
ENDBRANCH  31  32
ENDBRANCH  30  31
ENDBRANCH  29  30
ENDBRANCH   5  29
TORSDOF 12
ENDMDL
MODEL 9
REMARK VINA RESULT:    -6.710      2.538      3.979
REMARK INTER + INTRA:         -12.949
REMARK INTER:                 -10.290
REMARK INTRA:                  -2.659
REMARK CONF_INDEPENDENT:        3.580
REMARK UNBOUND:                -2.659
REMARK  12 active torsions:
REMARK  status: ('A' for Active; 'I' for Inactive)
REMARK    1  A    between atoms: C_2  and  C_3 
REMARK    2  A    between atoms: C_3  and  O_4 
REMARK    3  A    between atoms: O_4  and  C_5 
REMARK    4  A    between atoms: C_8  and  C_9 
REMARK    5  A    between atoms: C_9  and  C_11 
REMARK    6  A    between atoms: C_12  and  O_13 
REMARK    7  A    between atoms: N_16  and  C_17 
REMARK    8  A    between atoms: C_17  and  C_18 
REMARK    9  A    between atoms: C_18  and  C_19 
REMARK   10  A    between atoms: C_19  and  O_20 
REMARK   11  A    between atoms: C_21  and  C_22 
REMARK   12  A    between atoms: C_25  and  O_26 
ROOT
ATOM      1  C   UNL d   1      26.948 -15.734  -0.768  0.00  0.00     0.059 A 
ATOM      2  C   UNL d   1      27.823 -15.935  -1.764  0.00  0.00     0.146 A 
ATOM      3  C   UNL d   1      28.362 -14.616  -2.147  0.00  0.00     0.278 A 
ATOM      4  O   UNL d   1      29.137 -14.454  -3.062  0.00  0.00    -0.265 OA
ATOM      5  N   UNL d   1      27.808 -13.673  -1.290  0.00  0.00    -0.333 N 
ATOM      6  C   UNL d   1      26.870 -14.282  -0.341  0.00  0.00     0.161 A 
ENDROOT
BRANCH   1   7
ATOM      7  C   UNL d   1      26.289 -16.870  -0.080  0.00  0.00     0.193 C 
ATOM      8  O   UNL d   1      26.915 -17.501   0.771  0.00  0.00    -0.287 OA
BRANCH   7   9
ATOM      9  C   UNL d   1      24.893 -17.268  -0.414  0.00  0.00     0.015 A 
ATOM     10  C   UNL d   1      23.967 -16.286  -0.799  0.00  0.00     0.018 A 
ATOM     11  C   UNL d   1      22.602 -16.601  -0.895  0.00  0.00     0.038 A 
ATOM     12  C   UNL d   1      22.162 -17.911  -0.696  0.00  0.00     0.069 A 
ATOM     13  C   UNL d   1      23.095 -18.898  -0.396  0.00  0.00     0.038 A 
ATOM     14  C   UNL d   1      24.443 -18.574  -0.237  0.00  0.00     0.018 A 
BRANCH  12  15
ATOM     15  O   UNL d   1      20.829 -18.153  -0.895  0.00  0.00    -0.348 OA
BRANCH  15  16
ATOM     16  C   UNL d   1      20.447 -19.533  -0.882  0.00  0.00     0.202 C 
BRANCH  16  17
ATOM     17  C   UNL d   1      19.492 -19.766   0.251  0.00  0.00    -0.011 C 
ATOM     18  C   UNL d   1      19.883 -19.814   1.533  0.00  0.00     0.009 C 
ENDBRANCH  16  17
ENDBRANCH  15  16
ENDBRANCH  12  15
ENDBRANCH   7   9
ENDBRANCH   1   7
BRANCH   2  19
ATOM     19  O   UNL d   1      28.227 -17.075  -2.395  0.00  0.00    -0.355 OA
ATOM     20  H   UNL d   1      28.797 -16.849  -3.149  0.00  0.00     0.218 HD
ENDBRANCH   2  19
BRANCH   6  21
ATOM     21  C   UNL d   1      27.204 -13.997   1.119  0.00  0.00    -0.030 C 
ATOM     22  C   UNL d   1      27.954 -14.912   1.880  0.00  0.00     0.012 C 
ATOM     23  C   UNL d   1      28.120 -14.738   3.259  0.00  0.00     0.037 C 
ATOM     24  C   UNL d   1      27.687 -13.564   3.858  0.00  0.00     0.065 C 
ATOM     25  C   UNL d   1      27.030 -12.603   3.118  0.00  0.00     0.037 C 
ATOM     26  C   UNL d   1      26.772 -12.834   1.775  0.00  0.00     0.012 C 
BRANCH  24  27
ATOM     27  O   UNL d   1      27.896 -13.298   5.174  0.00  0.00    -0.361 OA
ATOM     28  H   UNL d   1      28.662 -13.810   5.474  0.00  0.00     0.217 HD
ENDBRANCH  24  27
ENDBRANCH   6  21
BRANCH   5  29
ATOM     29  C   UNL d   1      28.048 -12.231  -1.399  0.00  0.00     0.129 C 
BRANCH  29  30
ATOM     30  C   UNL d   1      27.139 -11.496  -2.375  0.00  0.00     0.046 C 
BRANCH  30  31
ATOM     31  C   UNL d   1      26.131 -12.408  -3.041  0.00  0.00     0.165 C 
BRANCH  31  32
ATOM     32  O   UNL d   1      26.689 -12.951  -4.230  0.00  0.00    -0.401 OA
ATOM     33  H   UNL d   1      27.565 -13.314  -4.006  0.00  0.00     0.209 HD
ENDBRANCH  31  32
ENDBRANCH  30  31
ENDBRANCH  29  30
ENDBRANCH   5  29
TORSDOF 12
ENDMDL
