MODEL 1
REMARK VINA RESULT:   -28.258      0.000      0.000
REMARK INTER + INTRA:         -30.250
REMARK INTER:                 -29.451
REMARK INTRA:                  -0.799
REMARK CONF_INDEPENDENT:        1.193
REMARK UNBOUND:                -0.799
REMARK  4 active torsions:
REMARK  status: ('A' for Active; 'I' for Inactive)
REMARK    1  A    between atoms: C_2  and  C_3 
REMARK    2  A    between atoms: C_3  and  C_4 
REMARK    3  A    between atoms: C_6  and  C_7 
REMARK       I    between atoms: C_7  and  N_9 
REMARK    4  A    between atoms: N_9  and  N_10 
ROOT
ATOM      1  C   UNL d   1      25.453 -17.166  -0.994  0.00  0.00    -0.017 A 
ATOM      2  C   UNL d   1      24.149 -16.979  -1.409  0.00  0.00     0.032 A 
ATOM      3  C   UNL d   1      23.196 -17.796  -0.708  0.00  0.00     0.040 A 
ATOM      4  C   UNL d   1      23.850 -18.578   0.228  0.00  0.00     0.067 A 
ATOM      5  S   UNL d   1      25.537 -18.355   0.231  0.00  0.00    -0.105 SA
ENDROOT
BRANCH   3   6
ATOM      6  C   UNL d   1      21.744 -17.862  -0.895  0.00  0.00     0.266 C 
ATOM      7  O   UNL d   1      21.035 -16.856  -0.932  0.00  0.00    -0.266 OA
ATOM      8  N   UNL d   1      21.210 -19.145  -1.010  0.00  0.00    -0.290 N 
ATOM      9  H   UNL d   1      21.816 -19.958  -1.050  0.00  0.00     0.183 HD
BRANCH   8  10
ATOM     10  N   UNL d   1      19.830 -19.324  -1.270  0.00  0.00    -0.247 NA
ATOM     11  H   UNL d   1      19.750 -19.703  -2.225  0.00  0.00     0.143 HD
ATOM     12  H   UNL d   1      19.389 -18.402  -1.319  0.00  0.00     0.143 HD
ENDBRANCH   8  10
ENDBRANCH   3   6
BRANCH   1  13
ATOM     13  C   UNL d   1      26.663 -16.456  -1.541  0.00  0.00     0.046 C 
BRANCH  13  14
ATOM     14  C   UNL d   1      26.395 -15.568  -2.752  0.00  0.00     0.001 C 
ATOM     15  C   UNL d   1      25.951 -14.178  -2.335  0.00  0.00     0.005 C 
ENDBRANCH  13  14
ENDBRANCH   1  13
TORSDOF 4
ENDMDL
MODEL 2
REMARK VINA RESULT:   -28.144      0.952      1.415
REMARK INTER + INTRA:         -30.133
REMARK INTER:                 -29.337
REMARK INTRA:                  -0.796
REMARK CONF_INDEPENDENT:        1.193
REMARK UNBOUND:                -0.796
REMARK  4 active torsions:
REMARK  status: ('A' for Active; 'I' for Inactive)
REMARK    1  A    between atoms: C_2  and  C_3 
REMARK    2  A    between atoms: C_3  and  C_4 
REMARK    3  A    between atoms: C_6  and  C_7 
REMARK       I    between atoms: C_7  and  N_9 
REMARK    4  A    between atoms: N_9  and  N_10 
ROOT
ATOM      1  C   UNL d   1      25.426 -17.002  -0.828  0.00  0.00    -0.017 A 
ATOM      2  C   UNL d   1      24.125 -16.812  -1.251  0.00  0.00     0.032 A 
ATOM      3  C   UNL d   1      23.186 -17.731  -0.667  0.00  0.00     0.040 A 
ATOM      4  C   UNL d   1      23.846 -18.589   0.195  0.00  0.00     0.067 A 
ATOM      5  S   UNL d   1      25.525 -18.315   0.263  0.00  0.00    -0.105 SA
ENDROOT
BRANCH   3   6
ATOM      6  C   UNL d   1      21.741 -17.822  -0.895  0.00  0.00     0.266 C 
ATOM      7  O   UNL d   1      21.024 -16.826  -0.995  0.00  0.00    -0.266 OA
ATOM      8  N   UNL d   1      21.226 -19.115  -0.975  0.00  0.00    -0.290 N 
ATOM      9  H   UNL d   1      21.841 -19.921  -0.964  0.00  0.00     0.183 HD
BRANCH   8  10
ATOM     10  N   UNL d   1      19.856 -19.319  -1.269  0.00  0.00    -0.247 NA
ATOM     11  H   UNL d   1      19.810 -19.734  -2.211  0.00  0.00     0.143 HD
ATOM     12  H   UNL d   1      19.407 -18.406  -1.367  0.00  0.00     0.143 HD
ENDBRANCH   8  10
ENDBRANCH   3   6
BRANCH   1  13
ATOM     13  C   UNL d   1      26.623 -16.199  -1.264  0.00  0.00     0.046 C 
BRANCH  13  14
ATOM     14  C   UNL d   1      27.875 -16.398  -0.415  0.00  0.00     0.001 C 
ATOM     15  C   UNL d   1      27.849 -15.527   0.827  0.00  0.00     0.005 C 
ENDBRANCH  13  14
ENDBRANCH   1  13
TORSDOF 4
ENDMDL
MODEL 3
REMARK VINA RESULT:   -28.123      1.960      2.196
REMARK INTER + INTRA:         -30.075
REMARK INTER:                 -29.316
REMARK INTRA:                  -0.760
REMARK CONF_INDEPENDENT:        1.193
REMARK UNBOUND:                -0.760
REMARK  4 active torsions:
REMARK  status: ('A' for Active; 'I' for Inactive)
REMARK    1  A    between atoms: C_2  and  C_3 
REMARK    2  A    between atoms: C_3  and  C_4 
REMARK    3  A    between atoms: C_6  and  C_7 
REMARK       I    between atoms: C_7  and  N_9 
REMARK    4  A    between atoms: N_9  and  N_10 
ROOT
ATOM      1  C   UNL d   1      25.294 -17.813  -0.218  0.00  0.00    -0.017 A 
ATOM      2  C   UNL d   1      24.217 -18.615   0.106  0.00  0.00     0.032 A 
ATOM      3  C   UNL d   1      22.948 -18.067  -0.289  0.00  0.00     0.040 A 
ATOM      4  C   UNL d   1      23.140 -16.847  -0.914  0.00  0.00     0.067 A 
ATOM      5  S   UNL d   1      24.774 -16.375  -0.982  0.00  0.00    -0.105 SA
ENDROOT
BRANCH   3   6
ATOM      6  C   UNL d   1      21.612 -18.638  -0.098  0.00  0.00     0.266 C 
ATOM      7  O   UNL d   1      21.170 -18.928   1.015  0.00  0.00    -0.266 OA
ATOM      8  N   UNL d   1      20.876 -18.850  -1.263  0.00  0.00    -0.290 N 
ATOM      9  H   UNL d   1      21.226 -18.538  -2.162  0.00  0.00     0.183 HD
BRANCH   8  10
ATOM     10  N   UNL d   1      19.545 -19.325  -1.189  0.00  0.00    -0.247 NA
ATOM     11  H   UNL d   1      18.947 -18.614  -1.634  0.00  0.00     0.143 HD
ATOM     12  H   UNL d   1      19.257 -19.327  -0.207  0.00  0.00     0.143 HD
ENDBRANCH   8  10
ENDBRANCH   3   6
BRANCH   1  13
ATOM     13  C   UNL d   1      26.741 -18.119   0.069  0.00  0.00     0.046 C 
BRANCH  13  14
ATOM     14  C   UNL d   1      27.725 -17.040  -0.371  0.00  0.00     0.001 C 
ATOM     15  C   UNL d   1      27.883 -15.965   0.688  0.00  0.00     0.005 C 
ENDBRANCH  13  14
ENDBRANCH   1  13
TORSDOF 4
ENDMDL
