MODEL 1
REMARK VINA RESULT:    -6.597      0.000      0.000
REMARK INTER + INTRA:          -7.949
REMARK INTER:                  -7.492
REMARK INTRA:                  -0.457
REMARK CONF_INDEPENDENT:        0.895
REMARK UNBOUND:                -0.457
REMARK  3 active torsions:
REMARK  status: ('A' for Active; 'I' for Inactive)
REMARK    1  A    between atoms: C_7  and  C_8 
REMARK       I    between atoms: C_8  and  N_10 
REMARK    2  A    between atoms: N_10  and  C_11 
REMARK    3  A    between atoms: C_11  and  C_12 
ROOT
ATOM      1  C   UNL d   1      23.036 -16.889  -0.766  0.00  0.00     0.255 C 
ATOM      2  O   UNL d   1      22.377 -15.995  -0.237  0.00  0.00    -0.268 OA
ATOM      3  N   UNL d   1      22.442 -18.056  -1.195  0.00  0.00    -0.356 N 
ATOM      4  H   UNL d   1      23.009 -18.747  -1.649  0.00  0.00     0.162 HD
ENDROOT
BRANCH   1   5
ATOM      5  C   UNL d   1      24.487 -16.766  -0.970  0.00  0.00     0.081 A 
ATOM      6  C   UNL d   1      25.548 -17.466  -0.401  0.00  0.00     0.041 A 
ATOM      7  N   UNL d   1      26.691 -16.934  -0.937  0.00  0.00    -0.281 N 
ATOM      8  C   UNL d   1      25.629 -18.575   0.575  0.00  0.00     0.071 C 
ATOM      9  N   UNL d   1      26.473 -15.963  -1.825  0.00  0.00    -0.179 NA
ATOM     10  H   UNL d   1      27.655 -17.192  -0.745  0.00  0.00     0.189 HD
ATOM     11  C   UNL d   1      25.140 -15.847  -1.857  0.00  0.00     0.068 A 
ATOM     12  C   UNL d   1      24.520 -14.835  -2.751  0.00  0.00     0.073 C 
ENDBRANCH   1   5
BRANCH   3  13
ATOM     13  C   UNL d   1      21.005 -18.285  -1.133  0.00  0.00     0.127 C 
BRANCH  13  14
ATOM     14  C   UNL d   1      20.631 -19.529  -0.310  0.00  0.00     0.003 C 
ATOM     15  C   UNL d   1      20.671 -19.304   1.205  0.00  0.00     0.006 C 
ATOM     16  C   UNL d   1      19.840 -20.451   1.778  0.00  0.00     0.000 C 
ATOM     17  C   UNL d   1      18.814 -20.801   0.704  0.00  0.00     0.000 C 
ATOM     18  C   UNL d   1      19.184 -19.977  -0.520  0.00  0.00     0.006 C 
ENDBRANCH  13  14
ENDBRANCH   3  13
TORSDOF 3
ENDMDL
MODEL 2
REMARK VINA RESULT:    -6.068      1.256      1.755
REMARK INTER + INTRA:          -7.477
REMARK INTER:                  -6.963
REMARK INTRA:                  -0.513
REMARK CONF_INDEPENDENT:        0.895
REMARK UNBOUND:                -0.513
REMARK  3 active torsions:
REMARK  status: ('A' for Active; 'I' for Inactive)
REMARK    1  A    between atoms: C_7  and  C_8 
REMARK       I    between atoms: C_8  and  N_10 
REMARK    2  A    between atoms: N_10  and  C_11 
REMARK    3  A    between atoms: C_11  and  C_12 
ROOT
ATOM      1  C   UNL d   1      24.183 -17.076  -1.055  0.00  0.00     0.255 C 
ATOM      2  O   UNL d   1      23.300 -16.246  -1.271  0.00  0.00    -0.268 OA
ATOM      3  N   UNL d   1      23.961 -18.422  -1.254  0.00  0.00    -0.356 N 
ATOM      4  H   UNL d   1      24.716 -19.062  -1.096  0.00  0.00     0.162 HD
ENDROOT
BRANCH   1   5
ATOM      5  C   UNL d   1      25.517 -16.683  -0.577  0.00  0.00     0.081 A 
ATOM      6  C   UNL d   1      26.384 -17.311   0.313  0.00  0.00     0.041 A 
ATOM      7  N   UNL d   1      27.487 -16.503   0.410  0.00  0.00    -0.281 N 
ATOM      8  C   UNL d   1      26.318 -18.576   1.079  0.00  0.00     0.071 C 
ATOM      9  N   UNL d   1      27.428 -15.412  -0.355  0.00  0.00    -0.179 NA
ATOM     10  H   UNL d   1      28.319 -16.640   0.977  0.00  0.00     0.189 HD
ATOM     11  C   UNL d   1      26.239 -15.505  -0.961  0.00  0.00     0.068 A 
ATOM     12  C   UNL d   1      25.819 -14.437  -1.906  0.00  0.00     0.073 C 
ENDBRANCH   1   5
BRANCH   3  13
ATOM     13  C   UNL d   1      22.720 -18.950  -1.800  0.00  0.00     0.127 C 
BRANCH  13  14
ATOM     14  C   UNL d   1      21.506 -18.691  -0.892  0.00  0.00     0.003 C 
ATOM     15  C   UNL d   1      20.267 -19.509  -1.265  0.00  0.00     0.006 C 
ATOM     16  C   UNL d   1      19.394 -19.465  -0.012  0.00  0.00     0.000 C 
ATOM     17  C   UNL d   1      20.357 -19.326   1.163  0.00  0.00     0.000 C 
ATOM     18  C   UNL d   1      21.738 -19.119   0.558  0.00  0.00     0.006 C 
ENDBRANCH  13  14
ENDBRANCH   3  13
TORSDOF 3
ENDMDL
MODEL 3
REMARK VINA RESULT:    -6.033      1.447      2.609
REMARK INTER + INTRA:          -7.161
REMARK INTER:                  -6.927
REMARK INTRA:                  -0.233
REMARK CONF_INDEPENDENT:        0.895
REMARK UNBOUND:                -0.233
REMARK  3 active torsions:
REMARK  status: ('A' for Active; 'I' for Inactive)
REMARK    1  A    between atoms: C_7  and  C_8 
REMARK       I    between atoms: C_8  and  N_10 
REMARK    2  A    between atoms: N_10  and  C_11 
REMARK    3  A    between atoms: C_11  and  C_12 
ROOT
ATOM      1  C   UNL d   1      24.627 -16.398  -1.330  0.00  0.00     0.255 C 
ATOM      2  O   UNL d   1      24.100 -15.499  -1.984  0.00  0.00    -0.268 OA
ATOM      3  N   UNL d   1      23.871 -17.272  -0.580  0.00  0.00    -0.356 N 
ATOM      4  H   UNL d   1      24.336 -18.010  -0.087  0.00  0.00     0.162 HD
ENDROOT
BRANCH   1   5
ATOM      5  C   UNL d   1      26.085 -16.592  -1.311  0.00  0.00     0.081 A 
ATOM      6  C   UNL d   1      27.081 -16.074  -2.136  0.00  0.00     0.041 A 
ATOM      7  N   UNL d   1      28.265 -16.591  -1.680  0.00  0.00    -0.281 N 
ATOM      8  C   UNL d   1      27.068 -15.150  -3.292  0.00  0.00     0.071 C 
ATOM      9  N   UNL d   1      28.136 -17.384  -0.616  0.00  0.00    -0.179 NA
ATOM     10  H   UNL d   1      29.200 -16.439  -2.046  0.00  0.00     0.189 HD
ATOM     11  C   UNL d   1      26.819 -17.396  -0.379  0.00  0.00     0.068 A 
ATOM     12  C   UNL d   1      26.292 -18.199   0.756  0.00  0.00     0.073 C 
ENDBRANCH   1   5
BRANCH   3  13
ATOM     13  C   UNL d   1      22.416 -17.253  -0.567  0.00  0.00     0.127 C 
BRANCH  13  14
ATOM     14  C   UNL d   1      21.799 -18.654  -0.410  0.00  0.00     0.003 C 
ATOM     15  C   UNL d   1      21.291 -18.952   1.003  0.00  0.00     0.006 C 
ATOM     16  C   UNL d   1      20.334 -20.129   0.819  0.00  0.00     0.000 C 
ATOM     17  C   UNL d   1      19.768 -19.991  -0.590  0.00  0.00     0.000 C 
ATOM     18  C   UNL d   1      20.532 -18.850  -1.245  0.00  0.00     0.006 C 
ENDBRANCH  13  14
ENDBRANCH   3  13
TORSDOF 3
ENDMDL
MODEL 4
REMARK VINA RESULT:    -5.861      4.783      6.603
REMARK INTER + INTRA:          -7.215
REMARK INTER:                  -6.756
REMARK INTRA:                  -0.459
REMARK CONF_INDEPENDENT:        0.895
REMARK UNBOUND:                -0.459
REMARK  3 active torsions:
REMARK  status: ('A' for Active; 'I' for Inactive)
REMARK    1  A    between atoms: C_7  and  C_8 
REMARK       I    between atoms: C_8  and  N_10 
REMARK    2  A    between atoms: N_10  and  C_11 
REMARK    3  A    between atoms: C_11  and  C_12 
ROOT
ATOM      1  C   UNL d   1      27.955 -14.670   1.721  0.00  0.00     0.255 C 
ATOM      2  O   UNL d   1      27.074 -13.867   1.415  0.00  0.00    -0.268 OA
ATOM      3  N   UNL d   1      28.158 -15.819   0.990  0.00  0.00    -0.356 N 
ATOM      4  H   UNL d   1      28.906 -16.432   1.253  0.00  0.00     0.162 HD
ENDROOT
BRANCH   1   5
ATOM      5  C   UNL d   1      28.837 -14.450   2.877  0.00  0.00     0.081 A 
ATOM      6  C   UNL d   1      30.226 -14.433   2.970  0.00  0.00     0.041 A 
ATOM      7  N   UNL d   1      30.521 -14.197   4.287  0.00  0.00    -0.281 N 
ATOM      8  C   UNL d   1      31.315 -14.602   1.982  0.00  0.00     0.071 C 
ATOM      9  N   UNL d   1      29.448 -14.035   5.062  0.00  0.00    -0.179 NA
ATOM     10  H   UNL d   1      31.435 -14.128   4.724  0.00  0.00     0.189 HD
ATOM     11  C   UNL d   1      28.417 -14.186   4.223  0.00  0.00     0.068 A 
ATOM     12  C   UNL d   1      27.030 -14.075   4.747  0.00  0.00     0.073 C 
ENDBRANCH   1   5
BRANCH   3  13
ATOM     13  C   UNL d   1      27.417 -16.129  -0.225  0.00  0.00     0.127 C 
BRANCH  13  14
ATOM     14  C   UNL d   1      26.001 -16.658   0.055  0.00  0.00     0.003 C 
ATOM     15  C   UNL d   1      24.996 -16.358  -1.061  0.00  0.00     0.006 C 
ATOM     16  C   UNL d   1      23.853 -17.340  -0.813  0.00  0.00     0.000 C 
ATOM     17  C   UNL d   1      24.485 -18.557  -0.145  0.00  0.00     0.000 C 
ATOM     18  C   UNL d   1      25.933 -18.184   0.134  0.00  0.00     0.006 C 
ENDBRANCH  13  14
ENDBRANCH   3  13
TORSDOF 3
ENDMDL
MODEL 5
REMARK VINA RESULT:    -5.839      2.596      4.559
REMARK INTER + INTRA:          -7.336
REMARK INTER:                  -6.734
REMARK INTRA:                  -0.602
REMARK CONF_INDEPENDENT:        0.895
REMARK UNBOUND:                -0.602
REMARK  3 active torsions:
REMARK  status: ('A' for Active; 'I' for Inactive)
REMARK    1  A    between atoms: C_7  and  C_8 
REMARK       I    between atoms: C_8  and  N_10 
REMARK    2  A    between atoms: N_10  and  C_11 
REMARK    3  A    between atoms: C_11  and  C_12 
ROOT
ATOM      1  C   UNL d   1      26.560 -15.581  -1.768  0.00  0.00     0.255 C 
ATOM      2  O   UNL d   1      26.672 -14.738  -0.879  0.00  0.00    -0.268 OA
ATOM      3  N   UNL d   1      26.258 -16.893  -1.474  0.00  0.00    -0.356 N 
ATOM      4  H   UNL d   1      26.145 -17.541  -2.230  0.00  0.00     0.162 HD
ENDROOT
BRANCH   1   5
ATOM      5  C   UNL d   1      26.739 -15.239  -3.187  0.00  0.00     0.081 A 
ATOM      6  C   UNL d   1      25.915 -14.536  -4.063  0.00  0.00     0.041 A 
ATOM      7  N   UNL d   1      26.562 -14.522  -5.271  0.00  0.00    -0.281 N 
ATOM      8  C   UNL d   1      24.603 -13.869  -3.914  0.00  0.00     0.071 C 
ATOM      9  N   UNL d   1      27.747 -15.133  -5.258  0.00  0.00    -0.179 NA
ATOM     10  H   UNL d   1      26.253 -14.107  -6.145  0.00  0.00     0.189 HD
ATOM     11  C   UNL d   1      27.871 -15.575  -4.001  0.00  0.00     0.068 A 
ATOM     12  C   UNL d   1      29.093 -16.326  -3.611  0.00  0.00     0.073 C 
ENDBRANCH   1   5
BRANCH   3  13
ATOM     13  C   UNL d   1      25.974 -17.359  -0.125  0.00  0.00     0.127 C 
BRANCH  13  14
ATOM     14  C   UNL d   1      24.480 -17.639   0.111  0.00  0.00     0.003 C 
ATOM     15  C   UNL d   1      23.547 -16.620  -0.551  0.00  0.00     0.006 C 
ATOM     16  C   UNL d   1      22.193 -17.325  -0.599  0.00  0.00     0.000 C 
ATOM     17  C   UNL d   1      22.502 -18.817  -0.691  0.00  0.00     0.000 C 
ATOM     18  C   UNL d   1      24.007 -18.950  -0.519  0.00  0.00     0.006 C 
ENDBRANCH  13  14
ENDBRANCH   3  13
TORSDOF 3
ENDMDL
MODEL 6
REMARK VINA RESULT:    -5.646      3.113      4.972
REMARK INTER + INTRA:          -7.136
REMARK INTER:                  -6.541
REMARK INTRA:                  -0.595
REMARK CONF_INDEPENDENT:        0.895
REMARK UNBOUND:                -0.595
REMARK  3 active torsions:
REMARK  status: ('A' for Active; 'I' for Inactive)
REMARK    1  A    between atoms: C_7  and  C_8 
REMARK       I    between atoms: C_8  and  N_10 
REMARK    2  A    between atoms: N_10  and  C_11 
REMARK    3  A    between atoms: C_11  and  C_12 
ROOT
ATOM      1  C   UNL d   1      27.198 -15.430  -2.074  0.00  0.00     0.255 C 
ATOM      2  O   UNL d   1      26.893 -14.379  -1.511  0.00  0.00    -0.268 OA
ATOM      3  N   UNL d   1      27.196 -16.629  -1.395  0.00  0.00    -0.356 N 
ATOM      4  H   UNL d   1      27.421 -17.467  -1.897  0.00  0.00     0.162 HD
ENDROOT
BRANCH   1   5
ATOM      5  C   UNL d   1      27.579 -15.467  -3.494  0.00  0.00     0.081 A 
ATOM      6  C   UNL d   1      28.742 -15.920  -4.111  0.00  0.00     0.041 A 
ATOM      7  N   UNL d   1      28.572 -15.709  -5.454  0.00  0.00    -0.281 N 
ATOM      8  C   UNL d   1      29.991 -16.533  -3.606  0.00  0.00     0.071 C 
ATOM      9  N   UNL d   1      27.391 -15.178  -5.774  0.00  0.00    -0.179 NA
ATOM     10  H   UNL d   1      29.221 -15.909  -6.209  0.00  0.00     0.189 HD
ATOM     11  C   UNL d   1      26.775 -15.025  -4.596  0.00  0.00     0.068 A 
ATOM     12  C   UNL d   1      25.408 -14.441  -4.561  0.00  0.00     0.073 C 
ENDBRANCH   1   5
BRANCH   3  13
ATOM     13  C   UNL d   1      26.764 -16.757  -0.011  0.00  0.00     0.127 C 
BRANCH  13  14
ATOM     14  C   UNL d   1      25.271 -17.099   0.122  0.00  0.00     0.003 C 
ATOM     15  C   UNL d   1      24.382 -16.404  -0.913  0.00  0.00     0.006 C 
ATOM     16  C   UNL d   1      23.089 -17.219  -0.908  0.00  0.00     0.000 C 
ATOM     17  C   UNL d   1      23.493 -18.638  -0.521  0.00  0.00     0.000 C 
ATOM     18  C   UNL d   1      24.965 -18.574  -0.145  0.00  0.00     0.006 C 
ENDBRANCH  13  14
ENDBRANCH   3  13
TORSDOF 3
ENDMDL
MODEL 7
REMARK VINA RESULT:    -5.538      3.557      5.691
REMARK INTER + INTRA:          -6.851
REMARK INTER:                  -6.433
REMARK INTRA:                  -0.419
REMARK CONF_INDEPENDENT:        0.895
REMARK UNBOUND:                -0.419
REMARK  3 active torsions:
REMARK  status: ('A' for Active; 'I' for Inactive)
REMARK    1  A    between atoms: C_7  and  C_8 
REMARK       I    between atoms: C_8  and  N_10 
REMARK    2  A    between atoms: N_10  and  C_11 
REMARK    3  A    between atoms: C_11  and  C_12 
ROOT
ATOM      1  C   UNL d   1      25.703 -14.279  -4.168  0.00  0.00     0.255 C 
ATOM      2  O   UNL d   1      24.564 -14.215  -4.630  0.00  0.00    -0.268 OA
ATOM      3  N   UNL d   1      25.931 -14.754  -2.895  0.00  0.00    -0.356 N 
ATOM      4  H   UNL d   1      26.876 -14.820  -2.568  0.00  0.00     0.162 HD
ENDROOT
BRANCH   1   5
ATOM      5  C   UNL d   1      26.879 -13.857  -4.944  0.00  0.00     0.081 A 
ATOM      6  C   UNL d   1      28.086 -14.507  -5.191  0.00  0.00     0.041 A 
ATOM      7  N   UNL d   1      28.831 -13.654  -5.962  0.00  0.00    -0.281 N 
ATOM      8  C   UNL d   1      28.628 -15.829  -4.806  0.00  0.00     0.071 C 
ATOM      9  N   UNL d   1      28.211 -12.512  -6.260  0.00  0.00    -0.179 NA
ATOM     10  H   UNL d   1      29.770 -13.792  -6.323  0.00  0.00     0.189 HD
ATOM     11  C   UNL d   1      27.025 -12.618  -5.650  0.00  0.00     0.068 A 
ATOM     12  C   UNL d   1      26.048 -11.502  -5.760  0.00  0.00     0.073 C 
ENDBRANCH   1   5
BRANCH   3  13
ATOM     13  C   UNL d   1      24.875 -15.282  -2.044  0.00  0.00     0.127 C 
BRANCH  13  14
ATOM     14  C   UNL d   1      25.151 -16.718  -1.566  0.00  0.00     0.003 C 
ATOM     15  C   UNL d   1      26.019 -16.796  -0.307  0.00  0.00     0.006 C 
ATOM     16  C   UNL d   1      25.770 -18.202   0.236  0.00  0.00     0.000 C 
ATOM     17  C   UNL d   1      24.356 -18.573  -0.198  0.00  0.00     0.000 C 
ATOM     18  C   UNL d   1      23.889 -17.458  -1.121  0.00  0.00     0.006 C 
ENDBRANCH  13  14
ENDBRANCH   3  13
TORSDOF 3
ENDMDL
MODEL 8
REMARK VINA RESULT:    -5.521      2.877      6.743
REMARK INTER + INTRA:          -6.953
REMARK INTER:                  -6.416
REMARK INTRA:                  -0.537
REMARK CONF_INDEPENDENT:        0.895
REMARK UNBOUND:                -0.537
REMARK  3 active torsions:
REMARK  status: ('A' for Active; 'I' for Inactive)
REMARK    1  A    between atoms: C_7  and  C_8 
REMARK       I    between atoms: C_8  and  N_10 
REMARK    2  A    between atoms: N_10  and  C_11 
REMARK    3  A    between atoms: C_11  and  C_12 
ROOT
ATOM      1  C   UNL d   1      25.253 -15.399  -1.308  0.00  0.00     0.255 C 
ATOM      2  O   UNL d   1      26.063 -14.568  -0.899  0.00  0.00    -0.268 OA
ATOM      3  N   UNL d   1      24.505 -15.169  -2.442  0.00  0.00    -0.356 N 
ATOM      4  H   UNL d   1      23.879 -15.885  -2.760  0.00  0.00     0.162 HD
ENDROOT
BRANCH   1   5
ATOM      5  C   UNL d   1      25.037 -16.678  -0.615  0.00  0.00     0.081 A 
ATOM      6  C   UNL d   1      23.879 -17.430  -0.436  0.00  0.00     0.041 A 
ATOM      7  N   UNL d   1      24.244 -18.528   0.298  0.00  0.00    -0.281 N 
ATOM      8  C   UNL d   1      22.475 -17.258  -0.870  0.00  0.00     0.071 C 
ATOM      9  N   UNL d   1      25.543 -18.573   0.597  0.00  0.00    -0.179 NA
ATOM     10  H   UNL d   1      23.656 -19.290   0.625  0.00  0.00     0.189 HD
ATOM     11  C   UNL d   1      26.040 -17.458   0.051  0.00  0.00     0.068 A 
ATOM     12  C   UNL d   1      27.491 -17.163   0.190  0.00  0.00     0.073 C 
ENDBRANCH   1   5
BRANCH   3  13
ATOM     13  C   UNL d   1      24.670 -13.987  -3.275  0.00  0.00     0.127 C 
BRANCH  13  14
ATOM     14  C   UNL d   1      25.572 -14.234  -4.496  0.00  0.00     0.003 C 
ATOM     15  C   UNL d   1      26.415 -13.021  -4.899  0.00  0.00     0.006 C 
ATOM     16  C   UNL d   1      27.526 -13.605  -5.769  0.00  0.00     0.000 C 
ATOM     17  C   UNL d   1      27.744 -15.030  -5.267  0.00  0.00     0.000 C 
ATOM     18  C   UNL d   1      26.647 -15.292  -4.246  0.00  0.00     0.006 C 
ENDBRANCH  13  14
ENDBRANCH   3  13
TORSDOF 3
ENDMDL
MODEL 9
REMARK VINA RESULT:    -5.492      2.996      6.826
REMARK INTER + INTRA:          -6.873
REMARK INTER:                  -6.387
REMARK INTRA:                  -0.487
REMARK CONF_INDEPENDENT:        0.895
REMARK UNBOUND:                -0.487
REMARK  3 active torsions:
REMARK  status: ('A' for Active; 'I' for Inactive)
REMARK    1  A    between atoms: C_7  and  C_8 
REMARK       I    between atoms: C_8  and  N_10 
REMARK    2  A    between atoms: N_10  and  C_11 
REMARK    3  A    between atoms: C_11  and  C_12 
ROOT
ATOM      1  C   UNL d   1      24.829 -16.046  -1.555  0.00  0.00     0.255 C 
ATOM      2  O   UNL d   1      23.612 -15.960  -1.400  0.00  0.00    -0.268 OA
ATOM      3  N   UNL d   1      25.472 -15.356  -2.560  0.00  0.00    -0.356 N 
ATOM      4  H   UNL d   1      26.469 -15.429  -2.633  0.00  0.00     0.162 HD
ENDROOT
BRANCH   1   5
ATOM      5  C   UNL d   1      25.664 -16.884  -0.681  0.00  0.00     0.081 A 
ATOM      6  C   UNL d   1      27.024 -16.817  -0.387  0.00  0.00     0.041 A 
ATOM      7  N   UNL d   1      27.282 -17.850   0.475  0.00  0.00    -0.281 N 
ATOM      8  C   UNL d   1      28.112 -15.904  -0.802  0.00  0.00     0.071 C 
ATOM      9  N   UNL d   1      26.208 -18.576   0.788  0.00  0.00    -0.179 NA
ATOM     10  H   UNL d   1      28.170 -18.115   0.891  0.00  0.00     0.189 HD
ATOM     11  C   UNL d   1      25.217 -18.004   0.095  0.00  0.00     0.068 A 
ATOM     12  C   UNL d   1      23.842 -18.561   0.196  0.00  0.00     0.073 C 
ENDBRANCH   1   5
BRANCH   3  13
ATOM     13  C   UNL d   1      24.788 -14.427  -3.447  0.00  0.00     0.127 C 
BRANCH  13  14
ATOM     14  C   UNL d   1      25.653 -13.994  -4.643  0.00  0.00     0.003 C 
ATOM     15  C   UNL d   1      26.590 -12.823  -4.338  0.00  0.00     0.006 C 
ATOM     16  C   UNL d   1      27.638 -12.879  -5.448  0.00  0.00     0.000 C 
ATOM     17  C   UNL d   1      27.741 -14.347  -5.851  0.00  0.00     0.000 C 
ATOM     18  C   UNL d   1      26.638 -15.073  -5.096  0.00  0.00     0.006 C 
ENDBRANCH  13  14
ENDBRANCH   3  13
TORSDOF 3
ENDMDL
