MODEL 1
REMARK VINA RESULT:    -6.546      0.000      0.000
REMARK INTER + INTRA:          -9.695
REMARK INTER:                  -9.231
REMARK INTRA:                  -0.464
REMARK CONF_INDEPENDENT:        2.685
REMARK UNBOUND:                -0.464
REMARK  9 active torsions:
REMARK  status: ('A' for Active; 'I' for Inactive)
REMARK    1  A    between atoms: C_3  and  N_4 
REMARK       I    between atoms: N_4  and  C_5 
REMARK    2  A    between atoms: C_5  and  C_7 
REMARK    3  A    between atoms: C_7  and  C_8 
REMARK    4  A    between atoms: C_8  and  N_9 
REMARK       I    between atoms: N_9  and  C_10 
REMARK       I    between atoms: C_10  and  N_12 
REMARK    5  A    between atoms: N_12  and  C_13 
REMARK    6  A    between atoms: C_13  and  C_14 
REMARK    7  A    between atoms: C_14  and  N_15 
REMARK    8  A    between atoms: N_15  and  C_16 
REMARK    9  A    between atoms: C_19  and  N_20 
ROOT
ATOM      1  C   UNL d   1      18.394 -21.964   0.989  0.00  0.00     0.014 C 
ATOM      2  C   UNL d   1      18.760 -20.724   0.818  0.00  0.00    -0.098 C 
ATOM      3  C   UNL d   1      19.187 -19.279   0.618  0.00  0.00     0.216 C 
ENDROOT
BRANCH   3   4
ATOM      4  N   UNL d   1      20.644 -19.150   0.423  0.00  0.00    -0.351 N 
ATOM      5  C   UNL d   1      21.217 -19.325  -0.832  0.00  0.00     0.219 C 
ATOM      6  O   UNL d   1      20.525 -19.592  -1.812  0.00  0.00    -0.274 OA
ATOM      7  H   UNL d   1      21.219 -18.931   1.225  0.00  0.00     0.163 HD
BRANCH   5   8
ATOM      8  C   UNL d   1      22.753 -19.171  -0.936  0.00  0.00     0.122 C 
BRANCH   8   9
ATOM      9  C   UNL d   1      23.266 -17.938  -0.150  0.00  0.00     0.133 C 
BRANCH   9  10
ATOM     10  N   UNL d   1      24.667 -17.991   0.323  0.00  0.00    -0.343 N 
ATOM     11  C   UNL d   1      25.542 -16.958   0.045  0.00  0.00     0.316 C 
ATOM     12  O   UNL d   1      25.222 -15.959  -0.595  0.00  0.00    -0.247 OA
ATOM     13  N   UNL d   1      26.817 -17.130   0.542  0.00  0.00    -0.342 N 
ATOM     14  H   UNL d   1      27.041 -17.958   1.070  0.00  0.00     0.164 HD
ATOM     15  H   UNL d   1      24.984 -18.785   0.856  0.00  0.00     0.164 HD
BRANCH  13  16
ATOM     16  C   UNL d   1      27.855 -16.101   0.334  0.00  0.00     0.144 C 
BRANCH  16  17
ATOM     17  C   UNL d   1      28.045 -15.134   1.520  0.00  0.00     0.139 C 
BRANCH  17  18
ATOM     18  N   UNL d   1      28.716 -13.880   1.162  0.00  0.00    -0.388 N 
ATOM     19  H   UNL d   1      29.685 -13.898   0.853  0.00  0.00     0.159 HD
BRANCH  18  20
ATOM     20  C   UNL d   1      28.195 -12.650   1.548  0.00  0.00     0.028 A 
ATOM     21  C   UNL d   1      26.847 -12.344   1.299  0.00  0.00     0.031 A 
ATOM     22  C   UNL d   1      26.280 -11.131   1.730  0.00  0.00     0.038 A 
ATOM     23  C   UNL d   1      27.058 -10.232   2.467  0.00  0.00     0.103 A 
ATOM     24  C   UNL d   1      28.409 -10.498   2.692  0.00  0.00     0.038 A 
ATOM     25  C   UNL d   1      28.962 -11.697   2.229  0.00  0.00     0.031 A 
BRANCH  23  26
ATOM     26  N   UNL d   1      26.446  -9.039   3.069  0.00  0.00    -0.116 N 
ATOM     27  O   UNL d   1      25.520  -8.492   2.455  0.00  0.00    -0.532 OA
ATOM     28  O   UNL d   1      26.873  -8.667   4.172  0.00  0.00    -0.532 OA
ENDBRANCH  23  26
ENDBRANCH  18  20
ENDBRANCH  17  18
ENDBRANCH  16  17
ENDBRANCH  13  16
ENDBRANCH   9  10
ENDBRANCH   8   9
ENDBRANCH   5   8
ENDBRANCH   3   4
TORSDOF 9
ENDMDL
MODEL 2
REMARK VINA RESULT:    -6.157      4.787     10.201
REMARK INTER + INTRA:          -9.410
REMARK INTER:                  -8.842
REMARK INTRA:                  -0.568
REMARK CONF_INDEPENDENT:        2.685
REMARK UNBOUND:                -0.568
REMARK  9 active torsions:
REMARK  status: ('A' for Active; 'I' for Inactive)
REMARK    1  A    between atoms: C_3  and  N_4 
REMARK       I    between atoms: N_4  and  C_5 
REMARK    2  A    between atoms: C_5  and  C_7 
REMARK    3  A    between atoms: C_7  and  C_8 
REMARK    4  A    between atoms: C_8  and  N_9 
REMARK       I    between atoms: N_9  and  C_10 
REMARK       I    between atoms: C_10  and  N_12 
REMARK    5  A    between atoms: N_12  and  C_13 
REMARK    6  A    between atoms: C_13  and  C_14 
REMARK    7  A    between atoms: C_14  and  N_15 
REMARK    8  A    between atoms: N_15  and  C_16 
REMARK    9  A    between atoms: C_19  and  N_20 
ROOT
ATOM      1  C   UNL d   1      32.819 -14.749  11.439  0.00  0.00     0.014 C 
ATOM      2  C   UNL d   1      31.620 -14.762  10.926  0.00  0.00    -0.098 C 
ATOM      3  C   UNL d   1      30.222 -14.778  10.328  0.00  0.00     0.216 C 
ENDROOT
BRANCH   3   4
ATOM      4  N   UNL d   1      30.248 -14.801   8.852  0.00  0.00    -0.351 N 
ATOM      5  C   UNL d   1      29.539 -13.864   8.108  0.00  0.00     0.219 C 
ATOM      6  O   UNL d   1      28.872 -12.992   8.660  0.00  0.00    -0.274 OA
ATOM      7  H   UNL d   1      30.795 -15.517   8.393  0.00  0.00     0.163 HD
BRANCH   5   8
ATOM      8  C   UNL d   1      29.628 -13.970   6.567  0.00  0.00     0.122 C 
BRANCH   8   9
ATOM      9  C   UNL d   1      28.458 -14.796   5.975  0.00  0.00     0.133 C 
BRANCH   9  10
ATOM     10  N   UNL d   1      28.568 -15.169   4.548  0.00  0.00    -0.343 N 
ATOM     11  C   UNL d   1      27.891 -14.451   3.580  0.00  0.00     0.316 C 
ATOM     12  O   UNL d   1      27.175 -13.486   3.837  0.00  0.00    -0.247 OA
ATOM     13  N   UNL d   1      28.078 -14.900   2.290  0.00  0.00    -0.342 N 
ATOM     14  H   UNL d   1      28.680 -15.688   2.117  0.00  0.00     0.164 HD
ATOM     15  H   UNL d   1      29.145 -15.949   4.278  0.00  0.00     0.164 HD
BRANCH  13  16
ATOM     16  C   UNL d   1      27.428 -14.221   1.151  0.00  0.00     0.144 C 
BRANCH  16  17
ATOM     17  C   UNL d   1      28.097 -14.479  -0.214  0.00  0.00     0.139 C 
BRANCH  17  18
ATOM     18  N   UNL d   1      27.873 -15.830  -0.740  0.00  0.00    -0.388 N 
ATOM     19  H   UNL d   1      28.541 -16.233  -1.392  0.00  0.00     0.159 HD
BRANCH  18  20
ATOM     20  C   UNL d   1      26.627 -16.440  -0.649  0.00  0.00     0.028 A 
ATOM     21  C   UNL d   1      25.549 -15.965  -1.414  0.00  0.00     0.031 A 
ATOM     22  C   UNL d   1      24.294 -16.598  -1.384  0.00  0.00     0.038 A 
ATOM     23  C   UNL d   1      24.127 -17.756  -0.617  0.00  0.00     0.103 A 
ATOM     24  C   UNL d   1      25.172 -18.223   0.180  0.00  0.00     0.038 A 
ATOM     25  C   UNL d   1      26.405 -17.561   0.159  0.00  0.00     0.031 A 
BRANCH  23  26
ATOM     26  N   UNL d   1      22.879 -18.528  -0.699  0.00  0.00    -0.116 N 
ATOM     27  O   UNL d   1      22.023 -18.337   0.175  0.00  0.00    -0.532 OA
ATOM     28  O   UNL d   1      22.744 -19.305  -1.656  0.00  0.00    -0.532 OA
ENDBRANCH  23  26
ENDBRANCH  18  20
ENDBRANCH  17  18
ENDBRANCH  16  17
ENDBRANCH  13  16
ENDBRANCH   9  10
ENDBRANCH   8   9
ENDBRANCH   5   8
ENDBRANCH   3   4
TORSDOF 9
ENDMDL
MODEL 3
REMARK VINA RESULT:    -5.531      2.944      4.168
REMARK INTER + INTRA:         -10.125
REMARK INTER:                  -8.216
REMARK INTRA:                  -1.909
REMARK CONF_INDEPENDENT:        2.685
REMARK UNBOUND:                -1.909
REMARK  9 active torsions:
REMARK  status: ('A' for Active; 'I' for Inactive)
REMARK    1  A    between atoms: C_3  and  N_4 
REMARK       I    between atoms: N_4  and  C_5 
REMARK    2  A    between atoms: C_5  and  C_7 
REMARK    3  A    between atoms: C_7  and  C_8 
REMARK    4  A    between atoms: C_8  and  N_9 
REMARK       I    between atoms: N_9  and  C_10 
REMARK       I    between atoms: C_10  and  N_12 
REMARK    5  A    between atoms: N_12  and  C_13 
REMARK    6  A    between atoms: C_13  and  C_14 
REMARK    7  A    between atoms: C_14  and  N_15 
REMARK    8  A    between atoms: N_15  and  C_16 
REMARK    9  A    between atoms: C_19  and  N_20 
ROOT
ATOM      1  C   UNL d   1      26.606 -14.427  -4.523  0.00  0.00     0.014 C 
ATOM      2  C   UNL d   1      25.774 -14.678  -3.551  0.00  0.00    -0.098 C 
ATOM      3  C   UNL d   1      24.803 -14.970  -2.418  0.00  0.00     0.216 C 
ENDROOT
BRANCH   3   4
ATOM      4  N   UNL d   1      25.062 -16.280  -1.787  0.00  0.00    -0.351 N 
ATOM      5  C   UNL d   1      24.031 -17.013  -1.210  0.00  0.00     0.219 C 
ATOM      6  O   UNL d   1      22.877 -16.590  -1.210  0.00  0.00    -0.274 OA
ATOM      7  H   UNL d   1      26.009 -16.633  -1.785  0.00  0.00     0.163 HD
BRANCH   5   8
ATOM      8  C   UNL d   1      24.400 -18.374  -0.574  0.00  0.00     0.122 C 
BRANCH   8   9
ATOM      9  C   UNL d   1      25.199 -18.200   0.743  0.00  0.00     0.133 C 
BRANCH   9  10
ATOM     10  N   UNL d   1      26.662 -18.025   0.611  0.00  0.00    -0.343 N 
ATOM     11  C   UNL d   1      27.199 -16.781   0.334  0.00  0.00     0.316 C 
ATOM     12  O   UNL d   1      26.514 -15.772   0.183  0.00  0.00    -0.247 OA
ATOM     13  N   UNL d   1      28.573 -16.753   0.236  0.00  0.00    -0.342 N 
ATOM     14  H   UNL d   1      29.103 -17.599   0.375  0.00  0.00     0.164 HD
ATOM     15  H   UNL d   1      27.272 -18.817   0.728  0.00  0.00     0.164 HD
BRANCH  13  16
ATOM     16  C   UNL d   1      29.286 -15.491  -0.043  0.00  0.00     0.144 C 
BRANCH  16  17
ATOM     17  C   UNL d   1      29.277 -14.480   1.122  0.00  0.00     0.139 C 
BRANCH  17  18
ATOM     18  N   UNL d   1      27.933 -14.087   1.558  0.00  0.00    -0.388 N 
ATOM     19  H   UNL d   1      27.159 -14.740   1.454  0.00  0.00     0.159 HD
BRANCH  18  20
ATOM     20  C   UNL d   1      27.613 -12.755   1.791  0.00  0.00     0.028 A 
ATOM     21  C   UNL d   1      27.410 -11.877   0.714  0.00  0.00     0.031 A 
ATOM     22  C   UNL d   1      27.030 -10.539   0.920  0.00  0.00     0.038 A 
ATOM     23  C   UNL d   1      26.797 -10.084   2.222  0.00  0.00     0.103 A 
ATOM     24  C   UNL d   1      27.030 -10.927   3.309  0.00  0.00     0.038 A 
ATOM     25  C   UNL d   1      27.438 -12.247   3.084  0.00  0.00     0.031 A 
BRANCH  23  26
ATOM     26  N   UNL d   1      26.241  -8.744   2.453  0.00  0.00    -0.116 N 
ATOM     27  O   UNL d   1      25.181  -8.452   1.882  0.00  0.00    -0.532 OA
ATOM     28  O   UNL d   1      26.849  -7.994   3.231  0.00  0.00    -0.532 OA
ENDBRANCH  23  26
ENDBRANCH  18  20
ENDBRANCH  17  18
ENDBRANCH  16  17
ENDBRANCH  13  16
ENDBRANCH   9  10
ENDBRANCH   8   9
ENDBRANCH   5   8
ENDBRANCH   3   4
TORSDOF 9
ENDMDL
MODEL 4
REMARK VINA RESULT:    -5.101      7.234     10.279
REMARK INTER + INTRA:          -9.939
REMARK INTER:                  -7.786
REMARK INTRA:                  -2.153
REMARK CONF_INDEPENDENT:        2.685
REMARK UNBOUND:                -2.153
REMARK  9 active torsions:
REMARK  status: ('A' for Active; 'I' for Inactive)
REMARK    1  A    between atoms: C_3  and  N_4 
REMARK       I    between atoms: N_4  and  C_5 
REMARK    2  A    between atoms: C_5  and  C_7 
REMARK    3  A    between atoms: C_7  and  C_8 
REMARK    4  A    between atoms: C_8  and  N_9 
REMARK       I    between atoms: N_9  and  C_10 
REMARK       I    between atoms: C_10  and  N_12 
REMARK    5  A    between atoms: N_12  and  C_13 
REMARK    6  A    between atoms: C_13  and  C_14 
REMARK    7  A    between atoms: C_14  and  N_15 
REMARK    8  A    between atoms: N_15  and  C_16 
REMARK    9  A    between atoms: C_19  and  N_20 
ROOT
ATOM      1  C   UNL d   1      29.410  -6.016   9.402  0.00  0.00     0.014 C 
ATOM      2  C   UNL d   1      29.483  -7.128   8.725  0.00  0.00    -0.098 C 
ATOM      3  C   UNL d   1      29.568  -8.425   7.936  0.00  0.00     0.216 C 
ENDROOT
BRANCH   3   4
ATOM      4  N   UNL d   1      29.515  -9.613   8.810  0.00  0.00    -0.351 N 
ATOM      5  C   UNL d   1      29.312 -10.883   8.281  0.00  0.00     0.219 C 
ATOM      6  O   UNL d   1      29.171 -11.050   7.072  0.00  0.00    -0.274 OA
ATOM      7  H   UNL d   1      29.630  -9.483   9.806  0.00  0.00     0.163 HD
BRANCH   5   8
ATOM      8  C   UNL d   1      29.271 -12.066   9.278  0.00  0.00     0.122 C 
BRANCH   8   9
ATOM      9  C   UNL d   1      30.503 -12.995   9.126  0.00  0.00     0.133 C 
BRANCH   9  10
ATOM     10  N   UNL d   1      30.757 -13.540   7.776  0.00  0.00    -0.343 N 
ATOM     11  C   UNL d   1      29.708 -13.944   6.971  0.00  0.00     0.316 C 
ATOM     12  O   UNL d   1      28.531 -13.878   7.319  0.00  0.00    -0.247 OA
ATOM     13  N   UNL d   1      30.080 -14.432   5.737  0.00  0.00    -0.342 N 
ATOM     14  H   UNL d   1      31.054 -14.463   5.483  0.00  0.00     0.164 HD
ATOM     15  H   UNL d   1      31.703 -13.613   7.436  0.00  0.00     0.164 HD
BRANCH  13  16
ATOM     16  C   UNL d   1      29.064 -14.889   4.767  0.00  0.00     0.144 C 
BRANCH  16  17
ATOM     17  C   UNL d   1      28.407 -13.758   3.949  0.00  0.00     0.139 C 
BRANCH  17  18
ATOM     18  N   UNL d   1      28.257 -12.500   4.688  0.00  0.00    -0.388 N 
ATOM     19  H   UNL d   1      28.268 -12.509   5.705  0.00  0.00     0.159 HD
BRANCH  18  20
ATOM     20  C   UNL d   1      27.767 -11.356   4.069  0.00  0.00     0.028 A 
ATOM     21  C   UNL d   1      27.171 -11.439   2.800  0.00  0.00     0.031 A 
ATOM     22  C   UNL d   1      26.616 -10.308   2.176  0.00  0.00     0.038 A 
ATOM     23  C   UNL d   1      26.610  -9.083   2.852  0.00  0.00     0.103 A 
ATOM     24  C   UNL d   1      27.232  -8.969   4.096  0.00  0.00     0.038 A 
ATOM     25  C   UNL d   1      27.805 -10.101   4.687  0.00  0.00     0.031 A 
BRANCH  23  26
ATOM     26  N   UNL d   1      25.892  -7.929   2.294  0.00  0.00    -0.116 N 
ATOM     27  O   UNL d   1      26.086  -6.821   2.814  0.00  0.00    -0.532 OA
ATOM     28  O   UNL d   1      25.157  -8.126   1.315  0.00  0.00    -0.532 OA
ENDBRANCH  23  26
ENDBRANCH  18  20
ENDBRANCH  17  18
ENDBRANCH  16  17
ENDBRANCH  13  16
ENDBRANCH   9  10
ENDBRANCH   8   9
ENDBRANCH   5   8
ENDBRANCH   3   4
TORSDOF 9
ENDMDL
MODEL 5
REMARK VINA RESULT:    -4.915      6.104      8.209
REMARK INTER + INTRA:          -9.640
REMARK INTER:                  -7.599
REMARK INTRA:                  -2.041
REMARK CONF_INDEPENDENT:        2.685
REMARK UNBOUND:                -2.041
REMARK  9 active torsions:
REMARK  status: ('A' for Active; 'I' for Inactive)
REMARK    1  A    between atoms: C_3  and  N_4 
REMARK       I    between atoms: N_4  and  C_5 
REMARK    2  A    between atoms: C_5  and  C_7 
REMARK    3  A    between atoms: C_7  and  C_8 
REMARK    4  A    between atoms: C_8  and  N_9 
REMARK       I    between atoms: N_9  and  C_10 
REMARK       I    between atoms: C_10  and  N_12 
REMARK    5  A    between atoms: N_12  and  C_13 
REMARK    6  A    between atoms: C_13  and  C_14 
REMARK    7  A    between atoms: C_14  and  N_15 
REMARK    8  A    between atoms: N_15  and  C_16 
REMARK    9  A    between atoms: C_19  and  N_20 
ROOT
ATOM      1  C   UNL d   1      31.043 -11.569  -6.300  0.00  0.00     0.014 C 
ATOM      2  C   UNL d   1      30.103 -12.470  -6.357  0.00  0.00    -0.098 C 
ATOM      3  C   UNL d   1      29.006 -13.520  -6.423  0.00  0.00     0.216 C 
ENDROOT
BRANCH   3   4
ATOM      4  N   UNL d   1      28.278 -13.647  -5.145  0.00  0.00    -0.351 N 
ATOM      5  C   UNL d   1      27.413 -14.712  -4.915  0.00  0.00     0.219 C 
ATOM      6  O   UNL d   1      27.232 -15.575  -5.770  0.00  0.00    -0.274 OA
ATOM      7  H   UNL d   1      28.424 -12.940  -4.437  0.00  0.00     0.163 HD
BRANCH   5   8
ATOM      8  C   UNL d   1      26.697 -14.758  -3.545  0.00  0.00     0.122 C 
BRANCH   8   9
ATOM      9  C   UNL d   1      25.252 -14.202  -3.627  0.00  0.00     0.133 C 
BRANCH   9  10
ATOM     10  N   UNL d   1      25.023 -13.096  -4.581  0.00  0.00    -0.343 N 
ATOM     11  C   UNL d   1      25.851 -11.989  -4.586  0.00  0.00     0.316 C 
ATOM     12  O   UNL d   1      26.802 -11.857  -3.819  0.00  0.00    -0.247 OA
ATOM     13  N   UNL d   1      25.531 -11.030  -5.523  0.00  0.00    -0.342 N 
ATOM     14  H   UNL d   1      24.749 -11.176  -6.142  0.00  0.00     0.164 HD
ATOM     15  H   UNL d   1      24.260 -13.151  -5.237  0.00  0.00     0.164 HD
BRANCH  13  16
ATOM     16  C   UNL d   1      26.336  -9.799  -5.652  0.00  0.00     0.144 C 
BRANCH  16  17
ATOM     17  C   UNL d   1      26.262  -8.856  -4.434  0.00  0.00     0.139 C 
BRANCH  17  18
ATOM     18  N   UNL d   1      27.115  -9.265  -3.313  0.00  0.00    -0.388 N 
ATOM     19  H   UNL d   1      27.717 -10.079  -3.409  0.00  0.00     0.159 HD
BRANCH  18  20
ATOM     20  C   UNL d   1      26.887  -8.792  -2.026  0.00  0.00     0.028 A 
ATOM     21  C   UNL d   1      25.822  -7.913  -1.774  0.00  0.00     0.031 A 
ATOM     22  C   UNL d   1      25.533  -7.465  -0.473  0.00  0.00     0.038 A 
ATOM     23  C   UNL d   1      26.288  -7.945   0.602  0.00  0.00     0.103 A 
ATOM     24  C   UNL d   1      27.375  -8.788   0.371  0.00  0.00     0.038 A 
ATOM     25  C   UNL d   1      27.664  -9.199  -0.935  0.00  0.00     0.031 A 
BRANCH  23  26
ATOM     26  N   UNL d   1      25.904  -7.624   1.984  0.00  0.00    -0.116 N 
ATOM     27  O   UNL d   1      25.352  -6.534   2.192  0.00  0.00    -0.532 OA
ATOM     28  O   UNL d   1      26.127  -8.476   2.857  0.00  0.00    -0.532 OA
ENDBRANCH  23  26
ENDBRANCH  18  20
ENDBRANCH  17  18
ENDBRANCH  16  17
ENDBRANCH  13  16
ENDBRANCH   9  10
ENDBRANCH   8   9
ENDBRANCH   5   8
ENDBRANCH   3   4
TORSDOF 9
ENDMDL
MODEL 6
REMARK VINA RESULT:    -4.618      7.003      9.283
REMARK INTER + INTRA:         -10.005
REMARK INTER:                  -7.303
REMARK INTRA:                  -2.702
REMARK CONF_INDEPENDENT:        2.685
REMARK UNBOUND:                -2.702
REMARK  9 active torsions:
REMARK  status: ('A' for Active; 'I' for Inactive)
REMARK    1  A    between atoms: C_3  and  N_4 
REMARK       I    between atoms: N_4  and  C_5 
REMARK    2  A    between atoms: C_5  and  C_7 
REMARK    3  A    between atoms: C_7  and  C_8 
REMARK    4  A    between atoms: C_8  and  N_9 
REMARK       I    between atoms: N_9  and  C_10 
REMARK       I    between atoms: C_10  and  N_12 
REMARK    5  A    between atoms: N_12  and  C_13 
REMARK    6  A    between atoms: C_13  and  C_14 
REMARK    7  A    between atoms: C_14  and  N_15 
REMARK    8  A    between atoms: N_15  and  C_16 
REMARK    9  A    between atoms: C_19  and  N_20 
ROOT
ATOM      1  C   UNL d   1      31.658 -10.318   4.744  0.00  0.00     0.014 C 
ATOM      2  C   UNL d   1      30.835 -10.098   5.731  0.00  0.00    -0.098 C 
ATOM      3  C   UNL d   1      29.875  -9.842   6.881  0.00  0.00     0.216 C 
ENDROOT
BRANCH   3   4
ATOM      4  N   UNL d   1      29.791 -10.992   7.804  0.00  0.00    -0.351 N 
ATOM      5  C   UNL d   1      28.749 -11.908   7.714  0.00  0.00     0.219 C 
ATOM      6  O   UNL d   1      27.869 -11.784   6.866  0.00  0.00    -0.274 OA
ATOM      7  H   UNL d   1      30.513 -11.099   8.504  0.00  0.00     0.163 HD
BRANCH   5   8
ATOM      8  C   UNL d   1      28.748 -13.080   8.725  0.00  0.00     0.122 C 
BRANCH   8   9
ATOM      9  C   UNL d   1      29.818 -14.146   8.377  0.00  0.00     0.133 C 
BRANCH   9  10
ATOM     10  N   UNL d   1      30.440 -14.046   7.039  0.00  0.00    -0.343 N 
ATOM     11  C   UNL d   1      29.709 -14.327   5.901  0.00  0.00     0.316 C 
ATOM     12  O   UNL d   1      28.529 -14.670   5.927  0.00  0.00    -0.247 OA
ATOM     13  N   UNL d   1      30.405 -14.195   4.718  0.00  0.00    -0.342 N 
ATOM     14  H   UNL d   1      31.369 -13.903   4.735  0.00  0.00     0.164 HD
ATOM     15  H   UNL d   1      31.404 -13.765   6.956  0.00  0.00     0.164 HD
BRANCH  13  16
ATOM     16  C   UNL d   1      29.747 -14.450   3.421  0.00  0.00     0.144 C 
BRANCH  16  17
ATOM     17  C   UNL d   1      28.421 -13.691   3.216  0.00  0.00     0.139 C 
BRANCH  17  18
ATOM     18  N   UNL d   1      28.243 -12.549   4.120  0.00  0.00    -0.388 N 
ATOM     19  H   UNL d   1      28.371 -12.676   5.121  0.00  0.00     0.159 HD
BRANCH  18  20
ATOM     20  C   UNL d   1      27.585 -11.398   3.703  0.00  0.00     0.028 A 
ATOM     21  C   UNL d   1      27.660 -10.224   4.470  0.00  0.00     0.031 A 
ATOM     22  C   UNL d   1      27.053  -9.030   4.043  0.00  0.00     0.038 A 
ATOM     23  C   UNL d   1      26.402  -8.994   2.805  0.00  0.00     0.103 A 
ATOM     24  C   UNL d   1      26.282 -10.158   2.045  0.00  0.00     0.038 A 
ATOM     25  C   UNL d   1      26.868 -11.344   2.502  0.00  0.00     0.031 A 
BRANCH  23  26
ATOM     26  N   UNL d   1      25.905  -7.722   2.262  0.00  0.00    -0.116 N 
ATOM     27  O   UNL d   1      26.225  -6.679   2.848  0.00  0.00    -0.532 OA
ATOM     28  O   UNL d   1      25.218  -7.766   1.230  0.00  0.00    -0.532 OA
ENDBRANCH  23  26
ENDBRANCH  18  20
ENDBRANCH  17  18
ENDBRANCH  16  17
ENDBRANCH  13  16
ENDBRANCH   9  10
ENDBRANCH   8   9
ENDBRANCH   5   8
ENDBRANCH   3   4
TORSDOF 9
ENDMDL
MODEL 7
REMARK VINA RESULT:    -4.586      5.528      7.504
REMARK INTER + INTRA:          -9.803
REMARK INTER:                  -7.270
REMARK INTRA:                  -2.532
REMARK CONF_INDEPENDENT:        2.685
REMARK UNBOUND:                -2.532
REMARK  9 active torsions:
REMARK  status: ('A' for Active; 'I' for Inactive)
REMARK    1  A    between atoms: C_3  and  N_4 
REMARK       I    between atoms: N_4  and  C_5 
REMARK    2  A    between atoms: C_5  and  C_7 
REMARK    3  A    between atoms: C_7  and  C_8 
REMARK    4  A    between atoms: C_8  and  N_9 
REMARK       I    between atoms: N_9  and  C_10 
REMARK       I    between atoms: C_10  and  N_12 
REMARK    5  A    between atoms: N_12  and  C_13 
REMARK    6  A    between atoms: C_13  and  C_14 
REMARK    7  A    between atoms: C_14  and  N_15 
REMARK    8  A    between atoms: N_15  and  C_16 
REMARK    9  A    between atoms: C_19  and  N_20 
ROOT
ATOM      1  C   UNL d   1      28.027 -14.667   4.530  0.00  0.00     0.014 C 
ATOM      2  C   UNL d   1      28.986 -13.783   4.548  0.00  0.00    -0.098 C 
ATOM      3  C   UNL d   1      30.103 -12.752   4.569  0.00  0.00     0.216 C 
ENDROOT
BRANCH   3   4
ATOM      4  N   UNL d   1      31.249 -13.156   3.730  0.00  0.00    -0.351 N 
ATOM      5  C   UNL d   1      31.247 -12.932   2.358  0.00  0.00     0.219 C 
ATOM      6  O   UNL d   1      30.291 -12.392   1.807  0.00  0.00    -0.274 OA
ATOM      7  H   UNL d   1      32.038 -13.601   4.178  0.00  0.00     0.163 HD
BRANCH   5   8
ATOM      8  C   UNL d   1      32.494 -13.390   1.565  0.00  0.00     0.122 C 
BRANCH   8   9
ATOM      9  C   UNL d   1      32.448 -14.905   1.238  0.00  0.00     0.133 C 
BRANCH   9  10
ATOM     10  N   UNL d   1      31.125 -15.560   1.324  0.00  0.00    -0.343 N 
ATOM     11  C   UNL d   1      30.137 -15.272   0.401  0.00  0.00     0.316 C 
ATOM     12  O   UNL d   1      30.291 -14.475  -0.521  0.00  0.00    -0.247 OA
ATOM     13  N   UNL d   1      28.951 -15.949   0.592  0.00  0.00    -0.342 N 
ATOM     14  H   UNL d   1      28.865 -16.601   1.354  0.00  0.00     0.164 HD
ATOM     15  H   UNL d   1      30.943 -16.226   2.058  0.00  0.00     0.164 HD
BRANCH  13  16
ATOM     16  C   UNL d   1      27.811 -15.750  -0.325  0.00  0.00     0.144 C 
BRANCH  16  17
ATOM     17  C   UNL d   1      27.376 -14.281  -0.496  0.00  0.00     0.139 C 
BRANCH  17  18
ATOM     18  N   UNL d   1      28.062 -13.349   0.406  0.00  0.00    -0.388 N 
ATOM     19  H   UNL d   1      28.847 -13.675   0.964  0.00  0.00     0.159 HD
BRANCH  18  20
ATOM     20  C   UNL d   1      27.477 -12.143   0.775  0.00  0.00     0.028 A 
ATOM     21  C   UNL d   1      26.827 -12.022   2.014  0.00  0.00     0.031 A 
ATOM     22  C   UNL d   1      26.277 -10.799   2.436  0.00  0.00     0.038 A 
ATOM     23  C   UNL d   1      26.424  -9.665   1.631  0.00  0.00     0.103 A 
ATOM     24  C   UNL d   1      27.032  -9.770   0.380  0.00  0.00     0.038 A 
ATOM     25  C   UNL d   1      27.547 -11.004  -0.035  0.00  0.00     0.031 A 
BRANCH  23  26
ATOM     26  N   UNL d   1      26.007  -8.344   2.123  0.00  0.00    -0.116 N 
ATOM     27  O   UNL d   1      26.432  -7.978   3.227  0.00  0.00    -0.532 OA
ATOM     28  O   UNL d   1      25.278  -7.661   1.389  0.00  0.00    -0.532 OA
ENDBRANCH  23  26
ENDBRANCH  18  20
ENDBRANCH  17  18
ENDBRANCH  16  17
ENDBRANCH  13  16
ENDBRANCH   9  10
ENDBRANCH   8   9
ENDBRANCH   5   8
ENDBRANCH   3   4
TORSDOF 9
ENDMDL
MODEL 8
REMARK VINA RESULT:    -4.552      5.687      8.109
REMARK INTER + INTRA:          -9.878
REMARK INTER:                  -7.237
REMARK INTRA:                  -2.641
REMARK CONF_INDEPENDENT:        2.685
REMARK UNBOUND:                -2.641
REMARK  9 active torsions:
REMARK  status: ('A' for Active; 'I' for Inactive)
REMARK    1  A    between atoms: C_3  and  N_4 
REMARK       I    between atoms: N_4  and  C_5 
REMARK    2  A    between atoms: C_5  and  C_7 
REMARK    3  A    between atoms: C_7  and  C_8 
REMARK    4  A    between atoms: C_8  and  N_9 
REMARK       I    between atoms: N_9  and  C_10 
REMARK       I    between atoms: C_10  and  N_12 
REMARK    5  A    between atoms: N_12  and  C_13 
REMARK    6  A    between atoms: C_13  and  C_14 
REMARK    7  A    between atoms: C_14  and  N_15 
REMARK    8  A    between atoms: N_15  and  C_16 
REMARK    9  A    between atoms: C_19  and  N_20 
ROOT
ATOM      1  C   UNL d   1      31.834 -13.196   1.114  0.00  0.00     0.014 C 
ATOM      2  C   UNL d   1      31.655 -12.518   2.213  0.00  0.00    -0.098 C 
ATOM      3  C   UNL d   1      31.445 -11.727   3.494  0.00  0.00     0.216 C 
ENDROOT
BRANCH   3   4
ATOM      4  N   UNL d   1      31.040 -12.590   4.621  0.00  0.00    -0.351 N 
ATOM      5  C   UNL d   1      29.733 -12.584   5.095  0.00  0.00     0.219 C 
ATOM      6  O   UNL d   1      28.880 -11.859   4.589  0.00  0.00    -0.274 OA
ATOM      7  H   UNL d   1      31.738 -13.189   5.042  0.00  0.00     0.163 HD
BRANCH   5   8
ATOM      8  C   UNL d   1      29.406 -13.523   6.281  0.00  0.00     0.122 C 
BRANCH   8   9
ATOM      9  C   UNL d   1      28.563 -14.746   5.836  0.00  0.00     0.133 C 
BRANCH   9  10
ATOM     10  N   UNL d   1      28.699 -15.163   4.424  0.00  0.00    -0.343 N 
ATOM     11  C   UNL d   1      27.933 -14.568   3.438  0.00  0.00     0.316 C 
ATOM     12  O   UNL d   1      27.114 -13.682   3.667  0.00  0.00    -0.247 OA
ATOM     13  N   UNL d   1      28.155 -15.047   2.165  0.00  0.00    -0.342 N 
ATOM     14  H   UNL d   1      28.842 -15.769   2.014  0.00  0.00     0.164 HD
ATOM     15  H   UNL d   1      29.358 -15.883   4.176  0.00  0.00     0.164 HD
BRANCH  13  16
ATOM     16  C   UNL d   1      27.418 -14.496   1.010  0.00  0.00     0.144 C 
BRANCH  16  17
ATOM     17  C   UNL d   1      27.879 -13.092   0.567  0.00  0.00     0.139 C 
BRANCH  17  18
ATOM     18  N   UNL d   1      28.173 -12.184   1.682  0.00  0.00    -0.388 N 
ATOM     19  H   UNL d   1      28.586 -12.552   2.535  0.00  0.00     0.159 HD
BRANCH  18  20
ATOM     20  C   UNL d   1      27.605 -10.918   1.746  0.00  0.00     0.028 A 
ATOM     21  C   UNL d   1      27.673 -10.055   0.640  0.00  0.00     0.031 A 
ATOM     22  C   UNL d   1      27.058  -8.791   0.657  0.00  0.00     0.038 A 
ATOM     23  C   UNL d   1      26.318  -8.402   1.779  0.00  0.00     0.103 A 
ATOM     24  C   UNL d   1      26.269  -9.226   2.903  0.00  0.00     0.038 A 
ATOM     25  C   UNL d   1      26.914 -10.468   2.877  0.00  0.00     0.031 A 
BRANCH  23  26
ATOM     26  N   UNL d   1      25.530  -7.162   1.757  0.00  0.00    -0.116 N 
ATOM     27  O   UNL d   1      25.673  -6.370   2.699  0.00  0.00    -0.532 OA
ATOM     28  O   UNL d   1      24.791  -6.966   0.781  0.00  0.00    -0.532 OA
ENDBRANCH  23  26
ENDBRANCH  18  20
ENDBRANCH  17  18
ENDBRANCH  16  17
ENDBRANCH  13  16
ENDBRANCH   9  10
ENDBRANCH   8   9
ENDBRANCH   5   8
ENDBRANCH   3   4
TORSDOF 9
ENDMDL
MODEL 9
REMARK VINA RESULT:    -4.406      4.101      5.702
REMARK INTER + INTRA:          -9.628
REMARK INTER:                  -7.090
REMARK INTRA:                  -2.538
REMARK CONF_INDEPENDENT:        2.685
REMARK UNBOUND:                -2.538
REMARK  9 active torsions:
REMARK  status: ('A' for Active; 'I' for Inactive)
REMARK    1  A    between atoms: C_3  and  N_4 
REMARK       I    between atoms: N_4  and  C_5 
REMARK    2  A    between atoms: C_5  and  C_7 
REMARK    3  A    between atoms: C_7  and  C_8 
REMARK    4  A    between atoms: C_8  and  N_9 
REMARK       I    between atoms: N_9  and  C_10 
REMARK       I    between atoms: C_10  and  N_12 
REMARK    5  A    between atoms: N_12  and  C_13 
REMARK    6  A    between atoms: C_13  and  C_14 
REMARK    7  A    between atoms: C_14  and  N_15 
REMARK    8  A    between atoms: N_15  and  C_16 
REMARK    9  A    between atoms: C_19  and  N_20 
ROOT
ATOM      1  C   UNL d   1      29.260 -12.054  -3.457  0.00  0.00     0.014 C 
ATOM      2  C   UNL d   1      27.968 -12.221  -3.410  0.00  0.00    -0.098 C 
ATOM      3  C   UNL d   1      26.461 -12.415  -3.356  0.00  0.00     0.216 C 
ENDROOT
BRANCH   3   4
ATOM      4  N   UNL d   1      26.076 -13.539  -2.479  0.00  0.00    -0.351 N 
ATOM      5  C   UNL d   1      25.103 -14.452  -2.870  0.00  0.00     0.219 C 
ATOM      6  O   UNL d   1      24.538 -14.348  -3.956  0.00  0.00    -0.274 OA
ATOM      7  H   UNL d   1      26.538 -13.629  -1.584  0.00  0.00     0.163 HD
BRANCH   5   8
ATOM      8  C   UNL d   1      24.768 -15.595  -1.882  0.00  0.00     0.122 C 
BRANCH   8   9
ATOM      9  C   UNL d   1      25.861 -16.694  -1.875  0.00  0.00     0.133 C 
BRANCH   9  10
ATOM     10  N   UNL d   1      26.786 -16.697  -0.722  0.00  0.00    -0.343 N 
ATOM     11  C   UNL d   1      27.878 -15.850  -0.693  0.00  0.00     0.316 C 
ATOM     12  O   UNL d   1      28.142 -15.064  -1.600  0.00  0.00    -0.247 OA
ATOM     13  N   UNL d   1      28.661 -15.952   0.437  0.00  0.00    -0.342 N 
ATOM     14  H   UNL d   1      28.408 -16.602   1.164  0.00  0.00     0.164 HD
ATOM     15  H   UNL d   1      26.617 -17.319   0.053  0.00  0.00     0.164 HD
BRANCH  13  16
ATOM     16  C   UNL d   1      29.853 -15.099   0.610  0.00  0.00     0.144 C 
BRANCH  16  17
ATOM     17  C   UNL d   1      29.549 -13.660   1.076  0.00  0.00     0.139 C 
BRANCH  17  18
ATOM     18  N   UNL d   1      28.223 -13.175   0.678  0.00  0.00    -0.388 N 
ATOM     19  H   UNL d   1      27.729 -13.629  -0.087  0.00  0.00     0.159 HD
BRANCH  18  20
ATOM     20  C   UNL d   1      27.767 -11.923   1.074  0.00  0.00     0.028 A 
ATOM     21  C   UNL d   1      27.770 -10.850   0.168  0.00  0.00     0.031 A 
ATOM     22  C   UNL d   1      27.261  -9.589   0.525  0.00  0.00     0.038 A 
ATOM     23  C   UNL d   1      26.692  -9.410   1.790  0.00  0.00     0.103 A 
ATOM     24  C   UNL d   1      26.713 -10.451   2.719  0.00  0.00     0.038 A 
ATOM     25  C   UNL d   1      27.252 -11.690   2.354  0.00  0.00     0.031 A 
BRANCH  23  26
ATOM     26  N   UNL d   1      26.006  -8.155   2.127  0.00  0.00    -0.116 N 
ATOM     27  O   UNL d   1      25.155  -7.730   1.334  0.00  0.00    -0.532 OA
ATOM     28  O   UNL d   1      26.298  -7.609   3.201  0.00  0.00    -0.532 OA
ENDBRANCH  23  26
ENDBRANCH  18  20
ENDBRANCH  17  18
ENDBRANCH  16  17
ENDBRANCH  13  16
ENDBRANCH   9  10
ENDBRANCH   8   9
ENDBRANCH   5   8
ENDBRANCH   3   4
TORSDOF 9
ENDMDL
