MODEL 1
REMARK VINA RESULT:   -10.106      0.000      0.000
REMARK INTER + INTRA:         -14.859
REMARK INTER:                 -13.387
REMARK INTRA:                  -1.472
REMARK CONF_INDEPENDENT:        3.281
REMARK UNBOUND:                -1.472
REMARK  11 active torsions:
REMARK  status: ('A' for Active; 'I' for Inactive)
REMARK    1  A    between atoms: C_2  and  C_3 
REMARK    2  A    between atoms: C_3  and  C_4 
REMARK    3  A    between atoms: C_4  and  C_5 
REMARK       I    between atoms: C_5  and  N_7 
REMARK    4  A    between atoms: N_7  and  C_8 
REMARK    5  A    between atoms: C_11  and  N_12 
REMARK    6  A    between atoms: N_12  and  C_13 
REMARK    7  A    between atoms: C_13  and  N_15 
REMARK       I    between atoms: N_15  and  C_16 
REMARK    8  A    between atoms: C_16  and  C_18 
REMARK    9  A    between atoms: C_19  and  C_20 
REMARK   10  A    between atoms: C_24  and  N_25 
REMARK   11  A    between atoms: C_30  and  O_31 
ROOT
ATOM      1  N   UNL d   1      28.577 -17.693  -0.135  0.00  0.00    -0.333 N 
ATOM      2  H   UNL d   1      29.015 -18.608  -0.188  0.00  0.00     0.168 HD
ENDROOT
BRANCH   1   3
ATOM      3  C   UNL d   1      27.113 -17.720  -0.339  0.00  0.00     0.037 C 
ATOM      4  C   UNL d   1      26.224 -18.483   0.425  0.00  0.00     0.032 C 
ATOM      5  C   UNL d   1      24.833 -18.576   0.058  0.00  0.00     0.035 C 
ATOM      6  C   UNL d   1      24.304 -17.908  -1.070  0.00  0.00     0.068 C 
ATOM      7  C   UNL d   1      25.145 -17.050  -1.751  0.00  0.00     0.097 C 
ATOM      8  C   UNL d   1      26.479 -16.980  -1.338  0.00  0.00     0.068 C 
BRANCH   6   9
ATOM      9  N   UNL d   1      22.961 -18.126  -1.471  0.00  0.00    -0.325 N 
ATOM     10  C   UNL d   1      21.987 -18.401  -0.518  0.00  0.00     0.222 C 
ATOM     11  O   UNL d   1      22.097 -18.063   0.659  0.00  0.00    -0.273 OA
ATOM     12  H   UNL d   1      22.790 -18.268  -2.457  0.00  0.00     0.169 HD
BRANCH  10  13
ATOM     13  C   UNL d   1      20.801 -19.246  -1.002  0.00  0.00     0.103 C 
BRANCH  13  14
ATOM     14  C   UNL d   1      20.337 -20.238   0.089  0.00  0.00     0.009 C 
BRANCH  14  15
ATOM     15  C   UNL d   1      19.177 -19.695   0.916  0.00  0.00    -0.004 C 
ATOM     16  C   UNL d   1      18.245 -20.815   1.358  0.00  0.00     0.005 C 
ENDBRANCH  14  15
ENDBRANCH  13  14
ENDBRANCH  10  13
ENDBRANCH   6   9
BRANCH   7  17
ATOM     17  O   UNL d   1      24.947 -16.166  -2.778  0.00  0.00    -0.354 OA
ATOM     18  C   UNL d   1      24.777 -14.791  -2.558  0.00  0.00     0.210 C 
ENDBRANCH   7  17
ENDBRANCH   1   3
BRANCH   1  19
ATOM     19  C   UNL d   1      29.407 -16.522  -0.035  0.00  0.00     0.179 C 
ATOM     20  S   UNL d   1      30.749 -16.189  -1.008  0.00  0.00    -0.040 SA
BRANCH  19  21
ATOM     21  N   UNL d   1      29.053 -15.577   0.969  0.00  0.00    -0.300 N 
ATOM     22  C   UNL d   1      28.016 -14.630   0.787  0.00  0.00     0.247 C 
ATOM     23  O   UNL d   1      27.297 -14.525  -0.199  0.00  0.00    -0.268 OA
ATOM     24  H   UNL d   1      29.576 -15.547   1.832  0.00  0.00     0.171 HD
BRANCH  22  25
ATOM     25  C   UNL d   1      27.710 -13.656   1.861  0.00  0.00     0.075 C 
ATOM     26  C   UNL d   1      27.721 -12.353   1.488  0.00  0.00     0.017 C 
BRANCH  26  27
ATOM     27  C   UNL d   1      27.522 -11.250   2.422  0.00  0.00    -0.034 A 
ATOM     28  C   UNL d   1      27.962 -11.302   3.752  0.00  0.00     0.011 A 
ATOM     29  C   UNL d   1      27.736 -10.218   4.608  0.00  0.00     0.003 A 
ATOM     30  C   UNL d   1      27.104  -9.068   4.130  0.00  0.00     0.036 A 
ATOM     31  C   UNL d   1      26.626  -9.046   2.817  0.00  0.00     0.103 A 
ATOM     32  C   UNL d   1      26.813 -10.139   1.973  0.00  0.00     0.047 A 
BRANCH  31  33
ATOM     33  N   UNL d   1      25.907  -7.884   2.294  0.00  0.00    -0.116 N 
ATOM     34  O   UNL d   1      26.096  -6.791   2.859  0.00  0.00    -0.532 OA
ATOM     35  O   UNL d   1      25.164  -8.053   1.323  0.00  0.00    -0.532 OA
ENDBRANCH  31  33
ENDBRANCH  26  27
ENDBRANCH  22  25
ENDBRANCH  19  21
ENDBRANCH   1  19
TORSDOF 11
ENDMDL
MODEL 2
REMARK VINA RESULT:    -9.814      3.493      4.442
REMARK INTER + INTRA:         -14.113
REMARK INTER:                 -13.096
REMARK INTRA:                  -1.017
REMARK CONF_INDEPENDENT:        3.281
REMARK UNBOUND:                -1.017
REMARK  11 active torsions:
REMARK  status: ('A' for Active; 'I' for Inactive)
REMARK    1  A    between atoms: C_2  and  C_3 
REMARK    2  A    between atoms: C_3  and  C_4 
REMARK    3  A    between atoms: C_4  and  C_5 
REMARK       I    between atoms: C_5  and  N_7 
REMARK    4  A    between atoms: N_7  and  C_8 
REMARK    5  A    between atoms: C_11  and  N_12 
REMARK    6  A    between atoms: N_12  and  C_13 
REMARK    7  A    between atoms: C_13  and  N_15 
REMARK       I    between atoms: N_15  and  C_16 
REMARK    8  A    between atoms: C_16  and  C_18 
REMARK    9  A    between atoms: C_19  and  C_20 
REMARK   10  A    between atoms: C_24  and  N_25 
REMARK   11  A    between atoms: C_30  and  O_31 
ROOT
ATOM      1  N   UNL d   1      26.286 -14.830  -2.233  0.00  0.00    -0.333 N 
ATOM      2  H   UNL d   1      27.144 -14.728  -1.698  0.00  0.00     0.168 HD
ENDROOT
BRANCH   1   3
ATOM      3  C   UNL d   1      25.402 -15.909  -1.741  0.00  0.00     0.037 C 
ATOM      4  C   UNL d   1      24.015 -15.934  -1.917  0.00  0.00     0.032 C 
ATOM      5  C   UNL d   1      23.210 -16.938  -1.269  0.00  0.00     0.035 C 
ATOM      6  C   UNL d   1      23.772 -17.936  -0.440  0.00  0.00     0.068 C 
ATOM      7  C   UNL d   1      25.150 -17.998  -0.368  0.00  0.00     0.097 C 
ATOM      8  C   UNL d   1      25.882 -17.012  -1.035  0.00  0.00     0.068 C 
BRANCH   6   9
ATOM      9  N   UNL d   1      22.936 -18.827   0.280  0.00  0.00    -0.325 N 
ATOM     10  C   UNL d   1      21.664 -19.125  -0.195  0.00  0.00     0.222 C 
ATOM     11  O   UNL d   1      21.357 -19.019  -1.381  0.00  0.00    -0.273 OA
ATOM     12  H   UNL d   1      23.217 -19.067   1.221  0.00  0.00     0.169 HD
BRANCH  10  13
ATOM     13  C   UNL d   1      20.626 -19.502   0.870  0.00  0.00     0.103 C 
BRANCH  13  14
ATOM     14  C   UNL d   1      19.186 -19.337   0.333  0.00  0.00     0.009 C 
BRANCH  14  15
ATOM     15  C   UNL d   1      18.582 -20.657  -0.134  0.00  0.00    -0.004 C 
ATOM     16  C   UNL d   1      18.207 -21.539   1.049  0.00  0.00     0.005 C 
ENDBRANCH  14  15
ENDBRANCH  13  14
ENDBRANCH  10  13
ENDBRANCH   6   9
BRANCH   7  17
ATOM     17  O   UNL d   1      26.016 -18.885   0.214  0.00  0.00    -0.354 OA
ATOM     18  C   UNL d   1      27.402 -18.672   0.233  0.00  0.00     0.210 C 
ENDBRANCH   7  17
ENDBRANCH   1   3
BRANCH   1  19
ATOM     19  C   UNL d   1      26.114 -14.065  -3.439  0.00  0.00     0.179 C 
ATOM     20  S   UNL d   1      26.191 -14.686  -5.010  0.00  0.00    -0.040 SA
BRANCH  19  21
ATOM     21  N   UNL d   1      25.858 -12.674  -3.276  0.00  0.00    -0.300 N 
ATOM     22  C   UNL d   1      26.217 -11.718  -4.257  0.00  0.00     0.247 C 
ATOM     23  O   UNL d   1      26.741 -11.952  -5.339  0.00  0.00    -0.268 OA
ATOM     24  H   UNL d   1      25.439 -12.341  -2.421  0.00  0.00     0.171 HD
BRANCH  22  25
ATOM     25  C   UNL d   1      25.945 -10.281  -4.019  0.00  0.00     0.075 C 
ATOM     26  C   UNL d   1      26.147  -9.850  -2.750  0.00  0.00     0.017 C 
BRANCH  26  27
ATOM     27  C   UNL d   1      25.857  -8.489  -2.310  0.00  0.00    -0.034 A 
ATOM     28  C   UNL d   1      25.820  -7.404  -3.197  0.00  0.00     0.011 A 
ATOM     29  C   UNL d   1      25.545  -6.117  -2.719  0.00  0.00     0.003 A 
ATOM     30  C   UNL d   1      25.273  -5.917  -1.363  0.00  0.00     0.036 A 
ATOM     31  C   UNL d   1      25.362  -6.998  -0.481  0.00  0.00     0.103 A 
ATOM     32  C   UNL d   1      25.674  -8.273  -0.947  0.00  0.00     0.047 A 
BRANCH  31  33
ATOM     33  N   UNL d   1      25.142  -6.820   0.954  0.00  0.00    -0.116 N 
ATOM     34  O   UNL d   1      25.532  -7.727   1.711  0.00  0.00    -0.532 OA
ATOM     35  O   UNL d   1      24.590  -5.781   1.330  0.00  0.00    -0.532 OA
ENDBRANCH  31  33
ENDBRANCH  26  27
ENDBRANCH  22  25
ENDBRANCH  19  21
ENDBRANCH   1  19
TORSDOF 11
ENDMDL
MODEL 3
REMARK VINA RESULT:    -9.337      2.182      2.729
REMARK INTER + INTRA:         -13.937
REMARK INTER:                 -12.618
REMARK INTRA:                  -1.319
REMARK CONF_INDEPENDENT:        3.281
REMARK UNBOUND:                -1.319
REMARK  11 active torsions:
REMARK  status: ('A' for Active; 'I' for Inactive)
REMARK    1  A    between atoms: C_2  and  C_3 
REMARK    2  A    between atoms: C_3  and  C_4 
REMARK    3  A    between atoms: C_4  and  C_5 
REMARK       I    between atoms: C_5  and  N_7 
REMARK    4  A    between atoms: N_7  and  C_8 
REMARK    5  A    between atoms: C_11  and  N_12 
REMARK    6  A    between atoms: N_12  and  C_13 
REMARK    7  A    between atoms: C_13  and  N_15 
REMARK       I    between atoms: N_15  and  C_16 
REMARK    8  A    between atoms: C_16  and  C_18 
REMARK    9  A    between atoms: C_19  and  C_20 
REMARK   10  A    between atoms: C_24  and  N_25 
REMARK   11  A    between atoms: C_30  and  O_31 
ROOT
ATOM      1  N   UNL d   1      26.701 -14.973  -2.074  0.00  0.00    -0.333 N 
ATOM      2  H   UNL d   1      27.666 -15.286  -2.042  0.00  0.00     0.168 HD
ENDROOT
BRANCH   1   3
ATOM      3  C   UNL d   1      25.730 -15.982  -1.598  0.00  0.00     0.037 C 
ATOM      4  C   UNL d   1      24.407 -16.075  -2.043  0.00  0.00     0.032 C 
ATOM      5  C   UNL d   1      23.483 -16.983  -1.413  0.00  0.00     0.035 C 
ATOM      6  C   UNL d   1      23.860 -17.817  -0.335  0.00  0.00     0.068 C 
ATOM      7  C   UNL d   1      25.194 -17.827   0.022  0.00  0.00     0.097 C 
ATOM      8  C   UNL d   1      26.052 -16.942  -0.638  0.00  0.00     0.068 C 
BRANCH   6   9
ATOM      9  N   UNL d   1      22.891 -18.603   0.340  0.00  0.00    -0.325 N 
ATOM     10  C   UNL d   1      21.798 -19.107  -0.355  0.00  0.00     0.222 C 
ATOM     11  O   UNL d   1      21.811 -19.287  -1.571  0.00  0.00    -0.273 OA
ATOM     12  H   UNL d   1      22.923 -18.608   1.350  0.00  0.00     0.169 HD
BRANCH  10  13
ATOM     13  C   UNL d   1      20.528 -19.337   0.475  0.00  0.00     0.103 C 
BRANCH  13  14
ATOM     14  C   UNL d   1      19.335 -19.732  -0.423  0.00  0.00     0.009 C 
BRANCH  14  15
ATOM     15  C   UNL d   1      18.444 -20.789   0.221  0.00  0.00    -0.004 C 
ATOM     16  C   UNL d   1      18.553 -20.750   1.738  0.00  0.00     0.005 C 
ENDBRANCH  14  15
ENDBRANCH  13  14
ENDBRANCH  10  13
ENDBRANCH   6   9
BRANCH   7  17
ATOM     17  O   UNL d   1      25.920 -18.582   0.903  0.00  0.00    -0.354 OA
ATOM     18  C   UNL d   1      27.204 -19.058   0.599  0.00  0.00     0.210 C 
ENDBRANCH   7  17
ENDBRANCH   1   3
BRANCH   1  19
ATOM     19  C   UNL d   1      26.391 -13.714  -2.696  0.00  0.00     0.179 C 
ATOM     20  S   UNL d   1      25.714 -13.524  -4.235  0.00  0.00    -0.040 SA
BRANCH  19  21
ATOM     21  N   UNL d   1      26.682 -12.543  -1.941  0.00  0.00    -0.300 N 
ATOM     22  C   UNL d   1      27.058 -12.596  -0.577  0.00  0.00     0.247 C 
ATOM     23  O   UNL d   1      27.208 -13.610   0.095  0.00  0.00    -0.268 OA
ATOM     24  H   UNL d   1      26.586 -11.635  -2.371  0.00  0.00     0.171 HD
BRANCH  22  25
ATOM     25  C   UNL d   1      27.326 -11.340   0.163  0.00  0.00     0.075 C 
ATOM     26  C   UNL d   1      27.129 -11.398   1.503  0.00  0.00     0.017 C 
BRANCH  26  27
ATOM     27  C   UNL d   1      27.265 -10.243   2.384  0.00  0.00    -0.034 A 
ATOM     28  C   UNL d   1      28.048 -10.273   3.547  0.00  0.00     0.011 A 
ATOM     29  C   UNL d   1      28.136  -9.137   4.361  0.00  0.00     0.003 A 
ATOM     30  C   UNL d   1      27.474  -7.962   3.998  0.00  0.00     0.036 A 
ATOM     31  C   UNL d   1      26.658  -7.959   2.864  0.00  0.00     0.103 A 
ATOM     32  C   UNL d   1      26.535  -9.099   2.073  0.00  0.00     0.047 A 
BRANCH  31  33
ATOM     33  N   UNL d   1      25.901  -6.767   2.481  0.00  0.00    -0.116 N 
ATOM     34  O   UNL d   1      25.990  -5.769   3.220  0.00  0.00    -0.532 OA
ATOM     35  O   UNL d   1      25.227  -6.817   1.448  0.00  0.00    -0.532 OA
ENDBRANCH  31  33
ENDBRANCH  26  27
ENDBRANCH  22  25
ENDBRANCH  19  21
ENDBRANCH   1  19
TORSDOF 11
ENDMDL
MODEL 4
REMARK VINA RESULT:    -9.172      1.465      2.006
REMARK INTER + INTRA:         -13.993
REMARK INTER:                 -12.454
REMARK INTRA:                  -1.539
REMARK CONF_INDEPENDENT:        3.281
REMARK UNBOUND:                -1.539
REMARK  11 active torsions:
REMARK  status: ('A' for Active; 'I' for Inactive)
REMARK    1  A    between atoms: C_2  and  C_3 
REMARK    2  A    between atoms: C_3  and  C_4 
REMARK    3  A    between atoms: C_4  and  C_5 
REMARK       I    between atoms: C_5  and  N_7 
REMARK    4  A    between atoms: N_7  and  C_8 
REMARK    5  A    between atoms: C_11  and  N_12 
REMARK    6  A    between atoms: N_12  and  C_13 
REMARK    7  A    between atoms: C_13  and  N_15 
REMARK       I    between atoms: N_15  and  C_16 
REMARK    8  A    between atoms: C_16  and  C_18 
REMARK    9  A    between atoms: C_19  and  C_20 
REMARK   10  A    between atoms: C_24  and  N_25 
REMARK   11  A    between atoms: C_30  and  O_31 
ROOT
ATOM      1  N   UNL d   1      28.796 -17.085   0.121  0.00  0.00    -0.333 N 
ATOM      2  H   UNL d   1      29.262 -17.950   0.377  0.00  0.00     0.168 HD
ENDROOT
BRANCH   1   3
ATOM      3  C   UNL d   1      27.349 -17.243  -0.142  0.00  0.00     0.037 C 
ATOM      4  C   UNL d   1      26.522 -18.158   0.519  0.00  0.00     0.032 C 
ATOM      5  C   UNL d   1      25.161 -18.360   0.091  0.00  0.00     0.035 C 
ATOM      6  C   UNL d   1      24.599 -17.651  -0.996  0.00  0.00     0.068 C 
ATOM      7  C   UNL d   1      25.365 -16.654  -1.567  0.00  0.00     0.097 C 
ATOM      8  C   UNL d   1      26.671 -16.486  -1.098  0.00  0.00     0.068 C 
BRANCH   6   9
ATOM      9  N   UNL d   1      23.299 -17.969  -1.465  0.00  0.00    -0.325 N 
ATOM     10  C   UNL d   1      22.281 -18.249  -0.561  0.00  0.00     0.222 C 
ATOM     11  O   UNL d   1      22.295 -17.842   0.599  0.00  0.00    -0.273 OA
ATOM     12  H   UNL d   1      23.200 -18.174  -2.450  0.00  0.00     0.169 HD
BRANCH  10  13
ATOM     13  C   UNL d   1      21.177 -19.186  -1.068  0.00  0.00     0.103 C 
BRANCH  13  14
ATOM     14  C   UNL d   1      19.916 -19.099  -0.179  0.00  0.00     0.009 C 
BRANCH  14  15
ATOM     15  C   UNL d   1      19.459 -20.464   0.322  0.00  0.00    -0.004 C 
ATOM     16  C   UNL d   1      18.805 -20.357   1.692  0.00  0.00     0.005 C 
ENDBRANCH  14  15
ENDBRANCH  13  14
ENDBRANCH  10  13
ENDBRANCH   6   9
BRANCH   7  17
ATOM     17  O   UNL d   1      25.106 -15.707  -2.521  0.00  0.00    -0.354 OA
ATOM     18  C   UNL d   1      26.121 -15.134  -3.300  0.00  0.00     0.210 C 
ENDBRANCH   7  17
ENDBRANCH   1   3
BRANCH   1  19
ATOM     19  C   UNL d   1      29.583 -15.902  -0.104  0.00  0.00     0.179 C 
ATOM     20  S   UNL d   1      31.260 -15.869  -0.316  0.00  0.00    -0.040 SA
BRANCH  19  21
ATOM     21  N   UNL d   1      28.875 -14.668  -0.149  0.00  0.00    -0.300 N 
ATOM     22  C   UNL d   1      28.058 -14.223   0.918  0.00  0.00     0.247 C 
ATOM     23  O   UNL d   1      27.887 -14.796   1.987  0.00  0.00    -0.268 OA
ATOM     24  H   UNL d   1      28.919 -14.099  -0.982  0.00  0.00     0.171 HD
BRANCH  22  25
ATOM     25  C   UNL d   1      27.327 -12.940   0.801  0.00  0.00     0.075 C 
ATOM     26  C   UNL d   1      27.934 -11.987   0.053  0.00  0.00     0.017 C 
BRANCH  26  27
ATOM     27  C   UNL d   1      27.404 -10.637  -0.111  0.00  0.00    -0.034 A 
ATOM     28  C   UNL d   1      27.296 -10.018  -1.364  0.00  0.00     0.011 A 
ATOM     29  C   UNL d   1      26.788  -8.718  -1.462  0.00  0.00     0.003 A 
ATOM     30  C   UNL d   1      26.354  -8.047  -0.316  0.00  0.00     0.036 A 
ATOM     31  C   UNL d   1      26.512  -8.654   0.933  0.00  0.00     0.103 A 
ATOM     32  C   UNL d   1      27.055  -9.933   1.039  0.00  0.00     0.047 A 
BRANCH  31  33
ATOM     33  N   UNL d   1      26.125  -7.963   2.162  0.00  0.00    -0.116 N 
ATOM     34  O   UNL d   1      25.531  -6.875   2.047  0.00  0.00    -0.532 OA
ATOM     35  O   UNL d   1      26.401  -8.500   3.239  0.00  0.00    -0.532 OA
ENDBRANCH  31  33
ENDBRANCH  26  27
ENDBRANCH  22  25
ENDBRANCH  19  21
ENDBRANCH   1  19
TORSDOF 11
ENDMDL
MODEL 5
REMARK VINA RESULT:    -9.138      5.369      8.913
REMARK INTER + INTRA:         -13.675
REMARK INTER:                 -12.419
REMARK INTRA:                  -1.256
REMARK CONF_INDEPENDENT:        3.281
REMARK UNBOUND:                -1.256
REMARK  11 active torsions:
REMARK  status: ('A' for Active; 'I' for Inactive)
REMARK    1  A    between atoms: C_2  and  C_3 
REMARK    2  A    between atoms: C_3  and  C_4 
REMARK    3  A    between atoms: C_4  and  C_5 
REMARK       I    between atoms: C_5  and  N_7 
REMARK    4  A    between atoms: N_7  and  C_8 
REMARK    5  A    between atoms: C_11  and  N_12 
REMARK    6  A    between atoms: N_12  and  C_13 
REMARK    7  A    between atoms: C_13  and  N_15 
REMARK       I    between atoms: N_15  and  C_16 
REMARK    8  A    between atoms: C_16  and  C_18 
REMARK    9  A    between atoms: C_19  and  C_20 
REMARK   10  A    between atoms: C_24  and  N_25 
REMARK   11  A    between atoms: C_30  and  O_31 
ROOT
ATOM      1  N   UNL d   1      27.251 -14.903  -1.959  0.00  0.00    -0.333 N 
ATOM      2  H   UNL d   1      28.084 -15.160  -1.440  0.00  0.00     0.168 HD
ENDROOT
BRANCH   1   3
ATOM      3  C   UNL d   1      26.067 -15.728  -1.635  0.00  0.00     0.037 C 
ATOM      4  C   UNL d   1      24.782 -15.495  -2.136  0.00  0.00     0.032 C 
ATOM      5  C   UNL d   1      23.655 -16.247  -1.645  0.00  0.00     0.035 C 
ATOM      6  C   UNL d   1      23.789 -17.245  -0.652  0.00  0.00     0.068 C 
ATOM      7  C   UNL d   1      25.069 -17.571  -0.249  0.00  0.00     0.097 C 
ATOM      8  C   UNL d   1      26.127 -16.825  -0.775  0.00  0.00     0.068 C 
BRANCH   6   9
ATOM      9  N   UNL d   1      22.641 -17.874  -0.105  0.00  0.00    -0.325 N 
ATOM     10  C   UNL d   1      21.881 -18.736  -0.887  0.00  0.00     0.222 C 
ATOM     11  O   UNL d   1      22.341 -19.325  -1.863  0.00  0.00    -0.273 OA
ATOM     12  H   UNL d   1      22.298 -17.521   0.778  0.00  0.00     0.169 HD
BRANCH  10  13
ATOM     13  C   UNL d   1      20.395 -18.836  -0.518  0.00  0.00     0.103 C 
BRANCH  13  14
ATOM     14  C   UNL d   1      20.189 -19.703   0.746  0.00  0.00     0.009 C 
BRANCH  14  15
ATOM     15  C   UNL d   1      19.460 -21.008   0.446  0.00  0.00    -0.004 C 
ATOM     16  C   UNL d   1      18.254 -21.187   1.359  0.00  0.00     0.005 C 
ENDBRANCH  14  15
ENDBRANCH  13  14
ENDBRANCH  10  13
ENDBRANCH   6   9
BRANCH   7  17
ATOM     17  O   UNL d   1      25.571 -18.546   0.570  0.00  0.00    -0.354 OA
ATOM     18  C   UNL d   1      26.945 -18.813   0.660  0.00  0.00     0.210 C 
ENDBRANCH   7  17
ENDBRANCH   1   3
BRANCH   1  19
ATOM     19  C   UNL d   1      27.352 -13.927  -3.011  0.00  0.00     0.179 C 
ATOM     20  S   UNL d   1      26.423 -12.518  -3.130  0.00  0.00    -0.040 SA
BRANCH  19  21
ATOM     21  N   UNL d   1      28.317 -14.184  -4.025  0.00  0.00    -0.300 N 
ATOM     22  C   UNL d   1      27.996 -14.869  -5.221  0.00  0.00     0.247 C 
ATOM     23  O   UNL d   1      26.889 -15.284  -5.544  0.00  0.00    -0.268 OA
ATOM     24  H   UNL d   1      29.277 -13.905  -3.882  0.00  0.00     0.171 HD
BRANCH  22  25
ATOM     25  C   UNL d   1      29.051 -15.128  -6.229  0.00  0.00     0.075 C 
ATOM     26  C   UNL d   1      29.765 -16.267  -6.049  0.00  0.00     0.017 C 
BRANCH  26  27
ATOM     27  C   UNL d   1      30.893 -16.647  -6.892  0.00  0.00    -0.034 A 
ATOM     28  C   UNL d   1      32.040 -15.852  -7.018  0.00  0.00     0.011 A 
ATOM     29  C   UNL d   1      33.089 -16.262  -7.849  0.00  0.00     0.003 A 
ATOM     30  C   UNL d   1      33.012 -17.481  -8.525  0.00  0.00     0.036 A 
ATOM     31  C   UNL d   1      31.844 -18.243  -8.431  0.00  0.00     0.103 A 
ATOM     32  C   UNL d   1      30.780 -17.819  -7.637  0.00  0.00     0.047 A 
BRANCH  31  33
ATOM     33  N   UNL d   1      31.699 -19.497  -9.169  0.00  0.00    -0.116 N 
ATOM     34  O   UNL d   1      30.605 -19.715  -9.721  0.00  0.00    -0.532 OA
ATOM     35  O   UNL d   1      32.668 -20.261  -9.208  0.00  0.00    -0.532 OA
ENDBRANCH  31  33
ENDBRANCH  26  27
ENDBRANCH  22  25
ENDBRANCH  19  21
ENDBRANCH   1  19
TORSDOF 11
ENDMDL
MODEL 6
REMARK VINA RESULT:    -9.127      1.340      1.658
REMARK INTER + INTRA:         -13.943
REMARK INTER:                 -12.409
REMARK INTRA:                  -1.534
REMARK CONF_INDEPENDENT:        3.281
REMARK UNBOUND:                -1.534
REMARK  11 active torsions:
REMARK  status: ('A' for Active; 'I' for Inactive)
REMARK    1  A    between atoms: C_2  and  C_3 
REMARK    2  A    between atoms: C_3  and  C_4 
REMARK    3  A    between atoms: C_4  and  C_5 
REMARK       I    between atoms: C_5  and  N_7 
REMARK    4  A    between atoms: N_7  and  C_8 
REMARK    5  A    between atoms: C_11  and  N_12 
REMARK    6  A    between atoms: N_12  and  C_13 
REMARK    7  A    between atoms: C_13  and  N_15 
REMARK       I    between atoms: N_15  and  C_16 
REMARK    8  A    between atoms: C_16  and  C_18 
REMARK    9  A    between atoms: C_19  and  C_20 
REMARK   10  A    between atoms: C_24  and  N_25 
REMARK   11  A    between atoms: C_30  and  O_31 
ROOT
ATOM      1  N   UNL d   1      28.654 -17.608  -0.143  0.00  0.00    -0.333 N 
ATOM      2  H   UNL d   1      29.054 -18.535  -0.037  0.00  0.00     0.168 HD
ENDROOT
BRANCH   1   3
ATOM      3  C   UNL d   1      27.193 -17.612  -0.369  0.00  0.00     0.037 C 
ATOM      4  C   UNL d   1      26.275 -18.323   0.412  0.00  0.00     0.032 C 
ATOM      5  C   UNL d   1      24.888 -18.401   0.027  0.00  0.00     0.035 C 
ATOM      6  C   UNL d   1      24.392 -17.772  -1.138  0.00  0.00     0.068 C 
ATOM      7  C   UNL d   1      25.262 -16.961  -1.840  0.00  0.00     0.097 C 
ATOM      8  C   UNL d   1      26.590 -16.903  -1.409  0.00  0.00     0.068 C 
BRANCH   6   9
ATOM      9  N   UNL d   1      23.051 -17.977  -1.550  0.00  0.00    -0.325 N 
ATOM     10  C   UNL d   1      22.050 -18.152  -0.601  0.00  0.00     0.222 C 
ATOM     11  O   UNL d   1      22.147 -17.731   0.550  0.00  0.00    -0.273 OA
ATOM     12  H   UNL d   1      22.894 -18.187  -2.526  0.00  0.00     0.169 HD
BRANCH  10  13
ATOM     13  C   UNL d   1      20.847 -18.993  -1.047  0.00  0.00     0.103 C 
BRANCH  13  14
ATOM     14  C   UNL d   1      20.495 -20.069   0.004  0.00  0.00     0.009 C 
BRANCH  14  15
ATOM     15  C   UNL d   1      18.991 -20.291   0.132  0.00  0.00    -0.004 C 
ATOM     16  C   UNL d   1      18.625 -20.787   1.524  0.00  0.00     0.005 C 
ENDBRANCH  14  15
ENDBRANCH  13  14
ENDBRANCH  10  13
ENDBRANCH   6   9
BRANCH   7  17
ATOM     17  O   UNL d   1      25.099 -16.119  -2.907  0.00  0.00    -0.354 OA
ATOM     18  C   UNL d   1      24.777 -14.763  -2.746  0.00  0.00     0.210 C 
ENDBRANCH   7  17
ENDBRANCH   1   3
BRANCH   1  19
ATOM     19  C   UNL d   1      29.529 -16.469  -0.219  0.00  0.00     0.179 C 
ATOM     20  S   UNL d   1      30.748 -16.248  -1.371  0.00  0.00    -0.040 SA
BRANCH  19  21
ATOM     21  N   UNL d   1      29.338 -15.456   0.762  0.00  0.00    -0.300 N 
ATOM     22  C   UNL d   1      28.397 -14.411   0.599  0.00  0.00     0.247 C 
ATOM     23  O   UNL d   1      27.632 -14.266  -0.348  0.00  0.00    -0.268 OA
ATOM     24  H   UNL d   1      29.914 -15.449   1.591  0.00  0.00     0.171 HD
BRANCH  22  25
ATOM     25  C   UNL d   1      28.261 -13.370   1.645  0.00  0.00     0.075 C 
ATOM     26  C   UNL d   1      28.429 -13.798   2.920  0.00  0.00     0.017 C 
BRANCH  26  27
ATOM     27  C   UNL d   1      28.255 -12.937   4.084  0.00  0.00    -0.034 A 
ATOM     28  C   UNL d   1      28.341 -13.420   5.398  0.00  0.00     0.011 A 
ATOM     29  C   UNL d   1      28.158 -12.549   6.478  0.00  0.00     0.003 A 
ATOM     30  C   UNL d   1      27.924 -11.191   6.252  0.00  0.00     0.036 A 
ATOM     31  C   UNL d   1      27.791 -10.730   4.939  0.00  0.00     0.103 A 
ATOM     32  C   UNL d   1      27.933 -11.600   3.861  0.00  0.00     0.047 A 
BRANCH  31  33
ATOM     33  N   UNL d   1      27.488  -9.326   4.659  0.00  0.00    -0.116 N 
ATOM     34  O   UNL d   1      28.180  -8.464   5.232  0.00  0.00    -0.532 OA
ATOM     35  O   UNL d   1      26.573  -9.078   3.869  0.00  0.00    -0.532 OA
ENDBRANCH  31  33
ENDBRANCH  26  27
ENDBRANCH  22  25
ENDBRANCH  19  21
ENDBRANCH   1  19
TORSDOF 11
ENDMDL
MODEL 7
REMARK VINA RESULT:    -8.754      3.568      4.350
REMARK INTER + INTRA:         -13.370
REMARK INTER:                 -12.036
REMARK INTRA:                  -1.335
REMARK CONF_INDEPENDENT:        3.281
REMARK UNBOUND:                -1.335
REMARK  11 active torsions:
REMARK  status: ('A' for Active; 'I' for Inactive)
REMARK    1  A    between atoms: C_2  and  C_3 
REMARK    2  A    between atoms: C_3  and  C_4 
REMARK    3  A    between atoms: C_4  and  C_5 
REMARK       I    between atoms: C_5  and  N_7 
REMARK    4  A    between atoms: N_7  and  C_8 
REMARK    5  A    between atoms: C_11  and  N_12 
REMARK    6  A    between atoms: N_12  and  C_13 
REMARK    7  A    between atoms: C_13  and  N_15 
REMARK       I    between atoms: N_15  and  C_16 
REMARK    8  A    between atoms: C_16  and  C_18 
REMARK    9  A    between atoms: C_19  and  C_20 
REMARK   10  A    between atoms: C_24  and  N_25 
REMARK   11  A    between atoms: C_30  and  O_31 
ROOT
ATOM      1  N   UNL d   1      28.157 -16.576   0.637  0.00  0.00    -0.333 N 
ATOM      2  H   UNL d   1      28.845 -17.321   0.684  0.00  0.00     0.168 HD
ENDROOT
BRANCH   1   3
ATOM      3  C   UNL d   1      26.814 -17.032   0.218  0.00  0.00     0.037 C 
ATOM      4  C   UNL d   1      26.124 -18.098   0.806  0.00  0.00     0.032 C 
ATOM      5  C   UNL d   1      24.892 -18.579   0.234  0.00  0.00     0.035 C 
ATOM      6  C   UNL d   1      24.324 -18.006  -0.928  0.00  0.00     0.068 C 
ATOM      7  C   UNL d   1      24.928 -16.873  -1.435  0.00  0.00     0.097 C 
ATOM      8  C   UNL d   1      26.108 -16.436  -0.828  0.00  0.00     0.068 C 
BRANCH   6   9
ATOM      9  N   UNL d   1      23.180 -18.588  -1.531  0.00  0.00    -0.325 N 
ATOM     10  C   UNL d   1      21.908 -18.242  -1.090  0.00  0.00     0.222 C 
ATOM     11  O   UNL d   1      21.671 -17.179  -0.519  0.00  0.00    -0.273 OA
ATOM     12  H   UNL d   1      23.331 -19.387  -2.133  0.00  0.00     0.169 HD
BRANCH  10  13
ATOM     13  C   UNL d   1      20.826 -19.315  -1.268  0.00  0.00     0.103 C 
BRANCH  13  14
ATOM     14  C   UNL d   1      19.581 -19.004  -0.406  0.00  0.00     0.009 C 
BRANCH  14  15
ATOM     15  C   UNL d   1      18.899 -20.266   0.110  0.00  0.00    -0.004 C 
ATOM     16  C   UNL d   1      19.114 -20.435   1.608  0.00  0.00     0.005 C 
ENDBRANCH  14  15
ENDBRANCH  13  14
ENDBRANCH  10  13
ENDBRANCH   6   9
BRANCH   7  17
ATOM     17  O   UNL d   1      24.590 -16.004  -2.437  0.00  0.00    -0.354 OA
ATOM     18  C   UNL d   1      25.203 -14.750  -2.577  0.00  0.00     0.210 C 
ENDBRANCH   7  17
ENDBRANCH   1   3
BRANCH   1  19
ATOM     19  C   UNL d   1      28.581 -15.213   0.813  0.00  0.00     0.179 C 
ATOM     20  S   UNL d   1      29.204 -14.217  -0.404  0.00  0.00    -0.040 SA
BRANCH  19  21
ATOM     21  N   UNL d   1      28.459 -14.675   2.125  0.00  0.00    -0.300 N 
ATOM     22  C   UNL d   1      27.695 -13.516   2.401  0.00  0.00     0.247 C 
ATOM     23  O   UNL d   1      27.041 -12.870   1.591  0.00  0.00    -0.268 OA
ATOM     24  H   UNL d   1      28.959 -15.106   2.889  0.00  0.00     0.171 HD
BRANCH  22  25
ATOM     25  C   UNL d   1      27.626 -12.990   3.785  0.00  0.00     0.075 C 
ATOM     26  C   UNL d   1      28.623 -13.388   4.612  0.00  0.00     0.017 C 
BRANCH  26  27
ATOM     27  C   UNL d   1      28.679 -13.037   6.027  0.00  0.00    -0.034 A 
ATOM     28  C   UNL d   1      28.432 -11.736   6.490  0.00  0.00     0.011 A 
ATOM     29  C   UNL d   1      28.508 -11.454   7.858  0.00  0.00     0.003 A 
ATOM     30  C   UNL d   1      28.794 -12.473   8.770  0.00  0.00     0.036 A 
ATOM     31  C   UNL d   1      29.086 -13.754   8.293  0.00  0.00     0.103 A 
ATOM     32  C   UNL d   1      29.052 -14.031   6.928  0.00  0.00     0.047 A 
BRANCH  31  33
ATOM     33  N   UNL d   1      29.448 -14.836   9.209  0.00  0.00    -0.116 N 
ATOM     34  O   UNL d   1      30.648 -15.160   9.270  0.00  0.00    -0.532 OA
ATOM     35  O   UNL d   1      28.546 -15.358   9.872  0.00  0.00    -0.532 OA
ENDBRANCH  31  33
ENDBRANCH  26  27
ENDBRANCH  22  25
ENDBRANCH  19  21
ENDBRANCH   1  19
TORSDOF 11
ENDMDL
MODEL 8
REMARK VINA RESULT:    -8.635      3.701      4.524
REMARK INTER + INTRA:         -13.524
REMARK INTER:                 -11.916
REMARK INTRA:                  -1.608
REMARK CONF_INDEPENDENT:        3.281
REMARK UNBOUND:                -1.608
REMARK  11 active torsions:
REMARK  status: ('A' for Active; 'I' for Inactive)
REMARK    1  A    between atoms: C_2  and  C_3 
REMARK    2  A    between atoms: C_3  and  C_4 
REMARK    3  A    between atoms: C_4  and  C_5 
REMARK       I    between atoms: C_5  and  N_7 
REMARK    4  A    between atoms: N_7  and  C_8 
REMARK    5  A    between atoms: C_11  and  N_12 
REMARK    6  A    between atoms: N_12  and  C_13 
REMARK    7  A    between atoms: C_13  and  N_15 
REMARK       I    between atoms: N_15  and  C_16 
REMARK    8  A    between atoms: C_16  and  C_18 
REMARK    9  A    between atoms: C_19  and  C_20 
REMARK   10  A    between atoms: C_24  and  N_25 
REMARK   11  A    between atoms: C_30  and  O_31 
ROOT
ATOM      1  N   UNL d   1      28.348 -16.604  -1.966  0.00  0.00    -0.333 N 
ATOM      2  H   UNL d   1      29.055 -17.045  -1.386  0.00  0.00     0.168 HD
ENDROOT
BRANCH   1   3
ATOM      3  C   UNL d   1      26.979 -16.703  -1.415  0.00  0.00     0.037 C 
ATOM      4  C   UNL d   1      26.615 -17.536  -0.351  0.00  0.00     0.032 C 
ATOM      5  C   UNL d   1      25.231 -17.693   0.019  0.00  0.00     0.035 C 
ATOM      6  C   UNL d   1      24.189 -17.021  -0.659  0.00  0.00     0.068 C 
ATOM      7  C   UNL d   1      24.549 -16.098  -1.621  0.00  0.00     0.097 C 
ATOM      8  C   UNL d   1      25.907 -15.969  -1.924  0.00  0.00     0.068 C 
BRANCH   6   9
ATOM      9  N   UNL d   1      22.833 -17.298  -0.348  0.00  0.00    -0.325 N 
ATOM     10  C   UNL d   1      22.300 -18.553  -0.617  0.00  0.00     0.222 C 
ATOM     11  O   UNL d   1      22.995 -19.563  -0.710  0.00  0.00    -0.273 OA
ATOM     12  H   UNL d   1      22.241 -16.511  -0.120  0.00  0.00     0.169 HD
BRANCH  10  13
ATOM     13  C   UNL d   1      20.791 -18.592  -0.893  0.00  0.00     0.103 C 
BRANCH  13  14
ATOM     14  C   UNL d   1      20.188 -19.966  -0.523  0.00  0.00     0.009 C 
BRANCH  14  15
ATOM     15  C   UNL d   1      19.412 -19.929   0.789  0.00  0.00    -0.004 C 
ATOM     16  C   UNL d   1      18.505 -21.144   0.927  0.00  0.00     0.005 C 
ENDBRANCH  14  15
ENDBRANCH  13  14
ENDBRANCH  10  13
ENDBRANCH   6   9
BRANCH   7  17
ATOM     17  O   UNL d   1      23.836 -15.195  -2.363  0.00  0.00    -0.354 OA
ATOM     18  C   UNL d   1      24.460 -14.209  -3.141  0.00  0.00     0.210 C 
ENDBRANCH   7  17
ENDBRANCH   1   3
BRANCH   1  19
ATOM     19  C   UNL d   1      28.714 -16.104  -3.264  0.00  0.00     0.179 C 
ATOM     20  S   UNL d   1      29.733 -16.888  -4.362  0.00  0.00    -0.040 SA
BRANCH  19  21
ATOM     21  N   UNL d   1      28.163 -14.846  -3.638  0.00  0.00    -0.300 N 
ATOM     22  C   UNL d   1      27.382 -14.678  -4.807  0.00  0.00     0.247 C 
ATOM     23  O   UNL d   1      27.064 -15.558  -5.598  0.00  0.00    -0.268 OA
ATOM     24  H   UNL d   1      28.358 -14.029  -3.078  0.00  0.00     0.171 HD
BRANCH  22  25
ATOM     25  C   UNL d   1      26.856 -13.337  -5.156  0.00  0.00     0.075 C 
ATOM     26  C   UNL d   1      26.839 -12.435  -4.145  0.00  0.00     0.017 C 
BRANCH  26  27
ATOM     27  C   UNL d   1      26.285 -11.092  -4.278  0.00  0.00    -0.034 A 
ATOM     28  C   UNL d   1      25.815 -10.590  -5.500  0.00  0.00     0.011 A 
ATOM     29  C   UNL d   1      25.301  -9.290  -5.573  0.00  0.00     0.003 A 
ATOM     30  C   UNL d   1      25.222  -8.503  -4.422  0.00  0.00     0.036 A 
ATOM     31  C   UNL d   1      25.738  -8.995  -3.220  0.00  0.00     0.103 A 
ATOM     32  C   UNL d   1      26.287 -10.273  -3.152  0.00  0.00     0.047 A 
BRANCH  31  33
ATOM     33  N   UNL d   1      25.728  -8.181  -2.004  0.00  0.00    -0.116 N 
ATOM     34  O   UNL d   1      25.155  -7.078  -2.057  0.00  0.00    -0.532 OA
ATOM     35  O   UNL d   1      26.280  -8.637  -0.998  0.00  0.00    -0.532 OA
ENDBRANCH  31  33
ENDBRANCH  26  27
ENDBRANCH  22  25
ENDBRANCH  19  21
ENDBRANCH   1  19
TORSDOF 11
ENDMDL
MODEL 9
REMARK VINA RESULT:    -8.428      1.972      2.480
REMARK INTER + INTRA:         -13.237
REMARK INTER:                 -11.709
REMARK INTRA:                  -1.528
REMARK CONF_INDEPENDENT:        3.281
REMARK UNBOUND:                -1.528
REMARK  11 active torsions:
REMARK  status: ('A' for Active; 'I' for Inactive)
REMARK    1  A    between atoms: C_2  and  C_3 
REMARK    2  A    between atoms: C_3  and  C_4 
REMARK    3  A    between atoms: C_4  and  C_5 
REMARK       I    between atoms: C_5  and  N_7 
REMARK    4  A    between atoms: N_7  and  C_8 
REMARK    5  A    between atoms: C_11  and  N_12 
REMARK    6  A    between atoms: N_12  and  C_13 
REMARK    7  A    between atoms: C_13  and  N_15 
REMARK       I    between atoms: N_15  and  C_16 
REMARK    8  A    between atoms: C_16  and  C_18 
REMARK    9  A    between atoms: C_19  and  C_20 
REMARK   10  A    between atoms: C_24  and  N_25 
REMARK   11  A    between atoms: C_30  and  O_31 
ROOT
ATOM      1  N   UNL d   1      29.011 -16.102   0.168  0.00  0.00    -0.333 N 
ATOM      2  H   UNL d   1      29.531 -16.375   0.995  0.00  0.00     0.168 HD
ENDROOT
BRANCH   1   3
ATOM      3  C   UNL d   1      27.671 -16.721   0.076  0.00  0.00     0.037 C 
ATOM      4  C   UNL d   1      27.347 -17.981   0.591  0.00  0.00     0.032 C 
ATOM      5  C   UNL d   1      26.064 -18.578   0.318  0.00  0.00     0.035 C 
ATOM      6  C   UNL d   1      25.082 -17.930  -0.466  0.00  0.00     0.068 C 
ATOM      7  C   UNL d   1      25.343 -16.635  -0.866  0.00  0.00     0.097 C 
ATOM      8  C   UNL d   1      26.594 -16.096  -0.555  0.00  0.00     0.068 C 
BRANCH   6   9
ATOM      9  N   UNL d   1      23.883 -18.603  -0.817  0.00  0.00    -0.325 N 
ATOM     10  C   UNL d   1      22.673 -18.204  -0.260  0.00  0.00     0.222 C 
ATOM     11  O   UNL d   1      22.486 -17.071   0.178  0.00  0.00    -0.273 OA
ATOM     12  H   UNL d   1      23.973 -19.480  -1.311  0.00  0.00     0.169 HD
BRANCH  10  13
ATOM     13  C   UNL d   1      21.606 -19.299  -0.132  0.00  0.00     0.103 C 
BRANCH  13  14
ATOM     14  C   UNL d   1      20.323 -18.925  -0.908  0.00  0.00     0.009 C 
BRANCH  14  15
ATOM     15  C   UNL d   1      19.109 -19.726  -0.451  0.00  0.00    -0.004 C 
ATOM     16  C   UNL d   1      19.493 -20.752   0.606  0.00  0.00     0.005 C 
ENDBRANCH  14  15
ENDBRANCH  13  14
ENDBRANCH  10  13
ENDBRANCH   6   9
BRANCH   7  17
ATOM     17  O   UNL d   1      24.592 -15.685  -1.505  0.00  0.00    -0.354 OA
ATOM     18  C   UNL d   1      24.957 -15.157  -2.752  0.00  0.00     0.210 C 
ENDBRANCH   7  17
ENDBRANCH   1   3
BRANCH   1  19
ATOM     19  C   UNL d   1      29.663 -15.317  -0.847  0.00  0.00     0.179 C 
ATOM     20  S   UNL d   1      30.859 -15.881  -1.900  0.00  0.00    -0.040 SA
BRANCH  19  21
ATOM     21  N   UNL d   1      29.254 -13.959  -0.958  0.00  0.00    -0.300 N 
ATOM     22  C   UNL d   1      28.290 -13.532  -1.904  0.00  0.00     0.247 C 
ATOM     23  O   UNL d   1      27.683 -14.248  -2.692  0.00  0.00    -0.268 OA
ATOM     24  H   UNL d   1      29.685 -13.258  -0.373  0.00  0.00     0.171 HD
BRANCH  22  25
ATOM     25  C   UNL d   1      27.923 -12.099  -1.988  0.00  0.00     0.075 C 
ATOM     26  C   UNL d   1      27.859 -11.442  -0.804  0.00  0.00     0.017 C 
BRANCH  26  27
ATOM     27  C   UNL d   1      27.438 -10.050  -0.682  0.00  0.00    -0.034 A 
ATOM     28  C   UNL d   1      27.612  -9.118  -1.715  0.00  0.00     0.011 A 
ATOM     29  C   UNL d   1      27.197  -7.793  -1.540  0.00  0.00     0.003 A 
ATOM     30  C   UNL d   1      26.578  -7.404  -0.351  0.00  0.00     0.036 A 
ATOM     31  C   UNL d   1      26.454  -8.328   0.690  0.00  0.00     0.103 A 
ATOM     32  C   UNL d   1      26.902  -9.638   0.535  0.00  0.00     0.047 A 
BRANCH  31  33
ATOM     33  N   UNL d   1      25.864  -7.946   1.973  0.00  0.00    -0.116 N 
ATOM     34  O   UNL d   1      25.540  -6.754   2.124  0.00  0.00    -0.532 OA
ATOM     35  O   UNL d   1      25.715  -8.827   2.826  0.00  0.00    -0.532 OA
ENDBRANCH  31  33
ENDBRANCH  26  27
ENDBRANCH  22  25
ENDBRANCH  19  21
ENDBRANCH   1  19
TORSDOF 11
ENDMDL
