MODEL 1
REMARK VINA RESULT:   -22.804      0.000      0.000
REMARK INTER + INTRA:         -25.359
REMARK INTER:                 -24.295
REMARK INTRA:                  -1.064
REMARK CONF_INDEPENDENT:        1.492
REMARK UNBOUND:                -1.064
REMARK  5 active torsions:
REMARK  status: ('A' for Active; 'I' for Inactive)
REMARK    1  A    between atoms: O_1  and  C_2 
REMARK    2  A    between atoms: C_5  and  C_6 
REMARK    3  A    between atoms: N_7  and  C_8 
REMARK    4  A    between atoms: C_11  and  O_12 
REMARK    5  A    between atoms: C_13  and  C_14 
ROOT
ATOM      1  C   UNL d   1      24.308 -17.022  -0.631  0.00  0.00     0.057 A 
ATOM      2  C   UNL d   1      23.947 -15.818  -1.248  0.00  0.00     0.034 A 
ATOM      3  C   UNL d   1      22.610 -15.537  -1.557  0.00  0.00     0.040 A 
ATOM      4  C   UNL d   1      21.616 -16.474  -1.270  0.00  0.00     0.080 A 
ATOM      5  C   UNL d   1      21.944 -17.691  -0.661  0.00  0.00     0.052 A 
ATOM      6  C   UNL d   1      23.294 -17.950  -0.351  0.00  0.00     0.050 A 
ENDROOT
BRANCH   1   7
ATOM      7  N   UNL d   1      25.644 -17.371  -0.351  0.00  0.00    -0.260 NA
ATOM      8  C   UNL d   1      26.602 -16.527  -0.599  0.00  0.00     0.128 C 
BRANCH   8   9
ATOM      9  C   UNL d   1      28.028 -16.856  -0.338  0.00  0.00    -0.018 A 
ATOM     10  C   UNL d   1      28.839 -15.936   0.341  0.00  0.00     0.015 A 
ATOM     11  C   UNL d   1      30.189 -16.232   0.585  0.00  0.00     0.037 A 
ATOM     12  C   UNL d   1      30.715 -17.444   0.146  0.00  0.00     0.065 A 
ATOM     13  C   UNL d   1      29.914 -18.365  -0.522  0.00  0.00     0.037 A 
ATOM     14  C   UNL d   1      28.570 -18.072  -0.767  0.00  0.00     0.015 A 
BRANCH  12  15
ATOM     15  O   UNL d   1      32.023 -17.772   0.350  0.00  0.00    -0.361 OA
ATOM     16  H   UNL d   1      32.081 -18.414   1.075  0.00  0.00     0.217 HD
ENDBRANCH  12  15
ENDBRANCH   8   9
ENDBRANCH   1   7
BRANCH   5  17
ATOM     17  C   UNL d   1      20.910 -18.602  -0.189  0.00  0.00     0.183 A 
ATOM     18  N   UNL d   1      19.905 -19.085  -0.895  0.00  0.00    -0.221 NA
ATOM     19  C   UNL d   1      19.307 -19.968  -0.042  0.00  0.00     0.093 A 
ATOM     20  C   UNL d   1      18.221 -20.825  -0.252  0.00  0.00     0.034 A 
ATOM     21  C   UNL d   1      19.936 -19.950   1.192  0.00  0.00     0.106 A 
ATOM     22  C   UNL d   1      17.795 -21.628   0.812  0.00  0.00     0.002 A 
ATOM     23  C   UNL d   1      18.438 -21.573   2.055  0.00  0.00     0.003 A 
ATOM     24  C   UNL d   1      19.538 -20.727   2.278  0.00  0.00     0.040 A 
ATOM     25  O   UNL d   1      20.980 -19.062   1.108  0.00  0.00    -0.289 OA
ENDBRANCH   5  17
BRANCH   4  26
ATOM     26  O   UNL d   1      20.306 -16.187  -1.540  0.00  0.00    -0.360 OA
ATOM     27  H   UNL d   1      19.764 -16.986  -1.445  0.00  0.00     0.217 HD
ENDBRANCH   4  26
TORSDOF 5
ENDMDL
MODEL 2
REMARK VINA RESULT:   -20.475      2.735      3.310
REMARK INTER + INTRA:         -23.020
REMARK INTER:                 -21.967
REMARK INTRA:                  -1.053
REMARK CONF_INDEPENDENT:        1.492
REMARK UNBOUND:                -1.053
REMARK  5 active torsions:
REMARK  status: ('A' for Active; 'I' for Inactive)
REMARK    1  A    between atoms: O_1  and  C_2 
REMARK    2  A    between atoms: C_5  and  C_6 
REMARK    3  A    between atoms: N_7  and  C_8 
REMARK    4  A    between atoms: C_11  and  O_12 
REMARK    5  A    between atoms: C_13  and  C_14 
ROOT
ATOM      1  C   UNL d   1      23.883 -16.584  -0.557  0.00  0.00     0.057 A 
ATOM      2  C   UNL d   1      24.364 -16.926  -1.827  0.00  0.00     0.034 A 
ATOM      3  C   UNL d   1      23.787 -17.970  -2.562  0.00  0.00     0.040 A 
ATOM      4  C   UNL d   1      22.729 -18.702  -2.020  0.00  0.00     0.080 A 
ATOM      5  C   UNL d   1      22.228 -18.391  -0.751  0.00  0.00     0.052 A 
ATOM      6  C   UNL d   1      22.818 -17.332  -0.032  0.00  0.00     0.050 A 
ENDROOT
BRANCH   1   7
ATOM      7  N   UNL d   1      24.465 -15.580   0.240  0.00  0.00    -0.260 NA
ATOM      8  C   UNL d   1      25.738 -15.331   0.145  0.00  0.00     0.128 C 
BRANCH   8   9
ATOM      9  C   UNL d   1      26.403 -14.294   0.977  0.00  0.00    -0.018 A 
ATOM     10  C   UNL d   1      27.508 -14.641   1.768  0.00  0.00     0.015 A 
ATOM     11  C   UNL d   1      28.137 -13.672   2.564  0.00  0.00     0.037 A 
ATOM     12  C   UNL d   1      27.654 -12.366   2.564  0.00  0.00     0.065 A 
ATOM     13  C   UNL d   1      26.564 -12.012   1.777  0.00  0.00     0.037 A 
ATOM     14  C   UNL d   1      25.934 -12.976   0.983  0.00  0.00     0.015 A 
BRANCH  12  15
ATOM     15  O   UNL d   1      28.226 -11.393   3.330  0.00  0.00    -0.361 OA
ATOM     16  H   UNL d   1      29.012 -11.050   2.875  0.00  0.00     0.217 HD
ENDBRANCH  12  15
ENDBRANCH   8   9
ENDBRANCH   1   7
BRANCH   5  17
ATOM     17  C   UNL d   1      21.015 -19.017  -0.243  0.00  0.00     0.183 A 
ATOM     18  N   UNL d   1      19.905 -19.245  -0.920  0.00  0.00    -0.221 NA
ATOM     19  C   UNL d   1      19.130 -19.946  -0.041  0.00  0.00     0.093 A 
ATOM     20  C   UNL d   1      17.863 -20.512  -0.215  0.00  0.00     0.034 A 
ATOM     21  C   UNL d   1      19.775 -20.071   1.179  0.00  0.00     0.106 A 
ATOM     22  C   UNL d   1      17.279 -21.176   0.870  0.00  0.00     0.002 A 
ATOM     23  C   UNL d   1      17.947 -21.268   2.098  0.00  0.00     0.003 A 
ATOM     24  C   UNL d   1      19.225 -20.716   2.285  0.00  0.00     0.040 A 
ATOM     25  O   UNL d   1      21.002 -19.467   1.060  0.00  0.00    -0.289 OA
ENDBRANCH   5  17
BRANCH   4  26
ATOM     26  O   UNL d   1      22.141 -19.699  -2.750  0.00  0.00    -0.360 OA
ATOM     27  H   UNL d   1      21.176 -19.642  -2.675  0.00  0.00     0.217 HD
ENDBRANCH   4  26
TORSDOF 5
ENDMDL
