MODEL 1
REMARK VINA RESULT:   -29.796      0.000      0.000
REMARK INTER + INTRA:         -31.294
REMARK INTER:                 -30.691
REMARK INTRA:                  -0.603
REMARK CONF_INDEPENDENT:        0.895
REMARK UNBOUND:                -0.603
REMARK  3 active torsions:
REMARK  status: ('A' for Active; 'I' for Inactive)
REMARK    1  A    between atoms: C_7  and  N_8 
REMARK    2  A    between atoms: N_8  and  N_9 
REMARK       I    between atoms: N_9  and  C_10 
REMARK       I    between atoms: C_10  and  N_12 
REMARK    3  A    between atoms: N_12  and  C_13 
ROOT
ATOM      1  N   UNL d   1      19.905 -18.862  -0.895  0.00  0.00    -0.191 NA
ATOM      2  C   UNL d   1      21.009 -18.560  -0.733  0.00  0.00     0.099 C 
ATOM      3  C   UNL d   1      22.384 -18.173  -0.585  0.00  0.00     0.046 A 
ATOM      4  C   UNL d   1      23.256 -18.933   0.187  0.00  0.00     0.023 A 
ATOM      5  C   UNL d   1      24.601 -18.575   0.239  0.00  0.00     0.004 A 
ATOM      6  C   UNL d   1      25.066 -17.457  -0.486  0.00  0.00     0.031 A 
ATOM      7  C   UNL d   1      24.192 -16.653  -1.253  0.00  0.00     0.049 A 
ATOM      8  C   UNL d   1      22.847 -17.039  -1.270  0.00  0.00     0.053 A 
ENDROOT
BRANCH   7   9
ATOM      9  N   UNL d   1      24.667 -15.538  -1.966  0.00  0.00    -0.297 N 
ATOM     10  H   UNL d   1      24.098 -14.696  -2.075  0.00  0.00     0.187 HD
BRANCH   9  11
ATOM     11  N   UNL d   1      25.945 -15.523  -2.593  0.00  0.00    -0.251 N 
ATOM     12  C   UNL d   1      26.068 -14.944  -3.848  0.00  0.00     0.335 C 
ATOM     13  O   UNL d   1      25.101 -14.450  -4.426  0.00  0.00    -0.246 OA
ATOM     14  N   UNL d   1      27.358 -14.954  -4.386  0.00  0.00    -0.337 N 
ATOM     15  H   UNL d   1      28.127 -15.352  -3.868  0.00  0.00     0.164 HD
ATOM     16  H   UNL d   1      26.726 -15.948  -2.124  0.00  0.00     0.191 HD
BRANCH  14  17
ATOM     17  C   UNL d   1      27.629 -14.286  -5.681  0.00  0.00     0.086 C 
ATOM     18  C   UNL d   1      27.319 -12.784  -5.569  0.00  0.00     0.025 C 
ATOM     19  C   UNL d   1      27.480 -12.044  -6.889  0.00  0.00     0.002 C 
ATOM     20  C   UNL d   1      28.880 -12.215  -7.454  0.00  0.00     0.000 C 
ATOM     21  C   UNL d   1      29.218 -13.695  -7.594  0.00  0.00     0.002 C 
ATOM     22  C   UNL d   1      29.060 -14.454  -6.257  0.00  0.00     0.025 C 
ENDBRANCH  14  17
ENDBRANCH   9  11
ENDBRANCH   7   9
TORSDOF 3
ENDMDL
MODEL 2
REMARK VINA RESULT:   -29.261      1.463      1.813
REMARK INTER + INTRA:         -30.903
REMARK INTER:                 -30.156
REMARK INTRA:                  -0.747
REMARK CONF_INDEPENDENT:        0.895
REMARK UNBOUND:                -0.747
REMARK  3 active torsions:
REMARK  status: ('A' for Active; 'I' for Inactive)
REMARK    1  A    between atoms: C_7  and  N_8 
REMARK    2  A    between atoms: N_8  and  N_9 
REMARK       I    between atoms: N_9  and  C_10 
REMARK       I    between atoms: C_10  and  N_12 
REMARK    3  A    between atoms: N_12  and  C_13 
ROOT
ATOM      1  N   UNL d   1      19.905 -18.718  -0.895  0.00  0.00    -0.191 NA
ATOM      2  C   UNL d   1      21.035 -18.517  -0.753  0.00  0.00     0.099 C 
ATOM      3  C   UNL d   1      22.438 -18.242  -0.623  0.00  0.00     0.046 A 
ATOM      4  C   UNL d   1      23.316 -19.224  -0.178  0.00  0.00     0.023 A 
ATOM      5  C   UNL d   1      24.681 -18.947  -0.145  0.00  0.00     0.004 A 
ATOM      6  C   UNL d   1      25.158 -17.686  -0.561  0.00  0.00     0.031 A 
ATOM      7  C   UNL d   1      24.281 -16.663  -0.988  0.00  0.00     0.049 A 
ATOM      8  C   UNL d   1      22.918 -16.976  -0.995  0.00  0.00     0.053 A 
ENDROOT
BRANCH   7   9
ATOM      9  N   UNL d   1      24.770 -15.408  -1.394  0.00  0.00    -0.297 N 
ATOM     10  H   UNL d   1      25.399 -14.865  -0.799  0.00  0.00     0.187 HD
BRANCH   9  11
ATOM     11  N   UNL d   1      24.405 -14.814  -2.636  0.00  0.00    -0.251 N 
ATOM     12  C   UNL d   1      25.256 -13.877  -3.205  0.00  0.00     0.335 C 
ATOM     13  O   UNL d   1      26.310 -13.552  -2.661  0.00  0.00    -0.246 OA
ATOM     14  N   UNL d   1      24.834 -13.355  -4.431  0.00  0.00    -0.337 N 
ATOM     15  H   UNL d   1      23.970 -13.666  -4.851  0.00  0.00     0.164 HD
ATOM     16  H   UNL d   1      23.531 -15.069  -3.063  0.00  0.00     0.191 HD
BRANCH  14  17
ATOM     17  C   UNL d   1      25.701 -12.414  -5.176  0.00  0.00     0.086 C 
ATOM     18  C   UNL d   1      25.873 -11.114  -4.372  0.00  0.00     0.025 C 
ATOM     19  C   UNL d   1      26.674 -10.056  -5.117  0.00  0.00     0.002 C 
ATOM     20  C   UNL d   1      28.047 -10.574  -5.511  0.00  0.00     0.000 C 
ATOM     21  C   UNL d   1      27.916 -11.857  -6.325  0.00  0.00     0.002 C 
ATOM     22  C   UNL d   1      27.106 -12.939  -5.574  0.00  0.00     0.025 C 
ENDBRANCH  14  17
ENDBRANCH   9  11
ENDBRANCH   7   9
TORSDOF 3
ENDMDL
MODEL 3
REMARK VINA RESULT:   -28.259      4.071      5.353
REMARK INTER + INTRA:         -29.690
REMARK INTER:                 -29.154
REMARK INTRA:                  -0.536
REMARK CONF_INDEPENDENT:        0.895
REMARK UNBOUND:                -0.536
REMARK  3 active torsions:
REMARK  status: ('A' for Active; 'I' for Inactive)
REMARK    1  A    between atoms: C_7  and  N_8 
REMARK    2  A    between atoms: N_8  and  N_9 
REMARK       I    between atoms: N_9  and  C_10 
REMARK       I    between atoms: C_10  and  N_12 
REMARK    3  A    between atoms: N_12  and  C_13 
ROOT
ATOM      1  N   UNL d   1      19.905 -18.693  -0.904  0.00  0.00    -0.191 NA
ATOM      2  C   UNL d   1      21.033 -18.471  -0.778  0.00  0.00     0.099 C 
ATOM      3  C   UNL d   1      22.432 -18.170  -0.670  0.00  0.00     0.046 A 
ATOM      4  C   UNL d   1      23.322 -19.108  -0.155  0.00  0.00     0.023 A 
ATOM      5  C   UNL d   1      24.684 -18.814  -0.145  0.00  0.00     0.004 A 
ATOM      6  C   UNL d   1      25.147 -17.582  -0.654  0.00  0.00     0.031 A 
ATOM      7  C   UNL d   1      24.258 -16.603  -1.153  0.00  0.00     0.049 A 
ATOM      8  C   UNL d   1      22.899 -16.931  -1.135  0.00  0.00     0.053 A 
ENDROOT
BRANCH   7   9
ATOM      9  N   UNL d   1      24.733 -15.376  -1.651  0.00  0.00    -0.297 N 
ATOM     10  H   UNL d   1      24.102 -14.701  -2.088  0.00  0.00     0.187 HD
BRANCH   9  11
ATOM     11  N   UNL d   1      26.109 -15.013  -1.598  0.00  0.00    -0.251 N 
ATOM     12  C   UNL d   1      26.615 -14.481  -0.421  0.00  0.00     0.335 C 
ATOM     13  O   UNL d   1      25.904 -14.316   0.568  0.00  0.00    -0.246 OA
ATOM     14  N   UNL d   1      27.977 -14.168  -0.446  0.00  0.00    -0.337 N 
ATOM     15  H   UNL d   1      28.529 -14.339  -1.274  0.00  0.00     0.164 HD
ATOM     16  H   UNL d   1      26.678 -15.131  -2.418  0.00  0.00     0.191 HD
BRANCH  14  17
ATOM     17  C   UNL d   1      28.650 -13.676   0.779  0.00  0.00     0.086 C 
ATOM     18  C   UNL d   1      27.886 -12.467   1.344  0.00  0.00     0.025 C 
ATOM     19  C   UNL d   1      28.571 -11.843   2.551  0.00  0.00     0.002 C 
ATOM     20  C   UNL d   1      28.770 -12.858   3.663  0.00  0.00     0.000 C 
ATOM     21  C   UNL d   1      29.540 -14.069   3.144  0.00  0.00     0.002 C 
ATOM     22  C   UNL d   1      28.849 -14.711   1.919  0.00  0.00     0.025 C 
ENDBRANCH  14  17
ENDBRANCH   9  11
ENDBRANCH   7   9
TORSDOF 3
ENDMDL
MODEL 4
REMARK VINA RESULT:   -28.084      2.710      3.542
REMARK INTER + INTRA:         -29.425
REMARK INTER:                 -28.979
REMARK INTRA:                  -0.446
REMARK CONF_INDEPENDENT:        0.895
REMARK UNBOUND:                -0.446
REMARK  3 active torsions:
REMARK  status: ('A' for Active; 'I' for Inactive)
REMARK    1  A    between atoms: C_7  and  N_8 
REMARK    2  A    between atoms: N_8  and  N_9 
REMARK       I    between atoms: N_9  and  C_10 
REMARK       I    between atoms: C_10  and  N_12 
REMARK    3  A    between atoms: N_12  and  C_13 
ROOT
ATOM      1  N   UNL d   1      19.905 -18.882  -1.002  0.00  0.00    -0.191 NA
ATOM      2  C   UNL d   1      20.996 -18.562  -0.791  0.00  0.00     0.099 C 
ATOM      3  C   UNL d   1      22.354 -18.147  -0.581  0.00  0.00     0.046 A 
ATOM      4  C   UNL d   1      23.243 -18.956   0.120  0.00  0.00     0.023 A 
ATOM      5  C   UNL d   1      24.574 -18.560   0.231  0.00  0.00     0.004 A 
ATOM      6  C   UNL d   1      25.008 -17.357  -0.364  0.00  0.00     0.031 A 
ATOM      7  C   UNL d   1      24.116 -16.505  -1.054  0.00  0.00     0.049 A 
ATOM      8  C   UNL d   1      22.786 -16.932  -1.134  0.00  0.00     0.053 A 
ENDROOT
BRANCH   7   9
ATOM      9  N   UNL d   1      24.560 -15.304  -1.638  0.00  0.00    -0.297 N 
ATOM     10  H   UNL d   1      23.943 -14.740  -2.224  0.00  0.00     0.187 HD
BRANCH   9  11
ATOM     11  N   UNL d   1      25.888 -14.820  -1.467  0.00  0.00    -0.251 N 
ATOM     12  C   UNL d   1      26.946 -15.596  -1.919  0.00  0.00     0.335 C 
ATOM     13  O   UNL d   1      26.761 -16.685  -2.458  0.00  0.00    -0.246 OA
ATOM     14  N   UNL d   1      28.215 -15.042  -1.730  0.00  0.00    -0.337 N 
ATOM     15  H   UNL d   1      28.321 -14.134  -1.300  0.00  0.00     0.164 HD
ATOM     16  H   UNL d   1      26.033 -13.939  -1.005  0.00  0.00     0.191 HD
BRANCH  14  17
ATOM     17  C   UNL d   1      29.416 -15.737  -2.251  0.00  0.00     0.086 C 
ATOM     18  C   UNL d   1      29.583 -17.091  -1.541  0.00  0.00     0.025 C 
ATOM     19  C   UNL d   1      30.852 -17.824  -1.953  0.00  0.00     0.002 C 
ATOM     20  C   UNL d   1      30.900 -18.049  -3.454  0.00  0.00     0.000 C 
ATOM     21  C   UNL d   1      30.752 -16.724  -4.194  0.00  0.00     0.002 C 
ATOM     22  C   UNL d   1      29.464 -15.973  -3.784  0.00  0.00     0.025 C 
ENDBRANCH  14  17
ENDBRANCH   9  11
ENDBRANCH   7   9
TORSDOF 3
ENDMDL
MODEL 5
REMARK VINA RESULT:   -27.575      2.548      3.036
REMARK INTER + INTRA:         -29.285
REMARK INTER:                 -28.470
REMARK INTRA:                  -0.814
REMARK CONF_INDEPENDENT:        0.895
REMARK UNBOUND:                -0.814
REMARK  3 active torsions:
REMARK  status: ('A' for Active; 'I' for Inactive)
REMARK    1  A    between atoms: C_7  and  N_8 
REMARK    2  A    between atoms: N_8  and  N_9 
REMARK       I    between atoms: N_9  and  C_10 
REMARK       I    between atoms: C_10  and  N_12 
REMARK    3  A    between atoms: N_12  and  C_13 
ROOT
ATOM      1  N   UNL d   1      19.904 -18.576  -0.901  0.00  0.00    -0.191 NA
ATOM      2  C   UNL d   1      21.036 -18.373  -0.784  0.00  0.00     0.099 C 
ATOM      3  C   UNL d   1      22.442 -18.099  -0.689  0.00  0.00     0.046 A 
ATOM      4  C   UNL d   1      23.313 -19.036  -0.142  0.00  0.00     0.023 A 
ATOM      5  C   UNL d   1      24.680 -18.771  -0.144  0.00  0.00     0.004 A 
ATOM      6  C   UNL d   1      25.168 -17.568  -0.697  0.00  0.00     0.031 A 
ATOM      7  C   UNL d   1      24.300 -16.589  -1.230  0.00  0.00     0.049 A 
ATOM      8  C   UNL d   1      22.934 -16.887  -1.200  0.00  0.00     0.053 A 
ENDROOT
BRANCH   7   9
ATOM      9  N   UNL d   1      24.800 -15.391  -1.773  0.00  0.00    -0.297 N 
ATOM     10  H   UNL d   1      24.471 -15.039  -2.674  0.00  0.00     0.187 HD
BRANCH   9  11
ATOM     11  N   UNL d   1      25.800 -14.617  -1.119  0.00  0.00    -0.251 N 
ATOM     12  C   UNL d   1      26.414 -13.589  -1.820  0.00  0.00     0.335 C 
ATOM     13  O   UNL d   1      26.116 -13.337  -2.986  0.00  0.00    -0.246 OA
ATOM     14  N   UNL d   1      27.371 -12.866  -1.101  0.00  0.00    -0.337 N 
ATOM     15  H   UNL d   1      27.570 -13.094  -0.138  0.00  0.00     0.164 HD
ATOM     16  H   UNL d   1      26.053 -14.843  -0.173  0.00  0.00     0.191 HD
BRANCH  14  17
ATOM     17  C   UNL d   1      28.030 -11.690  -1.715  0.00  0.00     0.086 C 
ATOM     18  C   UNL d   1      28.909 -12.142  -2.894  0.00  0.00     0.025 C 
ATOM     19  C   UNL d   1      29.698 -10.999  -3.518  0.00  0.00     0.002 C 
ATOM     20  C   UNL d   1      28.781  -9.883  -3.989  0.00  0.00     0.000 C 
ATOM     21  C   UNL d   1      27.902  -9.398  -2.840  0.00  0.00     0.002 C 
ATOM     22  C   UNL d   1      27.095 -10.552  -2.203  0.00  0.00     0.025 C 
ENDBRANCH  14  17
ENDBRANCH   9  11
ENDBRANCH   7   9
TORSDOF 3
ENDMDL
