MODEL 1
REMARK VINA RESULT:    -9.142      0.000      0.000
REMARK INTER + INTRA:         -14.590
REMARK INTER:                 -12.722
REMARK INTRA:                  -1.868
REMARK CONF_INDEPENDENT:        3.580
REMARK UNBOUND:                -1.868
REMARK  12 active torsions:
REMARK  status: ('A' for Active; 'I' for Inactive)
REMARK    1  A    between atoms: C_2  and  C_3 
REMARK    2  A    between atoms: C_3  and  C_4 
REMARK    3  A    between atoms: C_4  and  C_5 
REMARK    4  A    between atoms: C_5  and  C_6 
REMARK    5  A    between atoms: C_6  and  O_7 
REMARK    6  A    between atoms: O_7  and  C_8 
REMARK    7  A    between atoms: C_13  and  C_14 
REMARK       I    between atoms: C_14  and  N_16 
REMARK    8  A    between atoms: N_16  and  N_17 
REMARK       I    between atoms: N_17  and  C_18 
REMARK    9  A    between atoms: C_18  and  C_20 
REMARK   10  A    between atoms: C_20  and  C_21 
REMARK   11  A    between atoms: C_21  and  C_22 
REMARK       I    between atoms: C_22  and  N_24 
REMARK   12  A    between atoms: N_24  and  C_25 
ROOT
ATOM      1  N   UNL d   1      29.840 -18.663  -0.522  0.00  0.00    -0.267 N 
ATOM      2  C   UNL d   1      31.167 -18.506  -0.938  0.00  0.00     0.236 C 
ATOM      3  O   UNL d   1      31.589 -17.469  -1.408  0.00  0.00    -0.272 OA
ATOM      4  H   UNL d   1      29.525 -19.446   0.046  0.00  0.00     0.190 HD
ENDROOT
BRANCH   1   5
ATOM      5  N   UNL d   1      28.934 -17.526  -0.577  0.00  0.00    -0.263 N 
ATOM      6  C   UNL d   1      27.585 -17.750  -0.265  0.00  0.00     0.272 C 
ATOM      7  O   UNL d   1      27.252 -18.640   0.514  0.00  0.00    -0.266 OA
ATOM      8  H   UNL d   1      29.191 -16.805  -1.249  0.00  0.00     0.190 HD
BRANCH   6   9
ATOM      9  C   UNL d   1      26.512 -16.900  -0.920  0.00  0.00     0.067 A 
ATOM     10  C   UNL d   1      26.913 -15.662  -1.479  0.00  0.00     0.020 A 
ATOM     11  C   UNL d   1      26.015 -14.829  -2.169  0.00  0.00     0.001 A 
ATOM     12  C   UNL d   1      24.690 -15.214  -2.316  0.00  0.00     0.003 A 
ATOM     13  C   UNL d   1      24.253 -16.384  -1.694  0.00  0.00     0.038 A 
ATOM     14  C   UNL d   1      25.147 -17.218  -0.985  0.00  0.00     0.084 A 
BRANCH  14  15
ATOM     15  O   UNL d   1      24.588 -18.372  -0.520  0.00  0.00    -0.350 OA
BRANCH  15  16
ATOM     16  C   UNL d   1      23.374 -18.248   0.229  0.00  0.00     0.175 C 
BRANCH  16  17
ATOM     17  C   UNL d   1      22.427 -19.268  -0.390  0.00  0.00     0.027 C 
BRANCH  17  18
ATOM     18  C   UNL d   1      21.263 -18.600  -1.106  0.00  0.00     0.002 C 
BRANCH  18  19
ATOM     19  C   UNL d   1      19.960 -19.340  -0.809  0.00  0.00    -0.000 C 
BRANCH  19  20
ATOM     20  C   UNL d   1      20.155 -20.329   0.326  0.00  0.00    -0.005 C 
ATOM     21  C   UNL d   1      19.887 -19.727   1.685  0.00  0.00     0.005 C 
ENDBRANCH  19  20
ENDBRANCH  18  19
ENDBRANCH  17  18
ENDBRANCH  16  17
ENDBRANCH  15  16
ENDBRANCH  14  15
ENDBRANCH   6   9
ENDBRANCH   1   5
BRANCH   2  22
ATOM     22  C   UNL d   1      32.083 -19.717  -0.729  0.00  0.00     0.114 C 
BRANCH  22  23
ATOM     23  C   UNL d   1      31.381 -20.977  -0.179  0.00  0.00     0.112 C 
BRANCH  23  24
ATOM     24  C   UNL d   1      31.943 -21.487   1.129  0.00  0.00     0.222 C 
ATOM     25  O   UNL d   1      32.866 -22.296   1.129  0.00  0.00    -0.273 OA
ATOM     26  N   UNL d   1      31.392 -20.931   2.285  0.00  0.00    -0.326 N 
ATOM     27  H   UNL d   1      30.456 -20.537   2.270  0.00  0.00     0.169 HD
BRANCH  26  28
ATOM     28  C   UNL d   1      32.034 -21.058   3.552  0.00  0.00     0.056 A 
ATOM     29  C   UNL d   1      33.425 -20.868   3.642  0.00  0.00     0.033 A 
ATOM     30  C   UNL d   1      34.093 -21.056   4.866  0.00  0.00     0.026 A 
ATOM     31  C   UNL d   1      33.369 -21.384   6.009  0.00  0.00     0.035 A 
ATOM     32 CL   UNL d   1      34.160 -21.551   7.528  0.00  0.00    -0.084 Cl
ATOM     33  C   UNL d   1      31.997 -21.582   5.937  0.00  0.00     0.050 A 
ATOM     34  C   UNL d   1      31.333 -21.439   4.717  0.00  0.00     0.062 A 
ATOM     35 CL   UNL d   1      29.674 -21.948   4.726  0.00  0.00    -0.082 Cl
ENDBRANCH  26  28
ENDBRANCH  23  24
ENDBRANCH  22  23
ENDBRANCH   2  22
TORSDOF 12
ENDMDL
MODEL 2
REMARK VINA RESULT:    -8.923      5.739      7.979
REMARK INTER + INTRA:         -15.649
REMARK INTER:                 -12.503
REMARK INTRA:                  -3.146
REMARK CONF_INDEPENDENT:        3.580
REMARK UNBOUND:                -3.146
REMARK  12 active torsions:
REMARK  status: ('A' for Active; 'I' for Inactive)
REMARK    1  A    between atoms: C_2  and  C_3 
REMARK    2  A    between atoms: C_3  and  C_4 
REMARK    3  A    between atoms: C_4  and  C_5 
REMARK    4  A    between atoms: C_5  and  C_6 
REMARK    5  A    between atoms: C_6  and  O_7 
REMARK    6  A    between atoms: O_7  and  C_8 
REMARK    7  A    between atoms: C_13  and  C_14 
REMARK       I    between atoms: C_14  and  N_16 
REMARK    8  A    between atoms: N_16  and  N_17 
REMARK       I    between atoms: N_17  and  C_18 
REMARK    9  A    between atoms: C_18  and  C_20 
REMARK   10  A    between atoms: C_20  and  C_21 
REMARK   11  A    between atoms: C_21  and  C_22 
REMARK       I    between atoms: C_22  and  N_24 
REMARK   12  A    between atoms: N_24  and  C_25 
ROOT
ATOM      1  N   UNL d   1      25.233 -14.378  -4.060  0.00  0.00    -0.267 N 
ATOM      2  C   UNL d   1      25.602 -13.028  -4.039  0.00  0.00     0.236 C 
ATOM      3  O   UNL d   1      25.649 -12.376  -3.015  0.00  0.00    -0.272 OA
ATOM      4  H   UNL d   1      25.376 -14.981  -4.866  0.00  0.00     0.190 HD
ENDROOT
BRANCH   1   5
ATOM      5  N   UNL d   1      24.965 -15.065  -2.806  0.00  0.00    -0.263 N 
ATOM      6  C   UNL d   1      26.032 -15.235  -1.912  0.00  0.00     0.272 C 
ATOM      7  O   UNL d   1      26.963 -14.435  -1.875  0.00  0.00    -0.266 OA
ATOM      8  H   UNL d   1      24.216 -15.755  -2.846  0.00  0.00     0.190 HD
BRANCH   6   9
ATOM      9  C   UNL d   1      26.057 -16.443  -0.994  0.00  0.00     0.067 A 
ATOM     10  C   UNL d   1      27.269 -16.721  -0.316  0.00  0.00     0.020 A 
ATOM     11  C   UNL d   1      27.382 -17.772   0.610  0.00  0.00     0.001 A 
ATOM     12  C   UNL d   1      26.283 -18.575   0.880  0.00  0.00     0.003 A 
ATOM     13  C   UNL d   1      25.106 -18.377   0.156  0.00  0.00     0.038 A 
ATOM     14  C   UNL d   1      24.991 -17.331  -0.787  0.00  0.00     0.084 A 
BRANCH  14  15
ATOM     15  O   UNL d   1      23.749 -17.208  -1.339  0.00  0.00    -0.350 OA
BRANCH  15  16
ATOM     16  C   UNL d   1      23.015 -18.418  -1.559  0.00  0.00     0.175 C 
BRANCH  16  17
ATOM     17  C   UNL d   1      21.666 -18.182  -0.893  0.00  0.00     0.027 C 
BRANCH  17  18
ATOM     18  C   UNL d   1      21.328 -19.277   0.108  0.00  0.00     0.002 C 
BRANCH  18  19
ATOM     19  C   UNL d   1      19.973 -19.901  -0.223  0.00  0.00    -0.000 C 
BRANCH  19  20
ATOM     20  C   UNL d   1      19.146 -20.079   1.037  0.00  0.00    -0.005 C 
ATOM     21  C   UNL d   1      18.215 -21.266   0.968  0.00  0.00     0.005 C 
ENDBRANCH  19  20
ENDBRANCH  18  19
ENDBRANCH  17  18
ENDBRANCH  16  17
ENDBRANCH  15  16
ENDBRANCH  14  15
ENDBRANCH   6   9
ENDBRANCH   1   5
BRANCH   2  22
ATOM     22  C   UNL d   1      25.987 -12.418  -5.391  0.00  0.00     0.114 C 
BRANCH  22  23
ATOM     23  C   UNL d   1      27.431 -12.712  -5.852  0.00  0.00     0.112 C 
BRANCH  23  24
ATOM     24  C   UNL d   1      27.843 -14.161  -5.732  0.00  0.00     0.222 C 
ATOM     25  O   UNL d   1      27.029 -15.054  -5.947  0.00  0.00    -0.273 OA
ATOM     26  N   UNL d   1      29.189 -14.388  -5.435  0.00  0.00    -0.326 N 
ATOM     27  H   UNL d   1      29.736 -13.677  -4.959  0.00  0.00     0.169 HD
BRANCH  26  28
ATOM     28  C   UNL d   1      29.787 -15.669  -5.618  0.00  0.00     0.056 A 
ATOM     29  C   UNL d   1      30.249 -16.038  -6.895  0.00  0.00     0.033 A 
ATOM     30  C   UNL d   1      30.779 -17.323  -7.118  0.00  0.00     0.026 A 
ATOM     31  C   UNL d   1      30.894 -18.220  -6.059  0.00  0.00     0.035 A 
ATOM     32 CL   UNL d   1      31.602 -19.769  -6.299  0.00  0.00    -0.084 Cl
ATOM     33  C   UNL d   1      30.438 -17.874  -4.795  0.00  0.00     0.050 A 
ATOM     34  C   UNL d   1      29.871 -16.618  -4.575  0.00  0.00     0.062 A 
ATOM     35 CL   UNL d   1      29.129 -16.414  -3.019  0.00  0.00    -0.082 Cl
ENDBRANCH  26  28
ENDBRANCH  23  24
ENDBRANCH  22  23
ENDBRANCH   2  22
TORSDOF 12
ENDMDL
MODEL 3
REMARK VINA RESULT:    -8.453      5.412      7.358
REMARK INTER + INTRA:         -14.703
REMARK INTER:                 -12.032
REMARK INTRA:                  -2.671
REMARK CONF_INDEPENDENT:        3.580
REMARK UNBOUND:                -2.671
REMARK  12 active torsions:
REMARK  status: ('A' for Active; 'I' for Inactive)
REMARK    1  A    between atoms: C_2  and  C_3 
REMARK    2  A    between atoms: C_3  and  C_4 
REMARK    3  A    between atoms: C_4  and  C_5 
REMARK    4  A    between atoms: C_5  and  C_6 
REMARK    5  A    between atoms: C_6  and  O_7 
REMARK    6  A    between atoms: O_7  and  C_8 
REMARK    7  A    between atoms: C_13  and  C_14 
REMARK       I    between atoms: C_14  and  N_16 
REMARK    8  A    between atoms: N_16  and  N_17 
REMARK       I    between atoms: N_17  and  C_18 
REMARK    9  A    between atoms: C_18  and  C_20 
REMARK   10  A    between atoms: C_20  and  C_21 
REMARK   11  A    between atoms: C_21  and  C_22 
REMARK       I    between atoms: C_22  and  N_24 
REMARK   12  A    between atoms: N_24  and  C_25 
ROOT
ATOM      1  N   UNL d   1      26.818 -14.263  -4.138  0.00  0.00    -0.267 N 
ATOM      2  C   UNL d   1      27.138 -14.365  -5.497  0.00  0.00     0.236 C 
ATOM      3  O   UNL d   1      27.018 -15.398  -6.124  0.00  0.00    -0.272 OA
ATOM      4  H   UNL d   1      26.726 -13.373  -3.654  0.00  0.00     0.190 HD
ENDROOT
BRANCH   1   5
ATOM      5  N   UNL d   1      26.246 -15.411  -3.451  0.00  0.00    -0.263 N 
ATOM      6  C   UNL d   1      25.905 -15.259  -2.098  0.00  0.00     0.272 C 
ATOM      7  O   UNL d   1      25.575 -14.166  -1.645  0.00  0.00    -0.266 OA
ATOM      8  H   UNL d   1      26.547 -16.317  -3.804  0.00  0.00     0.190 HD
BRANCH   6   9
ATOM      9  C   UNL d   1      25.972 -16.457  -1.169  0.00  0.00     0.067 A 
ATOM     10  C   UNL d   1      27.222 -16.747  -0.569  0.00  0.00     0.020 A 
ATOM     11  C   UNL d   1      27.380 -17.790   0.360  0.00  0.00     0.001 A 
ATOM     12  C   UNL d   1      26.289 -18.572   0.711  0.00  0.00     0.003 A 
ATOM     13  C   UNL d   1      25.070 -18.363   0.064  0.00  0.00     0.038 A 
ATOM     14  C   UNL d   1      24.909 -17.326  -0.882  0.00  0.00     0.084 A 
BRANCH  14  15
ATOM     15  O   UNL d   1      23.635 -17.189  -1.352  0.00  0.00    -0.350 OA
BRANCH  15  16
ATOM     16  C   UNL d   1      22.576 -17.293  -0.393  0.00  0.00     0.175 C 
BRANCH  16  17
ATOM     17  C   UNL d   1      22.150 -18.755  -0.441  0.00  0.00     0.027 C 
BRANCH  17  18
ATOM     18  C   UNL d   1      20.888 -18.950  -1.268  0.00  0.00     0.002 C 
BRANCH  18  19
ATOM     19  C   UNL d   1      19.696 -19.245  -0.359  0.00  0.00    -0.000 C 
BRANCH  19  20
ATOM     20  C   UNL d   1      20.110 -20.151   0.786  0.00  0.00    -0.005 C 
ATOM     21  C   UNL d   1      18.976 -20.452   1.738  0.00  0.00     0.005 C 
ENDBRANCH  19  20
ENDBRANCH  18  19
ENDBRANCH  17  18
ENDBRANCH  16  17
ENDBRANCH  15  16
ENDBRANCH  14  15
ENDBRANCH   6   9
ENDBRANCH   1   5
BRANCH   2  22
ATOM     22  C   UNL d   1      27.617 -13.074  -6.171  0.00  0.00     0.114 C 
BRANCH  22  23
ATOM     23  C   UNL d   1      29.112 -13.057  -6.557  0.00  0.00     0.112 C 
BRANCH  23  24
ATOM     24  C   UNL d   1      29.940 -14.140  -5.906  0.00  0.00     0.222 C 
ATOM     25  O   UNL d   1      30.861 -13.842  -5.151  0.00  0.00    -0.273 OA
ATOM     26  N   UNL d   1      29.542 -15.452  -6.172  0.00  0.00    -0.326 N 
ATOM     27  H   UNL d   1      29.019 -15.669  -7.014  0.00  0.00     0.169 HD
BRANCH  26  28
ATOM     28  C   UNL d   1      30.003 -16.545  -5.381  0.00  0.00     0.056 A 
ATOM     29  C   UNL d   1      29.854 -16.496  -3.982  0.00  0.00     0.033 A 
ATOM     30  C   UNL d   1      30.363 -17.530  -3.174  0.00  0.00     0.026 A 
ATOM     31  C   UNL d   1      30.976 -18.633  -3.762  0.00  0.00     0.035 A 
ATOM     32 CL   UNL d   1      31.543 -19.937  -2.793  0.00  0.00    -0.084 Cl
ATOM     33  C   UNL d   1      31.136 -18.695  -5.139  0.00  0.00     0.050 A 
ATOM     34  C   UNL d   1      30.673 -17.654  -5.944  0.00  0.00     0.062 A 
ATOM     35 CL   UNL d   1      31.153 -17.750  -7.609  0.00  0.00    -0.082 Cl
ENDBRANCH  26  28
ENDBRANCH  23  24
ENDBRANCH  22  23
ENDBRANCH   2  22
TORSDOF 12
ENDMDL
MODEL 4
REMARK VINA RESULT:    -8.226      5.843      7.679
REMARK INTER + INTRA:         -15.473
REMARK INTER:                 -11.805
REMARK INTRA:                  -3.668
REMARK CONF_INDEPENDENT:        3.580
REMARK UNBOUND:                -3.668
REMARK  12 active torsions:
REMARK  status: ('A' for Active; 'I' for Inactive)
REMARK    1  A    between atoms: C_2  and  C_3 
REMARK    2  A    between atoms: C_3  and  C_4 
REMARK    3  A    between atoms: C_4  and  C_5 
REMARK    4  A    between atoms: C_5  and  C_6 
REMARK    5  A    between atoms: C_6  and  O_7 
REMARK    6  A    between atoms: O_7  and  C_8 
REMARK    7  A    between atoms: C_13  and  C_14 
REMARK       I    between atoms: C_14  and  N_16 
REMARK    8  A    between atoms: N_16  and  N_17 
REMARK       I    between atoms: N_17  and  C_18 
REMARK    9  A    between atoms: C_18  and  C_20 
REMARK   10  A    between atoms: C_20  and  C_21 
REMARK   11  A    between atoms: C_21  and  C_22 
REMARK       I    between atoms: C_22  and  N_24 
REMARK   12  A    between atoms: N_24  and  C_25 
ROOT
ATOM      1  N   UNL d   1      26.306 -14.363  -4.495  0.00  0.00    -0.267 N 
ATOM      2  C   UNL d   1      27.321 -14.280  -5.455  0.00  0.00     0.236 C 
ATOM      3  O   UNL d   1      28.076 -15.200  -5.694  0.00  0.00    -0.272 OA
ATOM      4  H   UNL d   1      25.553 -13.684  -4.422  0.00  0.00     0.190 HD
ENDROOT
BRANCH   1   5
ATOM      5  N   UNL d   1      26.083 -15.621  -3.798  0.00  0.00    -0.263 N 
ATOM      6  C   UNL d   1      25.225 -15.610  -2.688  0.00  0.00     0.272 C 
ATOM      7  O   UNL d   1      24.304 -14.801  -2.605  0.00  0.00    -0.266 OA
ATOM      8  H   UNL d   1      26.861 -16.277  -3.838  0.00  0.00     0.190 HD
BRANCH   6   9
ATOM      9  C   UNL d   1      25.453 -16.592  -1.554  0.00  0.00     0.067 A 
ATOM     10  C   UNL d   1      26.745 -16.633  -0.977  0.00  0.00     0.020 A 
ATOM     11  C   UNL d   1      27.047 -17.456   0.122  0.00  0.00     0.001 A 
ATOM     12  C   UNL d   1      26.060 -18.261   0.672  0.00  0.00     0.003 A 
ATOM     13  C   UNL d   1      24.805 -18.306   0.062  0.00  0.00     0.038 A 
ATOM     14  C   UNL d   1      24.501 -17.492  -1.053  0.00  0.00     0.084 A 
BRANCH  14  15
ATOM     15  O   UNL d   1      23.205 -17.578  -1.472  0.00  0.00    -0.350 OA
BRANCH  15  16
ATOM     16  C   UNL d   1      22.200 -17.668  -0.456  0.00  0.00     0.175 C 
BRANCH  16  17
ATOM     17  C   UNL d   1      21.759 -19.125  -0.471  0.00  0.00     0.027 C 
BRANCH  17  18
ATOM     18  C   UNL d   1      20.479 -19.322  -1.270  0.00  0.00     0.002 C 
BRANCH  18  19
ATOM     19  C   UNL d   1      19.289 -19.509  -0.331  0.00  0.00    -0.000 C 
BRANCH  19  20
ATOM     20  C   UNL d   1      19.527 -20.680   0.605  0.00  0.00    -0.005 C 
ATOM     21  C   UNL d   1      18.246 -21.331   1.072  0.00  0.00     0.005 C 
ENDBRANCH  19  20
ENDBRANCH  18  19
ENDBRANCH  17  18
ENDBRANCH  16  17
ENDBRANCH  15  16
ENDBRANCH  14  15
ENDBRANCH   6   9
ENDBRANCH   1   5
BRANCH   2  22
ATOM     22  C   UNL d   1      27.404 -12.959  -6.228  0.00  0.00     0.114 C 
BRANCH  22  23
ATOM     23  C   UNL d   1      27.782 -11.728  -5.377  0.00  0.00     0.112 C 
BRANCH  23  24
ATOM     24  C   UNL d   1      27.367 -11.818  -3.926  0.00  0.00     0.222 C 
ATOM     25  O   UNL d   1      26.179 -11.785  -3.622  0.00  0.00    -0.273 OA
ATOM     26  N   UNL d   1      28.403 -12.003  -3.008  0.00  0.00    -0.326 N 
ATOM     27  H   UNL d   1      29.348 -11.709  -3.234  0.00  0.00     0.169 HD
BRANCH  26  28
ATOM     28  C   UNL d   1      28.148 -12.434  -1.673  0.00  0.00     0.056 A 
ATOM     29  C   UNL d   1      27.576 -11.533  -0.755  0.00  0.00     0.033 A 
ATOM     30  C   UNL d   1      27.378 -11.911   0.586  0.00  0.00     0.026 A 
ATOM     31  C   UNL d   1      27.703 -13.201   0.999  0.00  0.00     0.035 A 
ATOM     32 CL   UNL d   1      27.405 -13.701   2.618  0.00  0.00    -0.084 Cl
ATOM     33  C   UNL d   1      28.274 -14.099   0.109  0.00  0.00     0.050 A 
ATOM     34  C   UNL d   1      28.513 -13.718  -1.212  0.00  0.00     0.062 A 
ATOM     35 CL   UNL d   1      29.445 -14.850  -2.141  0.00  0.00    -0.082 Cl
ENDBRANCH  26  28
ENDBRANCH  23  24
ENDBRANCH  22  23
ENDBRANCH   2  22
TORSDOF 12
ENDMDL
MODEL 5
REMARK VINA RESULT:    -7.966      6.175      8.870
REMARK INTER + INTRA:         -14.710
REMARK INTER:                 -11.546
REMARK INTRA:                  -3.165
REMARK CONF_INDEPENDENT:        3.580
REMARK UNBOUND:                -3.165
REMARK  12 active torsions:
REMARK  status: ('A' for Active; 'I' for Inactive)
REMARK    1  A    between atoms: C_2  and  C_3 
REMARK    2  A    between atoms: C_3  and  C_4 
REMARK    3  A    between atoms: C_4  and  C_5 
REMARK    4  A    between atoms: C_5  and  C_6 
REMARK    5  A    between atoms: C_6  and  O_7 
REMARK    6  A    between atoms: O_7  and  C_8 
REMARK    7  A    between atoms: C_13  and  C_14 
REMARK       I    between atoms: C_14  and  N_16 
REMARK    8  A    between atoms: N_16  and  N_17 
REMARK       I    between atoms: N_17  and  C_18 
REMARK    9  A    between atoms: C_18  and  C_20 
REMARK   10  A    between atoms: C_20  and  C_21 
REMARK   11  A    between atoms: C_21  and  C_22 
REMARK       I    between atoms: C_22  and  N_24 
REMARK   12  A    between atoms: N_24  and  C_25 
ROOT
ATOM      1  N   UNL d   1      25.473 -12.775  -4.718  0.00  0.00    -0.267 N 
ATOM      2  C   UNL d   1      26.454 -11.883  -5.167  0.00  0.00     0.236 C 
ATOM      3  O   UNL d   1      27.639 -12.147  -5.151  0.00  0.00    -0.272 OA
ATOM      4  H   UNL d   1      24.482 -12.649  -4.904  0.00  0.00     0.190 HD
ENDROOT
BRANCH   1   5
ATOM      5  N   UNL d   1      25.865 -14.106  -4.282  0.00  0.00    -0.263 N 
ATOM      6  C   UNL d   1      25.104 -14.712  -3.271  0.00  0.00     0.272 C 
ATOM      7  O   UNL d   1      23.912 -14.450  -3.128  0.00  0.00    -0.266 OA
ATOM      8  H   UNL d   1      26.859 -14.312  -4.367  0.00  0.00     0.190 HD
BRANCH   6   9
ATOM      9  C   UNL d   1      25.767 -15.688  -2.316  0.00  0.00     0.067 A 
ATOM     10  C   UNL d   1      27.175 -15.809  -2.383  0.00  0.00     0.020 A 
ATOM     11  C   UNL d   1      27.897 -16.631  -1.499  0.00  0.00     0.001 A 
ATOM     12  C   UNL d   1      27.224 -17.354  -0.525  0.00  0.00     0.003 A 
ATOM     13  C   UNL d   1      25.829 -17.321  -0.500  0.00  0.00     0.038 A 
ATOM     14  C   UNL d   1      25.097 -16.509  -1.396  0.00  0.00     0.084 A 
BRANCH  14  15
ATOM     15  O   UNL d   1      23.750 -16.510  -1.181  0.00  0.00    -0.350 OA
BRANCH  15  16
ATOM     16  C   UNL d   1      23.225 -17.565  -0.366  0.00  0.00     0.175 C 
BRANCH  16  17
ATOM     17  C   UNL d   1      21.816 -17.801  -0.895  0.00  0.00     0.027 C 
BRANCH  17  18
ATOM     18  C   UNL d   1      21.339 -19.220  -0.621  0.00  0.00     0.002 C 
BRANCH  18  19
ATOM     19  C   UNL d   1      19.840 -19.338  -0.890  0.00  0.00    -0.000 C 
BRANCH  19  20
ATOM     20  C   UNL d   1      19.156 -20.102   0.229  0.00  0.00    -0.005 C 
ATOM     21  C   UNL d   1      19.751 -19.814   1.587  0.00  0.00     0.005 C 
ENDBRANCH  19  20
ENDBRANCH  18  19
ENDBRANCH  17  18
ENDBRANCH  16  17
ENDBRANCH  15  16
ENDBRANCH  14  15
ENDBRANCH   6   9
ENDBRANCH   1   5
BRANCH   2  22
ATOM     22  C   UNL d   1      25.942 -10.550  -5.725  0.00  0.00     0.114 C 
BRANCH  22  23
ATOM     23  C   UNL d   1      26.187  -9.326  -4.816  0.00  0.00     0.112 C 
BRANCH  23  24
ATOM     24  C   UNL d   1      26.259  -9.645  -3.341  0.00  0.00     0.222 C 
ATOM     25  O   UNL d   1      25.438  -9.163  -2.566  0.00  0.00    -0.273 OA
ATOM     26  N   UNL d   1      27.253 -10.550  -2.962  0.00  0.00    -0.326 N 
ATOM     27  H   UNL d   1      28.083 -10.669  -3.535  0.00  0.00     0.169 HD
BRANCH  26  28
ATOM     28  C   UNL d   1      27.230 -11.192  -1.690  0.00  0.00     0.056 A 
ATOM     29  C   UNL d   1      26.897 -12.557  -1.612  0.00  0.00     0.033 A 
ATOM     30  C   UNL d   1      26.800 -13.197  -0.362  0.00  0.00     0.026 A 
ATOM     31  C   UNL d   1      27.082 -12.491   0.804  0.00  0.00     0.035 A 
ATOM     32 CL   UNL d   1      27.034 -13.275   2.334  0.00  0.00    -0.084 Cl
ATOM     33  C   UNL d   1      27.405 -11.143   0.746  0.00  0.00     0.050 A 
ATOM     34  C   UNL d   1      27.462 -10.490  -0.486  0.00  0.00     0.062 A 
ATOM     35 CL   UNL d   1      27.638  -8.765  -0.391  0.00  0.00    -0.082 Cl
ENDBRANCH  26  28
ENDBRANCH  23  24
ENDBRANCH  22  23
ENDBRANCH   2  22
TORSDOF 12
ENDMDL
MODEL 6
REMARK VINA RESULT:    -7.582      4.881      7.991
REMARK INTER + INTRA:         -15.008
REMARK INTER:                 -11.162
REMARK INTRA:                  -3.847
REMARK CONF_INDEPENDENT:        3.580
REMARK UNBOUND:                -3.847
REMARK  12 active torsions:
REMARK  status: ('A' for Active; 'I' for Inactive)
REMARK    1  A    between atoms: C_2  and  C_3 
REMARK    2  A    between atoms: C_3  and  C_4 
REMARK    3  A    between atoms: C_4  and  C_5 
REMARK    4  A    between atoms: C_5  and  C_6 
REMARK    5  A    between atoms: C_6  and  O_7 
REMARK    6  A    between atoms: O_7  and  C_8 
REMARK    7  A    between atoms: C_13  and  C_14 
REMARK       I    between atoms: C_14  and  N_16 
REMARK    8  A    between atoms: N_16  and  N_17 
REMARK       I    between atoms: N_17  and  C_18 
REMARK    9  A    between atoms: C_18  and  C_20 
REMARK   10  A    between atoms: C_20  and  C_21 
REMARK   11  A    between atoms: C_21  and  C_22 
REMARK       I    between atoms: C_22  and  N_24 
REMARK   12  A    between atoms: N_24  and  C_25 
ROOT
ATOM      1  N   UNL d   1      28.856 -17.634  -0.266  0.00  0.00    -0.267 N 
ATOM      2  C   UNL d   1      29.558 -17.356  -1.445  0.00  0.00     0.236 C 
ATOM      3  O   UNL d   1      29.082 -16.708  -2.354  0.00  0.00    -0.272 OA
ATOM      4  H   UNL d   1      29.300 -17.999   0.573  0.00  0.00     0.190 HD
ENDROOT
BRANCH   1   5
ATOM      5  N   UNL d   1      27.529 -17.068  -0.074  0.00  0.00    -0.263 N 
ATOM      6  C   UNL d   1      26.502 -17.934   0.331  0.00  0.00     0.272 C 
ATOM      7  O   UNL d   1      26.742 -18.933   1.005  0.00  0.00    -0.266 OA
ATOM      8  H   UNL d   1      27.318 -16.261  -0.658  0.00  0.00     0.190 HD
BRANCH   6   9
ATOM      9  C   UNL d   1      25.073 -17.651  -0.092  0.00  0.00     0.067 A 
ATOM     10  C   UNL d   1      24.098 -18.632   0.212  0.00  0.00     0.020 A 
ATOM     11  C   UNL d   1      22.734 -18.442  -0.073  0.00  0.00     0.001 A 
ATOM     12  C   UNL d   1      22.311 -17.264  -0.672  0.00  0.00     0.003 A 
ATOM     13  C   UNL d   1      23.266 -16.325  -1.064  0.00  0.00     0.038 A 
ATOM     14  C   UNL d   1      24.640 -16.517  -0.795  0.00  0.00     0.084 A 
BRANCH  14  15
ATOM     15  O   UNL d   1      25.433 -15.466  -1.152  0.00  0.00    -0.350 OA
BRANCH  15  16
ATOM     16  C   UNL d   1      25.914 -15.446  -2.501  0.00  0.00     0.175 C 
BRANCH  16  17
ATOM     17  C   UNL d   1      25.269 -14.216  -3.127  0.00  0.00     0.027 C 
BRANCH  17  18
ATOM     18  C   UNL d   1      25.404 -14.215  -4.642  0.00  0.00     0.002 C 
BRANCH  18  19
ATOM     19  C   UNL d   1      26.487 -15.199  -5.081  0.00  0.00    -0.000 C 
BRANCH  19  20
ATOM     20  C   UNL d   1      27.839 -14.512  -5.142  0.00  0.00    -0.005 C 
ATOM     21  C   UNL d   1      28.972 -15.467  -5.432  0.00  0.00     0.005 C 
ENDBRANCH  19  20
ENDBRANCH  18  19
ENDBRANCH  17  18
ENDBRANCH  16  17
ENDBRANCH  15  16
ENDBRANCH  14  15
ENDBRANCH   6   9
ENDBRANCH   1   5
BRANCH   2  22
ATOM     22  C   UNL d   1      30.994 -17.887  -1.510  0.00  0.00     0.114 C 
BRANCH  22  23
ATOM     23  C   UNL d   1      31.993 -16.977  -2.255  0.00  0.00     0.112 C 
BRANCH  23  24
ATOM     24  C   UNL d   1      32.015 -17.167  -3.755  0.00  0.00     0.222 C 
ATOM     25  O   UNL d   1      32.953 -16.733  -4.416  0.00  0.00    -0.273 OA
ATOM     26  N   UNL d   1      30.957 -17.906  -4.289  0.00  0.00    -0.326 N 
ATOM     27  H   UNL d   1      30.071 -17.964  -3.797  0.00  0.00     0.169 HD
BRANCH  26  28
ATOM     28  C   UNL d   1      31.016 -18.443  -5.608  0.00  0.00     0.056 A 
ATOM     29  C   UNL d   1      31.164 -17.571  -6.703  0.00  0.00     0.033 A 
ATOM     30  C   UNL d   1      31.155 -18.071  -8.019  0.00  0.00     0.026 A 
ATOM     31  C   UNL d   1      31.049 -19.441  -8.241  0.00  0.00     0.035 A 
ATOM     32 CL   UNL d   1      31.104 -20.074  -9.840  0.00  0.00    -0.084 Cl
ATOM     33  C   UNL d   1      30.896 -20.314  -7.174  0.00  0.00     0.050 A 
ATOM     34  C   UNL d   1      30.861 -19.823  -5.868  0.00  0.00     0.062 A 
ATOM     35 CL   UNL d   1      30.425 -20.991  -4.660  0.00  0.00    -0.082 Cl
ENDBRANCH  26  28
ENDBRANCH  23  24
ENDBRANCH  22  23
ENDBRANCH   2  22
TORSDOF 12
ENDMDL
MODEL 7
REMARK VINA RESULT:    -7.469      6.429      9.618
REMARK INTER + INTRA:         -14.890
REMARK INTER:                 -11.049
REMARK INTRA:                  -3.841
REMARK CONF_INDEPENDENT:        3.580
REMARK UNBOUND:                -3.841
REMARK  12 active torsions:
REMARK  status: ('A' for Active; 'I' for Inactive)
REMARK    1  A    between atoms: C_2  and  C_3 
REMARK    2  A    between atoms: C_3  and  C_4 
REMARK    3  A    between atoms: C_4  and  C_5 
REMARK    4  A    between atoms: C_5  and  C_6 
REMARK    5  A    between atoms: C_6  and  O_7 
REMARK    6  A    between atoms: O_7  and  C_8 
REMARK    7  A    between atoms: C_13  and  C_14 
REMARK       I    between atoms: C_14  and  N_16 
REMARK    8  A    between atoms: N_16  and  N_17 
REMARK       I    between atoms: N_17  and  C_18 
REMARK    9  A    between atoms: C_18  and  C_20 
REMARK   10  A    between atoms: C_20  and  C_21 
REMARK   11  A    between atoms: C_21  and  C_22 
REMARK       I    between atoms: C_22  and  N_24 
REMARK   12  A    between atoms: N_24  and  C_25 
ROOT
ATOM      1  N   UNL d   1      30.057 -14.825   3.496  0.00  0.00    -0.267 N 
ATOM      2  C   UNL d   1      31.034 -14.427   2.575  0.00  0.00     0.236 C 
ATOM      3  O   UNL d   1      32.031 -13.815   2.899  0.00  0.00    -0.272 OA
ATOM      4  H   UNL d   1      29.327 -15.497   3.275  0.00  0.00     0.190 HD
ENDROOT
BRANCH   1   5
ATOM      5  N   UNL d   1      30.265 -14.570   4.913  0.00  0.00    -0.263 N 
ATOM      6  C   UNL d   1      29.135 -14.539   5.744  0.00  0.00     0.272 C 
ATOM      7  O   UNL d   1      28.133 -15.197   5.478  0.00  0.00    -0.266 OA
ATOM      8  H   UNL d   1      31.077 -13.994   5.131  0.00  0.00     0.190 HD
BRANCH   6   9
ATOM      9  C   UNL d   1      29.136 -13.658   6.979  0.00  0.00     0.067 A 
ATOM     10  C   UNL d   1      29.928 -14.074   8.076  0.00  0.00     0.020 A 
ATOM     11  C   UNL d   1      30.055 -13.299   9.242  0.00  0.00     0.001 A 
ATOM     12  C   UNL d   1      29.390 -12.085   9.339  0.00  0.00     0.003 A 
ATOM     13  C   UNL d   1      28.533 -11.699   8.308  0.00  0.00     0.038 A 
ATOM     14  C   UNL d   1      28.388 -12.481   7.140  0.00  0.00     0.084 A 
BRANCH  14  15
ATOM     15  O   UNL d   1      27.591 -11.921   6.186  0.00  0.00    -0.350 OA
BRANCH  15  16
ATOM     16  C   UNL d   1      28.179 -10.906   5.364  0.00  0.00     0.175 C 
BRANCH  16  17
ATOM     17  C   UNL d   1      29.083 -11.661   4.398  0.00  0.00     0.027 C 
BRANCH  17  18
ATOM     18  C   UNL d   1      28.530 -11.654   2.981  0.00  0.00     0.002 C 
BRANCH  18  19
ATOM     19  C   UNL d   1      27.030 -11.943   2.993  0.00  0.00    -0.000 C 
BRANCH  19  20
ATOM     20  C   UNL d   1      26.621 -12.690   1.737  0.00  0.00    -0.005 C 
ATOM     21  C   UNL d   1      27.029 -11.978   0.469  0.00  0.00     0.005 C 
ENDBRANCH  19  20
ENDBRANCH  18  19
ENDBRANCH  17  18
ENDBRANCH  16  17
ENDBRANCH  15  16
ENDBRANCH  14  15
ENDBRANCH   6   9
ENDBRANCH   1   5
BRANCH   2  22
ATOM     22  C   UNL d   1      30.792 -14.845   1.120  0.00  0.00     0.114 C 
BRANCH  22  23
ATOM     23  C   UNL d   1      29.478 -14.324   0.501  0.00  0.00     0.112 C 
BRANCH  23  24
ATOM     24  C   UNL d   1      28.291 -15.242   0.685  0.00  0.00     0.222 C 
ATOM     25  O   UNL d   1      27.809 -15.409   1.801  0.00  0.00    -0.273 OA
ATOM     26  N   UNL d   1      27.772 -15.805  -0.483  0.00  0.00    -0.326 N 
ATOM     27  H   UNL d   1      28.357 -15.913  -1.305  0.00  0.00     0.169 HD
BRANCH  26  28
ATOM     28  C   UNL d   1      26.480 -16.408  -0.508  0.00  0.00     0.056 A 
ATOM     29  C   UNL d   1      26.237 -17.551   0.276  0.00  0.00     0.033 A 
ATOM     30  C   UNL d   1      24.992 -18.205   0.215  0.00  0.00     0.026 A 
ATOM     31  C   UNL d   1      23.976 -17.692  -0.587  0.00  0.00     0.035 A 
ATOM     32 CL   UNL d   1      22.427 -18.440  -0.621  0.00  0.00    -0.084 Cl
ATOM     33  C   UNL d   1      24.201 -16.570  -1.371  0.00  0.00     0.050 A 
ATOM     34  C   UNL d   1      25.447 -15.940  -1.350  0.00  0.00     0.062 A 
ATOM     35 CL   UNL d   1      25.661 -14.706  -2.551  0.00  0.00    -0.082 Cl
ENDBRANCH  26  28
ENDBRANCH  23  24
ENDBRANCH  22  23
ENDBRANCH   2  22
TORSDOF 12
ENDMDL
MODEL 8
REMARK VINA RESULT:    -7.436      4.708      6.561
REMARK INTER + INTRA:         -14.474
REMARK INTER:                 -11.016
REMARK INTRA:                  -3.458
REMARK CONF_INDEPENDENT:        3.580
REMARK UNBOUND:                -3.458
REMARK  12 active torsions:
REMARK  status: ('A' for Active; 'I' for Inactive)
REMARK    1  A    between atoms: C_2  and  C_3 
REMARK    2  A    between atoms: C_3  and  C_4 
REMARK    3  A    between atoms: C_4  and  C_5 
REMARK    4  A    between atoms: C_5  and  C_6 
REMARK    5  A    between atoms: C_6  and  O_7 
REMARK    6  A    between atoms: O_7  and  C_8 
REMARK    7  A    between atoms: C_13  and  C_14 
REMARK       I    between atoms: C_14  and  N_16 
REMARK    8  A    between atoms: N_16  and  N_17 
REMARK       I    between atoms: N_17  and  C_18 
REMARK    9  A    between atoms: C_18  and  C_20 
REMARK   10  A    between atoms: C_20  and  C_21 
REMARK   11  A    between atoms: C_21  and  C_22 
REMARK       I    between atoms: C_22  and  N_24 
REMARK   12  A    between atoms: N_24  and  C_25 
ROOT
ATOM      1  N   UNL d   1      28.474 -16.914   0.199  0.00  0.00    -0.267 N 
ATOM      2  C   UNL d   1      29.236 -15.762  -0.024  0.00  0.00     0.236 C 
ATOM      3  O   UNL d   1      28.743 -14.656  -0.112  0.00  0.00    -0.272 OA
ATOM      4  H   UNL d   1      28.882 -17.807   0.467  0.00  0.00     0.190 HD
ENDROOT
BRANCH   1   5
ATOM      5  N   UNL d   1      27.040 -16.793   0.412  0.00  0.00    -0.263 N 
ATOM      6  C   UNL d   1      26.257 -17.948   0.267  0.00  0.00     0.272 C 
ATOM      7  O   UNL d   1      26.722 -19.062   0.493  0.00  0.00    -0.266 OA
ATOM      8  H   UNL d   1      26.649 -15.878   0.191  0.00  0.00     0.190 HD
BRANCH   6   9
ATOM      9  C   UNL d   1      24.821 -17.826  -0.206  0.00  0.00     0.067 A 
ATOM     10  C   UNL d   1      23.980 -18.952  -0.030  0.00  0.00     0.020 A 
ATOM     11  C   UNL d   1      22.615 -18.924  -0.369  0.00  0.00     0.001 A 
ATOM     12  C   UNL d   1      22.058 -17.767  -0.894  0.00  0.00     0.003 A 
ATOM     13  C   UNL d   1      22.887 -16.678  -1.161  0.00  0.00     0.038 A 
ATOM     14  C   UNL d   1      24.263 -16.704  -0.837  0.00  0.00     0.084 A 
BRANCH  14  15
ATOM     15  O   UNL d   1      24.916 -15.529  -1.069  0.00  0.00    -0.350 OA
BRANCH  15  16
ATOM     16  C   UNL d   1      25.681 -15.439  -2.277  0.00  0.00     0.175 C 
BRANCH  16  17
ATOM     17  C   UNL d   1      25.495 -14.003  -2.750  0.00  0.00     0.027 C 
BRANCH  17  18
ATOM     18  C   UNL d   1      25.670 -13.876  -4.256  0.00  0.00     0.002 C 
BRANCH  18  19
ATOM     19  C   UNL d   1      26.150 -15.199  -4.850  0.00  0.00    -0.000 C 
BRANCH  19  20
ATOM     20  C   UNL d   1      27.660 -15.195  -5.010  0.00  0.00    -0.005 C 
ATOM     21  C   UNL d   1      28.129 -14.315  -6.144  0.00  0.00     0.005 C 
ENDBRANCH  19  20
ENDBRANCH  18  19
ENDBRANCH  17  18
ENDBRANCH  16  17
ENDBRANCH  15  16
ENDBRANCH  14  15
ENDBRANCH   6   9
ENDBRANCH   1   5
BRANCH   2  22
ATOM     22  C   UNL d   1      30.752 -15.969  -0.113  0.00  0.00     0.114 C 
BRANCH  22  23
ATOM     23  C   UNL d   1      31.601 -14.875   0.571  0.00  0.00     0.112 C 
BRANCH  23  24
ATOM     24  C   UNL d   1      31.386 -14.756   2.062  0.00  0.00     0.222 C 
ATOM     25  O   UNL d   1      32.345 -14.610   2.813  0.00  0.00    -0.273 OA
ATOM     26  N   UNL d   1      30.055 -14.757   2.486  0.00  0.00    -0.326 N 
ATOM     27  H   UNL d   1      29.335 -15.190   1.916  0.00  0.00     0.169 HD
BRANCH  26  28
ATOM     28  C   UNL d   1      29.690 -14.323   3.794  0.00  0.00     0.056 A 
ATOM     29  C   UNL d   1      30.405 -14.807   4.906  0.00  0.00     0.033 A 
ATOM     30  C   UNL d   1      30.020 -14.449   6.211  0.00  0.00     0.026 A 
ATOM     31  C   UNL d   1      28.957 -13.572   6.407  0.00  0.00     0.035 A 
ATOM     32 CL   UNL d   1      28.516 -13.072   7.993  0.00  0.00    -0.084 Cl
ATOM     33  C   UNL d   1      28.237 -13.092   5.322  0.00  0.00     0.050 A 
ATOM     34  C   UNL d   1      28.584 -13.475   4.026  0.00  0.00     0.062 A 
ATOM     35 CL   UNL d   1      27.458 -12.996   2.796  0.00  0.00    -0.082 Cl
ENDBRANCH  26  28
ENDBRANCH  23  24
ENDBRANCH  22  23
ENDBRANCH   2  22
TORSDOF 12
ENDMDL
MODEL 9
REMARK VINA RESULT:    -7.044      5.634      8.399
REMARK INTER + INTRA:         -14.595
REMARK INTER:                 -10.624
REMARK INTRA:                  -3.970
REMARK CONF_INDEPENDENT:        3.580
REMARK UNBOUND:                -3.970
REMARK  12 active torsions:
REMARK  status: ('A' for Active; 'I' for Inactive)
REMARK    1  A    between atoms: C_2  and  C_3 
REMARK    2  A    between atoms: C_3  and  C_4 
REMARK    3  A    between atoms: C_4  and  C_5 
REMARK    4  A    between atoms: C_5  and  C_6 
REMARK    5  A    between atoms: C_6  and  O_7 
REMARK    6  A    between atoms: O_7  and  C_8 
REMARK    7  A    between atoms: C_13  and  C_14 
REMARK       I    between atoms: C_14  and  N_16 
REMARK    8  A    between atoms: N_16  and  N_17 
REMARK       I    between atoms: N_17  and  C_18 
REMARK    9  A    between atoms: C_18  and  C_20 
REMARK   10  A    between atoms: C_20  and  C_21 
REMARK   11  A    between atoms: C_21  and  C_22 
REMARK       I    between atoms: C_22  and  N_24 
REMARK   12  A    between atoms: N_24  and  C_25 
ROOT
ATOM      1  N   UNL d   1      27.056 -14.373  -3.881  0.00  0.00    -0.267 N 
ATOM      2  C   UNL d   1      27.458 -14.304  -5.221  0.00  0.00     0.236 C 
ATOM      3  O   UNL d   1      27.317 -15.227  -5.996  0.00  0.00    -0.272 OA
ATOM      4  H   UNL d   1      26.987 -13.557  -3.279  0.00  0.00     0.190 HD
ENDROOT
BRANCH   1   5
ATOM      5  N   UNL d   1      26.372 -15.564  -3.401  0.00  0.00    -0.263 N 
ATOM      6  C   UNL d   1      25.141 -15.393  -2.752  0.00  0.00     0.272 C 
ATOM      7  O   UNL d   1      24.405 -14.448  -3.023  0.00  0.00    -0.266 OA
ATOM      8  H   UNL d   1      26.984 -16.336  -3.143  0.00  0.00     0.190 HD
BRANCH   6   9
ATOM      9  C   UNL d   1      24.718 -16.375  -1.674  0.00  0.00     0.067 A 
ATOM     10  C   UNL d   1      23.361 -16.354  -1.270  0.00  0.00     0.020 A 
ATOM     11  C   UNL d   1      22.848 -17.265  -0.330  0.00  0.00     0.001 A 
ATOM     12  C   UNL d   1      23.683 -18.221   0.231  0.00  0.00     0.003 A 
ATOM     13  C   UNL d   1      25.042 -18.200  -0.084  0.00  0.00     0.038 A 
ATOM     14  C   UNL d   1      25.567 -17.277  -1.016  0.00  0.00     0.084 A 
BRANCH  14  15
ATOM     15  O   UNL d   1      26.893 -17.448  -1.289  0.00  0.00    -0.350 OA
BRANCH  15  16
ATOM     16  C   UNL d   1      27.762 -17.662  -0.171  0.00  0.00     0.175 C 
BRANCH  16  17
ATOM     17  C   UNL d   1      28.966 -16.767  -0.436  0.00  0.00     0.027 C 
BRANCH  17  18
ATOM     18  C   UNL d   1      28.646 -15.300  -0.190  0.00  0.00     0.002 C 
BRANCH  18  19
ATOM     19  C   UNL d   1      27.447 -15.166   0.747  0.00  0.00    -0.000 C 
BRANCH  19  20
ATOM     20  C   UNL d   1      26.654 -13.913   0.423  0.00  0.00    -0.005 C 
ATOM     21  C   UNL d   1      27.134 -13.220  -0.831  0.00  0.00     0.005 C 
ENDBRANCH  19  20
ENDBRANCH  18  19
ENDBRANCH  17  18
ENDBRANCH  16  17
ENDBRANCH  15  16
ENDBRANCH  14  15
ENDBRANCH   6   9
ENDBRANCH   1   5
BRANCH   2  22
ATOM     22  C   UNL d   1      28.057 -12.967  -5.671  0.00  0.00     0.114 C 
BRANCH  22  23
ATOM     23  C   UNL d   1      29.235 -13.082  -6.662  0.00  0.00     0.112 C 
BRANCH  23  24
ATOM     24  C   UNL d   1      30.157 -14.252  -6.407  0.00  0.00     0.222 C 
ATOM     25  O   UNL d   1      31.227 -14.080  -5.831  0.00  0.00    -0.273 OA
ATOM     26  N   UNL d   1      29.677 -15.502  -6.805  0.00  0.00    -0.326 N 
ATOM     27  H   UNL d   1      28.979 -15.574  -7.538  0.00  0.00     0.169 HD
BRANCH  26  28
ATOM     28  C   UNL d   1      30.271 -16.711  -6.337  0.00  0.00     0.056 A 
ATOM     29  C   UNL d   1      30.748 -17.651  -7.270  0.00  0.00     0.033 A 
ATOM     30  C   UNL d   1      31.274 -18.882  -6.835  0.00  0.00     0.026 A 
ATOM     31  C   UNL d   1      31.370 -19.155  -5.474  0.00  0.00     0.035 A 
ATOM     32 CL   UNL d   1      32.073 -20.626  -4.924  0.00  0.00    -0.084 Cl
ATOM     33  C   UNL d   1      30.899 -18.242  -4.541  0.00  0.00     0.050 A 
ATOM     34  C   UNL d   1      30.336 -17.037  -4.965  0.00  0.00     0.062 A 
ATOM     35 CL   UNL d   1      29.574 -16.107  -3.712  0.00  0.00    -0.082 Cl
ENDBRANCH  26  28
ENDBRANCH  23  24
ENDBRANCH  22  23
ENDBRANCH   2  22
TORSDOF 12
ENDMDL
