MODEL 1
REMARK VINA RESULT:   -10.761      0.000      0.000
REMARK INTER + INTRA:         -14.400
REMARK INTER:                 -13.148
REMARK INTRA:                  -1.252
REMARK CONF_INDEPENDENT:        2.386
REMARK UNBOUND:                -1.252
REMARK  8 active torsions:
REMARK  status: ('A' for Active; 'I' for Inactive)
REMARK    1  A    between atoms: C_11  and  C_12 
REMARK    2  A    between atoms: C_12  and  N_13 
REMARK    3  A    between atoms: N_13  and  C_14 
REMARK    4  A    between atoms: N_13  and  C_22 
REMARK    5  A    between atoms: C_14  and  C_15 
REMARK    6  A    between atoms: C_15  and  N_16 
REMARK    7  A    between atoms: C_22  and  N_24 
REMARK    8  A    between atoms: N_24  and  C_25 
ROOT
ATOM      1  N   UNL d   1      29.127 -14.882   1.297  0.00  0.00    -0.352 N 
ENDROOT
BRANCH   1   2
ATOM      2  C   UNL d   1      28.708 -16.072   0.353  0.00  0.00     0.169 C 
BRANCH   2   3
ATOM      3  C   UNL d   1      27.284 -16.357   0.018  0.00  0.00     0.029 C 
ATOM      4  C   UNL d   1      26.514 -17.443   0.134  0.00  0.00     0.028 C 
ATOM      5  C   UNL d   1      25.145 -17.399  -0.393  0.00  0.00    -0.006 C 
ATOM      6  C   UNL d   1      24.531 -18.535  -0.681  0.00  0.00     0.053 C 
ATOM      7  C   UNL d   1      24.509 -16.241  -0.831  0.00  0.00     0.048 C 
ATOM      8  C   UNL d   1      23.284 -18.443  -1.196  0.00  0.00     0.105 C 
ATOM      9  C   UNL d   1      22.501 -17.366  -0.896  0.00  0.00     0.107 C 
ATOM     10  O   UNL d   1      22.615 -19.609  -1.262  0.00  0.00    -0.323 OA
ATOM     11  C   UNL d   1      23.112 -16.139  -1.046  0.00  0.00     0.070 C 
ATOM     12  O   UNL d   1      21.405 -17.913  -0.224  0.00  0.00    -0.323 OA
ATOM     13  C   UNL d   1      21.910 -19.315  -0.068  0.00  0.00     0.352 C 
ATOM     14  N   UNL d   1      25.474 -15.341  -1.154  0.00  0.00    -0.322 N 
ATOM     15  C   UNL d   1      26.823 -15.781  -1.245  0.00  0.00     0.253 C 
ATOM     16  H   UNL d   1      25.201 -14.405  -1.227  0.00  0.00     0.169 HD
ATOM     17  O   UNL d   1      27.623 -15.573  -2.088  0.00  0.00    -0.268 OA
ENDBRANCH   2   3
ENDBRANCH   1   2
BRANCH   1  18
ATOM     18  C   UNL d   1      30.552 -14.292   1.494  0.00  0.00     0.153 C 
BRANCH  18  19
ATOM     19  C   UNL d   1      31.695 -15.171   2.035  0.00  0.00     0.254 C 
BRANCH  19  20
ATOM     20  N   UNL d   1      32.002 -16.595   1.840  0.00  0.00    -0.066 N 
ATOM     21  C   UNL d   1      32.009 -17.290   0.315  0.00  0.00     0.261 C 
ATOM     22  C   UNL d   1      32.278 -18.756   0.536  0.00  0.00     0.195 C 
ATOM     23  O   UNL d   1      33.524 -18.881   1.245  0.00  0.00    -0.388 OA
ATOM     24  C   UNL d   1      33.486 -18.293   2.553  0.00  0.00     0.195 C 
ATOM     25  C   UNL d   1      33.326 -16.807   2.478  0.00  0.00     0.261 C 
ATOM     26  H   UNL d   1      31.197 -17.072   2.265  0.00  0.00     0.280 HD
ENDBRANCH  19  20
ENDBRANCH  18  19
ENDBRANCH   1  18
BRANCH   1  27
ATOM     27  C   UNL d   1      28.040 -14.430   2.164  0.00  0.00     0.174 C 
ATOM     28  S   UNL d   1      26.836 -13.368   1.594  0.00  0.00    -0.041 SA
BRANCH  27  29
ATOM     29  N   UNL d   1      28.098 -14.890   3.503  0.00  0.00    -0.333 N 
ATOM     30  H   UNL d   1      28.388 -15.834   3.695  0.00  0.00     0.168 HD
BRANCH  29  31
ATOM     31  C   UNL d   1      28.136 -14.028   4.653  0.00  0.00     0.035 C 
ATOM     32  C   UNL d   1      27.780 -12.681   4.539  0.00  0.00     0.029 C 
ATOM     33  C   UNL d   1      27.962 -11.784   5.591  0.00  0.00     0.004 C 
ATOM     34  C   UNL d   1      28.593 -12.210   6.750  0.00  0.00     0.024 C 
ATOM     35  C   UNL d   1      28.881 -13.565   6.907  0.00  0.00     0.036 C 
ATOM     36 CL   UNL d   1      29.699 -14.075   8.337  0.00  0.00    -0.084 Cl
ATOM     37  C   UNL d   1      28.564 -14.497   5.902  0.00  0.00     0.053 C 
ENDBRANCH  29  31
ENDBRANCH  27  29
ENDBRANCH   1  27
TORSDOF 8
ENDMDL
MODEL 2
REMARK VINA RESULT:   -10.401      3.688      7.286
REMARK INTER + INTRA:         -14.270
REMARK INTER:                 -12.787
REMARK INTRA:                  -1.483
REMARK CONF_INDEPENDENT:        2.386
REMARK UNBOUND:                -1.483
REMARK  8 active torsions:
REMARK  status: ('A' for Active; 'I' for Inactive)
REMARK    1  A    between atoms: C_11  and  C_12 
REMARK    2  A    between atoms: C_12  and  N_13 
REMARK    3  A    between atoms: N_13  and  C_14 
REMARK    4  A    between atoms: N_13  and  C_22 
REMARK    5  A    between atoms: C_14  and  C_15 
REMARK    6  A    between atoms: C_15  and  N_16 
REMARK    7  A    between atoms: C_22  and  N_24 
REMARK    8  A    between atoms: N_24  and  C_25 
ROOT
ATOM      1  N   UNL d   1      26.999 -14.948  -1.555  0.00  0.00    -0.352 N 
ENDROOT
BRANCH   1   2
ATOM      2  C   UNL d   1      26.747 -13.771  -0.537  0.00  0.00     0.169 C 
BRANCH   2   3
ATOM      3  C   UNL d   1      27.317 -13.775   0.839  0.00  0.00     0.029 C 
ATOM      4  C   UNL d   1      27.051 -13.071   1.944  0.00  0.00     0.028 C 
ATOM      5  C   UNL d   1      27.889 -13.275   3.132  0.00  0.00    -0.006 C 
ATOM      6  C   UNL d   1      27.936 -12.328   4.055  0.00  0.00     0.053 C 
ATOM      7  C   UNL d   1      28.824 -14.297   3.267  0.00  0.00     0.048 C 
ATOM      8  C   UNL d   1      28.748 -12.546   5.114  0.00  0.00     0.105 C 
ATOM      9  C   UNL d   1      29.021 -13.823   5.511  0.00  0.00     0.107 C 
ATOM     10  O   UNL d   1      28.597 -11.674   6.127  0.00  0.00    -0.323 OA
ATOM     11  C   UNL d   1      29.403 -14.681   4.502  0.00  0.00     0.070 C 
ATOM     12  O   UNL d   1      28.504 -13.898   6.808  0.00  0.00    -0.323 OA
ATOM     13  C   UNL d   1      27.781 -12.587   6.840  0.00  0.00     0.352 C 
ATOM     14  N   UNL d   1      29.169 -14.704   2.018  0.00  0.00    -0.322 N 
ATOM     15  C   UNL d   1      28.771 -13.917   0.902  0.00  0.00     0.253 C 
ATOM     16  H   UNL d   1      29.607 -15.575   1.939  0.00  0.00     0.169 HD
ATOM     17  O   UNL d   1      29.407 -13.557  -0.024  0.00  0.00    -0.268 OA
ENDBRANCH   2   3
ENDBRANCH   1   2
BRANCH   1  18
ATOM     18  C   UNL d   1      28.302 -15.779  -1.730  0.00  0.00     0.153 C 
BRANCH  18  19
ATOM     19  C   UNL d   1      28.649 -16.906  -0.741  0.00  0.00     0.254 C 
BRANCH  19  20
ATOM     20  N   UNL d   1      29.926 -17.560  -0.422  0.00  0.00    -0.066 N 
ATOM     21  C   UNL d   1      30.775 -18.438  -1.569  0.00  0.00     0.261 C 
ATOM     22  C   UNL d   1      31.965 -19.013  -0.846  0.00  0.00     0.195 C 
ATOM     23  O   UNL d   1      32.709 -17.923  -0.273  0.00  0.00    -0.388 OA
ATOM     24  C   UNL d   1      31.967 -17.199   0.719  0.00  0.00     0.195 C 
ATOM     25  C   UNL d   1      30.801 -16.484   0.112  0.00  0.00     0.261 C 
ATOM     26  H   UNL d   1      29.655 -18.307   0.230  0.00  0.00     0.280 HD
ENDBRANCH  19  20
ENDBRANCH  18  19
ENDBRANCH   1  18
BRANCH   1  27
ATOM     27  C   UNL d   1      25.905 -15.125  -2.507  0.00  0.00     0.174 C 
ATOM     28  S   UNL d   1      26.163 -15.002  -4.187  0.00  0.00    -0.041 SA
BRANCH  27  29
ATOM     29  N   UNL d   1      24.627 -15.344  -1.933  0.00  0.00    -0.333 N 
ATOM     30  H   UNL d   1      23.840 -14.799  -2.242  0.00  0.00     0.168 HD
BRANCH  29  31
ATOM     31  C   UNL d   1      24.261 -16.527  -1.205  0.00  0.00     0.035 C 
ATOM     32  C   UNL d   1      25.246 -17.341  -0.636  0.00  0.00     0.029 C 
ATOM     33  C   UNL d   1      24.936 -18.575  -0.067  0.00  0.00     0.004 C 
ATOM     34  C   UNL d   1      23.638 -19.057  -0.144  0.00  0.00     0.024 C 
ATOM     35  C   UNL d   1      22.634 -18.225  -0.638  0.00  0.00     0.036 C 
ATOM     36 CL   UNL d   1      21.031 -18.850  -0.763  0.00  0.00    -0.084 Cl
ATOM     37  C   UNL d   1      22.922 -16.920  -1.078  0.00  0.00     0.053 C 
ENDBRANCH  29  31
ENDBRANCH  27  29
ENDBRANCH   1  27
TORSDOF 8
ENDMDL
MODEL 3
REMARK VINA RESULT:   -10.218      2.232      3.005
REMARK INTER + INTRA:         -14.386
REMARK INTER:                 -12.604
REMARK INTRA:                  -1.782
REMARK CONF_INDEPENDENT:        2.386
REMARK UNBOUND:                -1.782
REMARK  8 active torsions:
REMARK  status: ('A' for Active; 'I' for Inactive)
REMARK    1  A    between atoms: C_11  and  C_12 
REMARK    2  A    between atoms: C_12  and  N_13 
REMARK    3  A    between atoms: N_13  and  C_14 
REMARK    4  A    between atoms: N_13  and  C_22 
REMARK    5  A    between atoms: C_14  and  C_15 
REMARK    6  A    between atoms: C_15  and  N_16 
REMARK    7  A    between atoms: C_22  and  N_24 
REMARK    8  A    between atoms: N_24  and  C_25 
ROOT
ATOM      1  N   UNL d   1      29.316 -14.786   1.479  0.00  0.00    -0.352 N 
ENDROOT
BRANCH   1   2
ATOM      2  C   UNL d   1      28.928 -15.990   0.539  0.00  0.00     0.169 C 
BRANCH   2   3
ATOM      3  C   UNL d   1      27.517 -16.271   0.150  0.00  0.00     0.029 C 
ATOM      4  C   UNL d   1      26.681 -17.284   0.400  0.00  0.00     0.028 C 
ATOM      5  C   UNL d   1      25.356 -17.280  -0.232  0.00  0.00    -0.006 C 
ATOM      6  C   UNL d   1      24.702 -18.423  -0.357  0.00  0.00     0.053 C 
ATOM      7  C   UNL d   1      24.818 -16.197  -0.921  0.00  0.00     0.048 C 
ATOM      8  C   UNL d   1      23.500 -18.375  -0.977  0.00  0.00     0.105 C 
ATOM      9  C   UNL d   1      22.760 -17.229  -0.940  0.00  0.00     0.107 C 
ATOM     10  O   UNL d   1      22.774 -19.504  -0.883  0.00  0.00    -0.323 OA
ATOM     11  C   UNL d   1      23.448 -16.078  -1.261  0.00  0.00     0.070 C 
ATOM     12  O   UNL d   1      21.590 -17.596  -0.268  0.00  0.00    -0.323 OA
ATOM     13  C   UNL d   1      22.005 -18.964   0.178  0.00  0.00     0.352 C 
ATOM     14  N   UNL d   1      25.852 -15.414  -1.325  0.00  0.00    -0.322 N 
ATOM     15  C   UNL d   1      27.178 -15.920  -1.229  0.00  0.00     0.253 C 
ATOM     16  H   UNL d   1      25.638 -14.497  -1.587  0.00  0.00     0.169 HD
ATOM     17  O   UNL d   1      28.044 -15.905  -2.029  0.00  0.00    -0.268 OA
ENDBRANCH   2   3
ENDBRANCH   1   2
BRANCH   1  18
ATOM     18  C   UNL d   1      30.728 -14.166   1.682  0.00  0.00     0.153 C 
BRANCH  18  19
ATOM     19  C   UNL d   1      31.335 -14.050   3.092  0.00  0.00     0.254 C 
BRANCH  19  20
ATOM     20  N   UNL d   1      32.024 -12.940   3.765  0.00  0.00    -0.066 N 
ATOM     21  C   UNL d   1      33.581 -12.489   3.342  0.00  0.00     0.261 C 
ATOM     22  C   UNL d   1      33.963 -11.391   4.301  0.00  0.00     0.195 C 
ATOM     23  O   UNL d   1      32.992 -10.335   4.181  0.00  0.00    -0.388 OA
ATOM     24  C   UNL d   1      31.671 -10.743   4.565  0.00  0.00     0.195 C 
ATOM     25  C   UNL d   1      31.122 -11.768   3.624  0.00  0.00     0.261 C 
ATOM     26  H   UNL d   1      32.178 -13.298   4.716  0.00  0.00     0.280 HD
ENDBRANCH  19  20
ENDBRANCH  18  19
ENDBRANCH   1  18
BRANCH   1  27
ATOM     27  C   UNL d   1      28.214 -14.350   2.335  0.00  0.00     0.174 C 
ATOM     28  S   UNL d   1      27.028 -13.267   1.769  0.00  0.00    -0.041 SA
BRANCH  27  29
ATOM     29  N   UNL d   1      28.242 -14.846   3.663  0.00  0.00    -0.333 N 
ATOM     30  H   UNL d   1      28.474 -15.810   3.831  0.00  0.00     0.168 HD
BRANCH  29  31
ATOM     31  C   UNL d   1      28.327 -14.017   4.833  0.00  0.00     0.035 C 
ATOM     32  C   UNL d   1      27.775 -12.733   4.832  0.00  0.00     0.029 C 
ATOM     33  C   UNL d   1      27.983 -11.846   5.888  0.00  0.00     0.004 C 
ATOM     34  C   UNL d   1      28.831 -12.205   6.925  0.00  0.00     0.024 C 
ATOM     35  C   UNL d   1      29.324 -13.508   6.977  0.00  0.00     0.036 C 
ATOM     36 CL   UNL d   1      30.407 -13.930   8.252  0.00  0.00    -0.084 Cl
ATOM     37  C   UNL d   1      28.996 -14.450   5.986  0.00  0.00     0.053 C 
ENDBRANCH  29  31
ENDBRANCH  27  29
ENDBRANCH   1  27
TORSDOF 8
ENDMDL
MODEL 4
REMARK VINA RESULT:   -10.086      3.342      5.541
REMARK INTER + INTRA:         -14.746
REMARK INTER:                 -12.472
REMARK INTRA:                  -2.274
REMARK CONF_INDEPENDENT:        2.386
REMARK UNBOUND:                -2.274
REMARK  8 active torsions:
REMARK  status: ('A' for Active; 'I' for Inactive)
REMARK    1  A    between atoms: C_11  and  C_12 
REMARK    2  A    between atoms: C_12  and  N_13 
REMARK    3  A    between atoms: N_13  and  C_14 
REMARK    4  A    between atoms: N_13  and  C_22 
REMARK    5  A    between atoms: C_14  and  C_15 
REMARK    6  A    between atoms: C_15  and  N_16 
REMARK    7  A    between atoms: C_22  and  N_24 
REMARK    8  A    between atoms: N_24  and  C_25 
ROOT
ATOM      1  N   UNL d   1      29.437 -14.529   0.762  0.00  0.00    -0.352 N 
ENDROOT
BRANCH   1   2
ATOM      2  C   UNL d   1      28.954 -16.020   0.597  0.00  0.00     0.169 C 
BRANCH   2   3
ATOM      3  C   UNL d   1      27.575 -16.362   0.148  0.00  0.00     0.029 C 
ATOM      4  C   UNL d   1      26.689 -17.286   0.532  0.00  0.00     0.028 C 
ATOM      5  C   UNL d   1      25.425 -17.405  -0.208  0.00  0.00    -0.006 C 
ATOM      6  C   UNL d   1      24.749 -18.540  -0.143  0.00  0.00     0.053 C 
ATOM      7  C   UNL d   1      24.985 -16.492  -1.161  0.00  0.00     0.048 C 
ATOM      8  C   UNL d   1      23.609 -18.614  -0.868  0.00  0.00     0.105 C 
ATOM      9  C   UNL d   1      22.905 -17.479  -1.148  0.00  0.00     0.107 C 
ATOM     10  O   UNL d   1      22.841 -19.686  -0.600  0.00  0.00    -0.323 OA
ATOM     11  C   UNL d   1      23.655 -16.433  -1.645  0.00  0.00     0.070 C 
ATOM     12  O   UNL d   1      21.669 -17.676  -0.525  0.00  0.00    -0.323 OA
ATOM     13  C   UNL d   1      21.999 -18.920   0.243  0.00  0.00     0.352 C 
ATOM     14  N   UNL d   1      26.075 -15.828  -1.626  0.00  0.00    -0.322 N 
ATOM     15  C   UNL d   1      27.370 -16.316  -1.300  0.00  0.00     0.253 C 
ATOM     16  H   UNL d   1      25.915 -14.987  -2.099  0.00  0.00     0.169 HD
ATOM     17  O   UNL d   1      28.304 -16.486  -2.000  0.00  0.00    -0.268 OA
ENDBRANCH   2   3
ENDBRANCH   1   2
BRANCH   1  18
ATOM     18  C   UNL d   1      30.629 -14.014   1.619  0.00  0.00     0.153 C 
BRANCH  18  19
ATOM     19  C   UNL d   1      30.779 -14.445   3.089  0.00  0.00     0.254 C 
BRANCH  19  20
ATOM     20  N   UNL d   1      29.789 -14.588   4.166  0.00  0.00    -0.066 N 
ATOM     21  C   UNL d   1      30.102 -14.051   5.722  0.00  0.00     0.261 C 
ATOM     22  C   UNL d   1      28.901 -14.449   6.540  0.00  0.00     0.195 C 
ATOM     23  O   UNL d   1      27.735 -13.858   5.939  0.00  0.00    -0.388 OA
ATOM     24  C   UNL d   1      27.480 -14.347   4.614  0.00  0.00     0.195 C 
ATOM     25  C   UNL d   1      28.556 -13.929   3.663  0.00  0.00     0.261 C 
ATOM     26  H   UNL d   1      29.747 -15.603   4.317  0.00  0.00     0.280 HD
ENDBRANCH  19  20
ENDBRANCH  18  19
ENDBRANCH   1  18
BRANCH   1  27
ATOM     27  C   UNL d   1      28.534 -13.563   0.140  0.00  0.00     0.174 C 
ATOM     28  S   UNL d   1      27.135 -13.014   0.941  0.00  0.00    -0.041 SA
BRANCH  27  29
ATOM     29  N   UNL d   1      28.877 -13.171  -1.179  0.00  0.00    -0.333 N 
ATOM     30  H   UNL d   1      29.830 -13.251  -1.492  0.00  0.00     0.168 HD
BRANCH  29  31
ATOM     31  C   UNL d   1      27.929 -13.009  -2.247  0.00  0.00     0.035 C 
ATOM     32  C   UNL d   1      27.021 -11.945  -2.231  0.00  0.00     0.029 C 
ATOM     33  C   UNL d   1      25.986 -11.853  -3.160  0.00  0.00     0.004 C 
ATOM     34  C   UNL d   1      25.789 -12.883  -4.069  0.00  0.00     0.024 C 
ATOM     35  C   UNL d   1      26.732 -13.908  -4.146  0.00  0.00     0.036 C 
ATOM     36 CL   UNL d   1      26.455 -15.200  -5.254  0.00  0.00    -0.084 Cl
ATOM     37  C   UNL d   1      27.858 -13.925  -3.305  0.00  0.00     0.053 C 
ENDBRANCH  29  31
ENDBRANCH  27  29
ENDBRANCH   1  27
TORSDOF 8
ENDMDL
MODEL 5
REMARK VINA RESULT:    -9.518      4.910      7.505
REMARK INTER + INTRA:         -14.065
REMARK INTER:                 -11.905
REMARK INTRA:                  -2.160
REMARK CONF_INDEPENDENT:        2.386
REMARK UNBOUND:                -2.160
REMARK  8 active torsions:
REMARK  status: ('A' for Active; 'I' for Inactive)
REMARK    1  A    between atoms: C_11  and  C_12 
REMARK    2  A    between atoms: C_12  and  N_13 
REMARK    3  A    between atoms: N_13  and  C_14 
REMARK    4  A    between atoms: N_13  and  C_22 
REMARK    5  A    between atoms: C_14  and  C_15 
REMARK    6  A    between atoms: C_15  and  N_16 
REMARK    7  A    between atoms: C_22  and  N_24 
REMARK    8  A    between atoms: N_24  and  C_25 
ROOT
ATOM      1  N   UNL d   1      27.617 -15.395  -2.579  0.00  0.00    -0.352 N 
ENDROOT
BRANCH   1   2
ATOM      2  C   UNL d   1      27.474 -14.666  -3.969  0.00  0.00     0.169 C 
BRANCH   2   3
ATOM      3  C   UNL d   1      26.963 -13.272  -4.086  0.00  0.00     0.029 C 
ATOM      4  C   UNL d   1      27.171 -12.157  -3.378  0.00  0.00     0.028 C 
ATOM      5  C   UNL d   1      26.415 -10.947  -3.727  0.00  0.00    -0.006 C 
ATOM      6  C   UNL d   1      26.273  -9.996  -2.818  0.00  0.00     0.053 C 
ATOM      7  C   UNL d   1      25.637 -10.810  -4.872  0.00  0.00     0.048 C 
ATOM      8  C   UNL d   1      25.540  -8.916  -3.173  0.00  0.00     0.105 C 
ATOM      9  C   UNL d   1      25.462  -8.547  -4.484  0.00  0.00     0.107 C 
ATOM     10  O   UNL d   1      25.608  -7.883  -2.313  0.00  0.00    -0.323 OA
ATOM     11  C   UNL d   1      25.164  -9.567  -5.363  0.00  0.00     0.070 C 
ATOM     12  O   UNL d   1      26.033  -7.271  -4.519  0.00  0.00    -0.323 OA
ATOM     13  C   UNL d   1      26.569  -7.226  -3.120  0.00  0.00     0.352 C 
ATOM     14  N   UNL d   1      25.304 -12.058  -5.292  0.00  0.00    -0.322 N 
ATOM     15  C   UNL d   1      25.546 -13.162  -4.431  0.00  0.00     0.253 C 
ATOM     16  H   UNL d   1      24.987 -12.146  -6.213  0.00  0.00     0.169 HD
ATOM     17  O   UNL d   1      24.831 -14.056  -4.140  0.00  0.00    -0.268 OA
ENDBRANCH   2   3
ENDBRANCH   1   2
BRANCH   1  18
ATOM     18  C   UNL d   1      28.531 -16.607  -2.239  0.00  0.00     0.153 C 
BRANCH  18  19
ATOM     19  C   UNL d   1      28.781 -17.012  -0.776  0.00  0.00     0.254 C 
BRANCH  19  20
ATOM     20  N   UNL d   1      29.947 -16.824   0.100  0.00  0.00    -0.066 N 
ATOM     21  C   UNL d   1      31.379 -17.655  -0.157  0.00  0.00     0.261 C 
ATOM     22  C   UNL d   1      32.287 -17.263   0.981  0.00  0.00     0.195 C 
ATOM     23  O   UNL d   1      32.428 -15.831   0.968  0.00  0.00    -0.388 OA
ATOM     24  C   UNL d   1      31.191 -15.145   1.206  0.00  0.00     0.195 C 
ATOM     25  C   UNL d   1      30.222 -15.364   0.088  0.00  0.00     0.261 C 
ATOM     26  H   UNL d   1      29.643 -17.234   0.992  0.00  0.00     0.280 HD
ENDBRANCH  19  20
ENDBRANCH  18  19
ENDBRANCH   1  18
BRANCH   1  27
ATOM     27  C   UNL d   1      26.648 -14.931  -1.587  0.00  0.00     0.174 C 
ATOM     28  S   UNL d   1      27.123 -13.954  -0.275  0.00  0.00    -0.041 SA
BRANCH  27  29
ATOM     29  N   UNL d   1      25.321 -15.395  -1.768  0.00  0.00    -0.333 N 
ATOM     30  H   UNL d   1      24.811 -15.140  -2.597  0.00  0.00     0.168 HD
BRANCH  29  31
ATOM     31  C   UNL d   1      24.748 -16.503  -1.055  0.00  0.00     0.035 C 
ATOM     32  C   UNL d   1      25.570 -17.401  -0.366  0.00  0.00     0.029 C 
ATOM     33  C   UNL d   1      25.063 -18.572   0.196  0.00  0.00     0.004 C 
ATOM     34  C   UNL d   1      23.733 -18.908  -0.007  0.00  0.00     0.024 C 
ATOM     35  C   UNL d   1      22.887 -17.986  -0.623  0.00  0.00     0.036 C 
ATOM     36 CL   UNL d   1      21.245 -18.432  -0.901  0.00  0.00    -0.084 Cl
ATOM     37  C   UNL d   1      23.367 -16.739  -1.061  0.00  0.00     0.053 C 
ENDBRANCH  29  31
ENDBRANCH  27  29
ENDBRANCH   1  27
TORSDOF 8
ENDMDL
MODEL 6
REMARK VINA RESULT:    -9.459      3.871      6.814
REMARK INTER + INTRA:         -14.371
REMARK INTER:                 -11.846
REMARK INTRA:                  -2.525
REMARK CONF_INDEPENDENT:        2.386
REMARK UNBOUND:                -2.525
REMARK  8 active torsions:
REMARK  status: ('A' for Active; 'I' for Inactive)
REMARK    1  A    between atoms: C_11  and  C_12 
REMARK    2  A    between atoms: C_12  and  N_13 
REMARK    3  A    between atoms: N_13  and  C_14 
REMARK    4  A    between atoms: N_13  and  C_22 
REMARK    5  A    between atoms: C_14  and  C_15 
REMARK    6  A    between atoms: C_15  and  N_16 
REMARK    7  A    between atoms: C_22  and  N_24 
REMARK    8  A    between atoms: N_24  and  C_25 
ROOT
ATOM      1  N   UNL d   1      29.775 -14.495   1.191  0.00  0.00    -0.352 N 
ENDROOT
BRANCH   1   2
ATOM      2  C   UNL d   1      30.634 -15.487   0.318  0.00  0.00     0.169 C 
BRANCH   2   3
ATOM      3  C   UNL d   1      30.384 -15.682  -1.138  0.00  0.00     0.029 C 
ATOM      4  C   UNL d   1      29.771 -14.947  -2.071  0.00  0.00     0.028 C 
ATOM      5  C   UNL d   1      29.626 -15.498  -3.424  0.00  0.00    -0.006 C 
ATOM      6  C   UNL d   1      28.683 -15.013  -4.216  0.00  0.00     0.053 C 
ATOM      7  C   UNL d   1      30.256 -16.655  -3.872  0.00  0.00     0.048 C 
ATOM      8  C   UNL d   1      28.565 -15.575  -5.440  0.00  0.00     0.105 C 
ATOM      9  C   UNL d   1      29.652 -16.147  -6.035  0.00  0.00     0.107 C 
ATOM     10  O   UNL d   1      27.758 -14.911  -6.288  0.00  0.00    -0.323 OA
ATOM     11  C   UNL d   1      30.365 -17.016  -5.238  0.00  0.00     0.070 C 
ATOM     12  O   UNL d   1      29.848 -15.391  -7.195  0.00  0.00    -0.323 OA
ATOM     13  C   UNL d   1      28.867 -14.293  -6.918  0.00  0.00     0.352 C 
ATOM     14  N   UNL d   1      30.569 -17.400  -2.781  0.00  0.00    -0.322 N 
ATOM     15  C   UNL d   1      30.013 -17.044  -1.521  0.00  0.00     0.253 C 
ATOM     16  H   UNL d   1      31.237 -18.104  -2.900  0.00  0.00     0.169 HD
ATOM     17  O   UNL d   1      29.494 -17.728  -0.712  0.00  0.00    -0.268 OA
ENDBRANCH   2   3
ENDBRANCH   1   2
BRANCH   1  18
ATOM     18  C   UNL d   1      30.299 -13.398   2.162  0.00  0.00     0.153 C 
BRANCH  18  19
ATOM     19  C   UNL d   1      30.970 -13.787   3.492  0.00  0.00     0.254 C 
BRANCH  19  20
ATOM     20  N   UNL d   1      30.405 -14.086   4.815  0.00  0.00    -0.066 N 
ATOM     21  C   UNL d   1      30.406 -12.950   6.046  0.00  0.00     0.261 C 
ATOM     22  C   UNL d   1      29.830 -13.652   7.249  0.00  0.00     0.195 C 
ATOM     23  O   UNL d   1      28.521 -14.138   6.900  0.00  0.00    -0.388 OA
ATOM     24  C   UNL d   1      28.550 -15.121   5.855  0.00  0.00     0.195 C 
ATOM     25  C   UNL d   1      29.009 -14.527   4.561  0.00  0.00     0.261 C 
ATOM     26  H   UNL d   1      31.053 -14.786   5.197  0.00  0.00     0.280 HD
ENDBRANCH  19  20
ENDBRANCH  18  19
ENDBRANCH   1  18
BRANCH   1  27
ATOM     27  C   UNL d   1      28.344 -14.792   1.154  0.00  0.00     0.174 C 
ATOM     28  S   UNL d   1      27.196 -13.707   1.791  0.00  0.00    -0.041 SA
BRANCH  27  29
ATOM     29  N   UNL d   1      27.999 -16.054   0.608  0.00  0.00    -0.333 N 
ATOM     30  H   UNL d   1      28.391 -16.893   1.002  0.00  0.00     0.168 HD
BRANCH  29  31
ATOM     31  C   UNL d   1      26.851 -16.288  -0.225  0.00  0.00     0.035 C 
ATOM     32  C   UNL d   1      26.523 -15.389  -1.245  0.00  0.00     0.029 C 
ATOM     33  C   UNL d   1      25.332 -15.498  -1.961  0.00  0.00     0.004 C 
ATOM     34  C   UNL d   1      24.402 -16.462  -1.599  0.00  0.00     0.024 C 
ATOM     35  C   UNL d   1      24.749 -17.411  -0.638  0.00  0.00     0.036 C 
ATOM     36 CL   UNL d   1      23.571 -18.580  -0.170  0.00  0.00    -0.084 Cl
ATOM     37  C   UNL d   1      26.011 -17.390  -0.018  0.00  0.00     0.053 C 
ENDBRANCH  29  31
ENDBRANCH  27  29
ENDBRANCH   1  27
TORSDOF 8
ENDMDL
MODEL 7
REMARK VINA RESULT:    -8.850      4.622      7.679
REMARK INTER + INTRA:         -14.136
REMARK INTER:                 -11.236
REMARK INTRA:                  -2.900
REMARK CONF_INDEPENDENT:        2.386
REMARK UNBOUND:                -2.900
REMARK  8 active torsions:
REMARK  status: ('A' for Active; 'I' for Inactive)
REMARK    1  A    between atoms: C_11  and  C_12 
REMARK    2  A    between atoms: C_12  and  N_13 
REMARK    3  A    between atoms: N_13  and  C_14 
REMARK    4  A    between atoms: N_13  and  C_22 
REMARK    5  A    between atoms: C_14  and  C_15 
REMARK    6  A    between atoms: C_15  and  N_16 
REMARK    7  A    between atoms: C_22  and  N_24 
REMARK    8  A    between atoms: N_24  and  C_25 
ROOT
ATOM      1  N   UNL d   1      27.883 -15.005  -2.343  0.00  0.00    -0.352 N 
ENDROOT
BRANCH   1   2
ATOM      2  C   UNL d   1      28.488 -13.555  -2.470  0.00  0.00     0.169 C 
BRANCH   2   3
ATOM      3  C   UNL d   1      28.038 -12.429  -1.605  0.00  0.00     0.029 C 
ATOM      4  C   UNL d   1      27.439 -11.261  -1.858  0.00  0.00     0.028 C 
ATOM      5  C   UNL d   1      27.216 -10.325  -0.748  0.00  0.00    -0.006 C 
ATOM      6  C   UNL d   1      27.038  -9.042  -1.017  0.00  0.00     0.053 C 
ATOM      7  C   UNL d   1      27.400 -10.641   0.595  0.00  0.00     0.048 C 
ATOM      8  C   UNL d   1      26.871  -8.213   0.039  0.00  0.00     0.105 C 
ATOM      9  C   UNL d   1      26.338  -8.691   1.201  0.00  0.00     0.107 C 
ATOM     10  O   UNL d   1      26.471  -6.969  -0.280  0.00  0.00    -0.323 OA
ATOM     11  C   UNL d   1      26.901  -9.860   1.666  0.00  0.00     0.070 C 
ATOM     12  O   UNL d   1      25.156  -7.963   1.363  0.00  0.00    -0.323 OA
ATOM     13  C   UNL d   1      25.124  -7.283   0.029  0.00  0.00     0.352 C 
ATOM     14  N   UNL d   1      28.254 -11.696   0.654  0.00  0.00    -0.322 N 
ATOM     15  C   UNL d   1      28.957 -12.080  -0.521  0.00  0.00     0.253 C 
ATOM     16  H   UNL d   1      28.280 -12.200   1.491  0.00  0.00     0.169 HD
ATOM     17  O   UNL d   1      30.102 -12.328  -0.661  0.00  0.00    -0.268 OA
ENDBRANCH   2   3
ENDBRANCH   1   2
BRANCH   1  18
ATOM     18  C   UNL d   1      28.637 -16.311  -1.962  0.00  0.00     0.153 C 
BRANCH  18  19
ATOM     19  C   UNL d   1      29.556 -16.352  -0.728  0.00  0.00     0.254 C 
BRANCH  19  20
ATOM     20  N   UNL d   1      29.418 -15.754   0.607  0.00  0.00    -0.066 N 
ATOM     21  C   UNL d   1      30.572 -14.707   1.224  0.00  0.00     0.261 C 
ATOM     22  C   UNL d   1      30.123 -14.384   2.625  0.00  0.00     0.195 C 
ATOM     23  O   UNL d   1      28.799 -13.824   2.553  0.00  0.00    -0.388 OA
ATOM     24  C   UNL d   1      27.828 -14.746   2.038  0.00  0.00     0.195 C 
ATOM     25  C   UNL d   1      28.096 -15.075   0.604  0.00  0.00     0.261 C 
ATOM     26  H   UNL d   1      29.529 -16.557   1.239  0.00  0.00     0.280 HD
ENDBRANCH  19  20
ENDBRANCH  18  19
ENDBRANCH   1  18
BRANCH   1  27
ATOM     27  C   UNL d   1      26.494 -15.087  -2.791  0.00  0.00     0.174 C 
ATOM     28  S   UNL d   1      26.102 -15.200  -4.445  0.00  0.00    -0.041 SA
BRANCH  27  29
ATOM     29  N   UNL d   1      25.517 -15.008  -1.767  0.00  0.00    -0.333 N 
ATOM     30  H   UNL d   1      24.950 -14.181  -1.680  0.00  0.00     0.168 HD
BRANCH  29  31
ATOM     31  C   UNL d   1      24.998 -16.143  -1.056  0.00  0.00     0.035 C 
ATOM     32  C   UNL d   1      25.862 -17.007  -0.374  0.00  0.00     0.029 C 
ATOM     33  C   UNL d   1      25.411 -18.201   0.184  0.00  0.00     0.004 C 
ATOM     34  C   UNL d   1      24.096 -18.596  -0.014  0.00  0.00     0.024 C 
ATOM     35  C   UNL d   1      23.208 -17.710  -0.622  0.00  0.00     0.036 C 
ATOM     36 CL   UNL d   1      21.585 -18.228  -0.895  0.00  0.00    -0.084 Cl
ATOM     37  C   UNL d   1      23.629 -16.441  -1.056  0.00  0.00     0.053 C 
ENDBRANCH  29  31
ENDBRANCH  27  29
ENDBRANCH   1  27
TORSDOF 8
ENDMDL
MODEL 8
REMARK VINA RESULT:    -8.595      4.181      7.548
REMARK INTER + INTRA:         -14.530
REMARK INTER:                 -10.981
REMARK INTRA:                  -3.549
REMARK CONF_INDEPENDENT:        2.386
REMARK UNBOUND:                -3.549
REMARK  8 active torsions:
REMARK  status: ('A' for Active; 'I' for Inactive)
REMARK    1  A    between atoms: C_11  and  C_12 
REMARK    2  A    between atoms: C_12  and  N_13 
REMARK    3  A    between atoms: N_13  and  C_14 
REMARK    4  A    between atoms: N_13  and  C_22 
REMARK    5  A    between atoms: C_14  and  C_15 
REMARK    6  A    between atoms: C_15  and  N_16 
REMARK    7  A    between atoms: C_22  and  N_24 
REMARK    8  A    between atoms: N_24  and  C_25 
ROOT
ATOM      1  N   UNL d   1      29.880 -15.168   0.418  0.00  0.00    -0.352 N 
ENDROOT
BRANCH   1   2
ATOM      2  C   UNL d   1      29.242 -13.916  -0.296  0.00  0.00     0.169 C 
BRANCH   2   3
ATOM      3  C   UNL d   1      28.556 -12.833   0.463  0.00  0.00     0.029 C 
ATOM      4  C   UNL d   1      28.980 -11.694   1.020  0.00  0.00     0.028 C 
ATOM      5  C   UNL d   1      28.025 -10.886   1.789  0.00  0.00    -0.006 C 
ATOM      6  C   UNL d   1      28.487 -10.024   2.681  0.00  0.00     0.053 C 
ATOM      7  C   UNL d   1      26.652 -11.109   1.819  0.00  0.00     0.048 C 
ATOM      8  C   UNL d   1      27.569  -9.327   3.390  0.00  0.00     0.105 C 
ATOM      9  C   UNL d   1      26.341  -9.074   2.850  0.00  0.00     0.107 C 
ATOM     10  O   UNL d   1      28.072  -8.311   4.115  0.00  0.00    -0.323 OA
ATOM     11  C   UNL d   1      25.708 -10.168   2.299  0.00  0.00     0.070 C 
ATOM     12  O   UNL d   1      26.280  -7.680   2.770  0.00  0.00    -0.323 OA
ATOM     13  C   UNL d   1      27.703  -7.371   3.122  0.00  0.00     0.352 C 
ATOM     14  N   UNL d   1      26.441 -12.406   1.475  0.00  0.00    -0.322 N 
ATOM     15  C   UNL d   1      27.550 -13.294   1.419  0.00  0.00     0.253 C 
ATOM     16  H   UNL d   1      25.536 -12.650   1.197  0.00  0.00     0.169 HD
ATOM     17  O   UNL d   1      27.663 -14.380   1.867  0.00  0.00    -0.268 OA
ENDBRANCH   2   3
ENDBRANCH   1   2
BRANCH   1  18
ATOM     18  C   UNL d   1      31.156 -15.199   1.307  0.00  0.00     0.153 C 
BRANCH  18  19
ATOM     19  C   UNL d   1      31.098 -14.738   2.774  0.00  0.00     0.254 C 
BRANCH  19  20
ATOM     20  N   UNL d   1      29.963 -14.527   3.683  0.00  0.00    -0.066 N 
ATOM     21  C   UNL d   1      29.930 -15.200   5.217  0.00  0.00     0.261 C 
ATOM     22  C   UNL d   1      28.587 -14.833   5.795  0.00  0.00     0.195 C 
ATOM     23  O   UNL d   1      28.471 -13.399   5.781  0.00  0.00    -0.388 OA
ATOM     24  C   UNL d   1      28.485 -12.850   4.455  0.00  0.00     0.195 C 
ATOM     25  C   UNL d   1      29.812 -13.053   3.795  0.00  0.00     0.261 C 
ATOM     26  H   UNL d   1      29.197 -15.041   3.230  0.00  0.00     0.280 HD
ENDBRANCH  19  20
ENDBRANCH  18  19
ENDBRANCH   1  18
BRANCH   1  27
ATOM     27  C   UNL d   1      29.241 -16.428   0.041  0.00  0.00     0.174 C 
ATOM     28  S   UNL d   1      29.982 -17.505  -1.051  0.00  0.00    -0.041 SA
BRANCH  27  29
ATOM     29  N   UNL d   1      27.957 -16.651   0.599  0.00  0.00    -0.333 N 
ATOM     30  H   UNL d   1      27.812 -16.522   1.586  0.00  0.00     0.168 HD
BRANCH  29  31
ATOM     31  C   UNL d   1      26.740 -16.691  -0.164  0.00  0.00     0.035 C 
ATOM     32  C   UNL d   1      26.414 -15.644  -1.031  0.00  0.00     0.029 C 
ATOM     33  C   UNL d   1      25.171 -15.574  -1.658  0.00  0.00     0.004 C 
ATOM     34  C   UNL d   1      24.196 -16.511  -1.351  0.00  0.00     0.024 C 
ATOM     35  C   UNL d   1      24.533 -17.602  -0.550  0.00  0.00     0.036 C 
ATOM     36 CL   UNL d   1      23.301 -18.739  -0.146  0.00  0.00    -0.084 Cl
ATOM     37  C   UNL d   1      25.832 -17.751  -0.034  0.00  0.00     0.053 C 
ENDBRANCH  29  31
ENDBRANCH  27  29
ENDBRANCH   1  27
TORSDOF 8
ENDMDL
MODEL 9
REMARK VINA RESULT:    -7.803      4.516      7.177
REMARK INTER + INTRA:         -14.152
REMARK INTER:                 -10.189
REMARK INTRA:                  -3.963
REMARK CONF_INDEPENDENT:        2.386
REMARK UNBOUND:                -3.963
REMARK  8 active torsions:
REMARK  status: ('A' for Active; 'I' for Inactive)
REMARK    1  A    between atoms: C_11  and  C_12 
REMARK    2  A    between atoms: C_12  and  N_13 
REMARK    3  A    between atoms: N_13  and  C_14 
REMARK    4  A    between atoms: N_13  and  C_22 
REMARK    5  A    between atoms: C_14  and  C_15 
REMARK    6  A    between atoms: C_15  and  N_16 
REMARK    7  A    between atoms: C_22  and  N_24 
REMARK    8  A    between atoms: N_24  and  C_25 
ROOT
ATOM      1  N   UNL d   1      30.097 -15.088  -4.173  0.00  0.00    -0.352 N 
ENDROOT
BRANCH   1   2
ATOM      2  C   UNL d   1      30.175 -16.142  -3.005  0.00  0.00     0.169 C 
BRANCH   2   3
ATOM      3  C   UNL d   1      28.977 -16.539  -2.212  0.00  0.00     0.029 C 
ATOM      4  C   UNL d   1      27.664 -16.360  -2.383  0.00  0.00     0.028 C 
ATOM      5  C   UNL d   1      26.745 -16.817  -1.333  0.00  0.00    -0.006 C 
ATOM      6  C   UNL d   1      25.534 -16.287  -1.264  0.00  0.00     0.053 C 
ATOM      7  C   UNL d   1      27.119 -17.609  -0.252  0.00  0.00     0.048 C 
ATOM      8  C   UNL d   1      24.736 -16.714  -0.260  0.00  0.00     0.105 C 
ATOM      9  C   UNL d   1      24.903 -17.965   0.258  0.00  0.00     0.107 C 
ATOM     10  O   UNL d   1      23.451 -16.325  -0.359  0.00  0.00    -0.323 OA
ATOM     11  C   UNL d   1      26.202 -18.297   0.580  0.00  0.00     0.070 C 
ATOM     12  O   UNL d   1      23.694 -18.614  -0.012  0.00  0.00    -0.323 OA
ATOM     13  C   UNL d   1      23.075 -17.579  -0.900  0.00  0.00     0.352 C 
ATOM     14  N   UNL d   1      28.456 -17.449  -0.071  0.00  0.00    -0.322 N 
ATOM     15  C   UNL d   1      29.125 -16.403  -0.763  0.00  0.00     0.253 C 
ATOM     16  H   UNL d   1      28.915 -18.124   0.468  0.00  0.00     0.169 HD
ATOM     17  O   UNL d   1      29.896 -15.608  -0.355  0.00  0.00    -0.268 OA
ENDBRANCH   2   3
ENDBRANCH   1   2
BRANCH   1  18
ATOM     18  C   UNL d   1      30.284 -13.547  -4.067  0.00  0.00     0.153 C 
BRANCH  18  19
ATOM     19  C   UNL d   1      29.865 -12.795  -2.791  0.00  0.00     0.254 C 
BRANCH  19  20
ATOM     20  N   UNL d   1      28.952 -13.165  -1.700  0.00  0.00    -0.066 N 
ATOM     21  C   UNL d   1      29.271 -12.745  -0.110  0.00  0.00     0.261 C 
ATOM     22  C   UNL d   1      28.168 -13.368   0.706  0.00  0.00     0.195 C 
ATOM     23  O   UNL d   1      26.911 -12.875   0.210  0.00  0.00    -0.388 OA
ATOM     24  C   UNL d   1      26.655 -13.262  -1.148  0.00  0.00     0.195 C 
ATOM     25  C   UNL d   1      27.625 -12.622  -2.090  0.00  0.00     0.261 C 
ATOM     26  H   UNL d   1      29.042 -14.187  -1.652  0.00  0.00     0.280 HD
ENDBRANCH  19  20
ENDBRANCH  18  19
ENDBRANCH   1  18
BRANCH   1  27
ATOM     27  C   UNL d   1      29.649 -15.668  -5.438  0.00  0.00     0.174 C 
ATOM     28  S   UNL d   1      30.383 -17.063  -6.082  0.00  0.00    -0.041 SA
BRANCH  27  29
ATOM     29  N   UNL d   1      28.614 -14.960  -6.100  0.00  0.00    -0.333 N 
ATOM     30  H   UNL d   1      28.457 -15.108  -7.083  0.00  0.00     0.168 HD
BRANCH  29  31
ATOM     31  C   UNL d   1      27.520 -14.314  -5.430  0.00  0.00     0.035 C 
ATOM     32  C   UNL d   1      26.505 -15.073  -4.839  0.00  0.00     0.029 C 
ATOM     33  C   UNL d   1      25.352 -14.481  -4.327  0.00  0.00     0.004 C 
ATOM     34  C   UNL d   1      25.156 -13.117  -4.485  0.00  0.00     0.024 C 
ATOM     35  C   UNL d   1      26.191 -12.339  -5.001  0.00  0.00     0.036 C 
ATOM     36 CL   UNL d   1      25.920 -10.651  -5.227  0.00  0.00    -0.084 Cl
ATOM     37  C   UNL d   1      27.414 -12.917  -5.384  0.00  0.00     0.053 C 
ENDBRANCH  29  31
ENDBRANCH  27  29
ENDBRANCH   1  27
TORSDOF 8
ENDMDL
