MODEL 1
REMARK VINA RESULT:    -9.368      0.000      0.000
REMARK INTER + INTRA:         -14.137
REMARK INTER:                 -12.053
REMARK INTRA:                  -2.084
REMARK CONF_INDEPENDENT:        2.685
REMARK UNBOUND:                -2.084
REMARK  9 active torsions:
REMARK  status: ('A' for Active; 'I' for Inactive)
REMARK    1  A    between atoms: C_2  and  O_3 
REMARK    2  A    between atoms: O_3  and  C_4 
REMARK    3  A    between atoms: C_9  and  N_10 
REMARK       I    between atoms: N_10  and  C_11 
REMARK    4  A    between atoms: C_11  and  C_13 
REMARK    5  A    between atoms: C_16  and  C_17 
REMARK    6  A    between atoms: C_17  and  O_18 
REMARK    7  A    between atoms: N_26  and  C_27 
REMARK    8  A    between atoms: C_30  and  O_31 
REMARK    9  A    between atoms: O_31  and  C_32 
ROOT
ATOM      1  C   UNL d   1      27.945 -16.196  -1.784  0.00  0.00     0.084 C 
ATOM      2  C   UNL d   1      28.382 -15.072  -2.365  0.00  0.00     0.036 C 
ATOM      3  C   UNL d   1      27.494 -14.194  -3.099  0.00  0.00     0.011 A 
ATOM      4  C   UNL d   1      27.994 -13.196  -3.944  0.00  0.00    -0.004 A 
ATOM      5  C   UNL d   1      27.055 -12.518  -4.707  0.00  0.00     0.127 A 
ATOM      6  N   UNL d   1      25.722 -12.772  -4.685  0.00  0.00    -0.262 NA
ATOM      7  C   UNL d   1      25.263 -13.736  -3.855  0.00  0.00     0.065 A 
ATOM      8  C   UNL d   1      23.786 -13.982  -3.845  0.00  0.00     0.073 C 
ATOM      9  C   UNL d   1      26.131 -14.469  -3.059  0.00  0.00     0.113 A 
ATOM     10  O   UNL d   1      25.638 -15.499  -2.234  0.00  0.00    -0.290 OA
ATOM     11  C   UNL d   1      26.511 -16.315  -1.524  0.00  0.00     0.164 C 
ATOM     12  N   UNL d   1      25.958 -16.969  -0.563  0.00  0.00    -0.336 N 
ATOM     13  H   UNL d   1      26.520 -17.440   0.148  0.00  0.00     0.168 HD
ENDROOT
BRANCH   1  14
ATOM     14  C   UNL d   1      29.040 -17.126  -1.399  0.00  0.00     0.260 C 
ATOM     15  N   UNL d   1      30.124 -17.162  -2.242  0.00  0.00    -0.320 N 
ATOM     16  H   UNL d   1      30.582 -16.275  -2.419  0.00  0.00     0.169 HD
ATOM     17  O   UNL d   1      28.914 -17.840  -0.400  0.00  0.00    -0.267 OA
BRANCH  15  18
ATOM     18  C   UNL d   1      30.976 -18.304  -2.306  0.00  0.00     0.068 A 
ATOM     19  C   UNL d   1      31.701 -18.609  -1.139  0.00  0.00     0.032 A 
ATOM     20  C   UNL d   1      32.509 -19.749  -1.069  0.00  0.00     0.002 A 
ATOM     21  C   UNL d   1      32.594 -20.605  -2.159  0.00  0.00     0.003 A 
ATOM     22  C   UNL d   1      31.932 -20.280  -3.343  0.00  0.00     0.039 A 
ATOM     23  C   UNL d   1      31.136 -19.127  -3.443  0.00  0.00     0.095 A 
BRANCH  23  24
ATOM     24  O   UNL d   1      30.528 -19.008  -4.664  0.00  0.00    -0.349 OA
BRANCH  24  25
ATOM     25  C   UNL d   1      30.975 -18.026  -5.591  0.00  0.00     0.171 C 
ATOM     26  C   UNL d   1      30.105 -16.780  -5.436  0.00  0.00     0.034 C 
ENDBRANCH  24  25
ENDBRANCH  23  24
ENDBRANCH  15  18
ENDBRANCH   1  14
BRANCH  12  27
ATOM     27  C   UNL d   1      24.602 -17.334  -0.577  0.00  0.00     0.034 A 
ATOM     28  C   UNL d   1      23.621 -16.338  -0.608  0.00  0.00     0.032 A 
ATOM     29  C   UNL d   1      22.270 -16.713  -0.667  0.00  0.00     0.039 A 
ATOM     30  C   UNL d   1      21.911 -18.069  -0.704  0.00  0.00     0.076 A 
ATOM     31  C   UNL d   1      22.908 -19.040  -0.604  0.00  0.00     0.039 A 
ATOM     32  C   UNL d   1      24.246 -18.681  -0.537  0.00  0.00     0.032 A 
BRANCH  30  33
ATOM     33  O   UNL d   1      20.574 -18.347  -0.900  0.00  0.00    -0.311 OA
BRANCH  33  34
ATOM     34  C   UNL d   1      19.954 -19.233  -0.045  0.00  0.00     0.076 A 
ATOM     35  C   UNL d   1      18.882 -19.989  -0.520  0.00  0.00     0.037 A 
ATOM     36  C   UNL d   1      18.185 -20.827   0.355  0.00  0.00     0.003 A 
ATOM     37  C   UNL d   1      18.612 -20.970   1.678  0.00  0.00     0.000 A 
ATOM     38  C   UNL d   1      19.690 -20.223   2.147  0.00  0.00     0.003 A 
ATOM     39  C   UNL d   1      20.335 -19.325   1.298  0.00  0.00     0.037 A 
ENDBRANCH  33  34
ENDBRANCH  30  33
ENDBRANCH  12  27
BRANCH   4  40
ATOM     40  C   UNL d   1      29.473 -12.910  -4.044  0.00  0.00     0.205 C 
BRANCH  40  41
ATOM     41  O   UNL d   1      30.088 -12.740  -2.782  0.00  0.00    -0.396 OA
ATOM     42  H   UNL d   1      30.614 -11.922  -2.818  0.00  0.00     0.209 HD
ENDBRANCH  40  41
ENDBRANCH   4  40
TORSDOF 9
ENDMDL
MODEL 2
REMARK VINA RESULT:    -9.161      1.427      2.155
REMARK INTER + INTRA:         -13.322
REMARK INTER:                 -11.846
REMARK INTRA:                  -1.476
REMARK CONF_INDEPENDENT:        2.685
REMARK UNBOUND:                -1.476
REMARK  9 active torsions:
REMARK  status: ('A' for Active; 'I' for Inactive)
REMARK    1  A    between atoms: C_2  and  O_3 
REMARK    2  A    between atoms: O_3  and  C_4 
REMARK    3  A    between atoms: C_9  and  N_10 
REMARK       I    between atoms: N_10  and  C_11 
REMARK    4  A    between atoms: C_11  and  C_13 
REMARK    5  A    between atoms: C_16  and  C_17 
REMARK    6  A    between atoms: C_17  and  O_18 
REMARK    7  A    between atoms: N_26  and  C_27 
REMARK    8  A    between atoms: C_30  and  O_31 
REMARK    9  A    between atoms: O_31  and  C_32 
ROOT
ATOM      1  C   UNL d   1      28.169 -15.889  -1.478  0.00  0.00     0.084 C 
ATOM      2  C   UNL d   1      28.563 -14.741  -2.042  0.00  0.00     0.036 C 
ATOM      3  C   UNL d   1      27.663 -13.930  -2.836  0.00  0.00     0.011 A 
ATOM      4  C   UNL d   1      28.144 -12.903  -3.658  0.00  0.00    -0.004 A 
ATOM      5  C   UNL d   1      27.208 -12.295  -4.483  0.00  0.00     0.127 A 
ATOM      6  N   UNL d   1      25.897 -12.642  -4.540  0.00  0.00    -0.262 NA
ATOM      7  C   UNL d   1      25.456 -13.630  -3.731  0.00  0.00     0.065 A 
ATOM      8  C   UNL d   1      24.001 -13.978  -3.808  0.00  0.00     0.073 C 
ATOM      9  C   UNL d   1      26.322 -14.298  -2.877  0.00  0.00     0.113 A 
ATOM     10  O   UNL d   1      25.851 -15.356  -2.074  0.00  0.00    -0.290 OA
ATOM     11  C   UNL d   1      26.733 -16.106  -1.305  0.00  0.00     0.164 C 
ATOM     12  N   UNL d   1      26.168 -16.792  -0.374  0.00  0.00    -0.336 N 
ATOM     13  H   UNL d   1      26.718 -17.220   0.375  0.00  0.00     0.168 HD
ENDROOT
BRANCH   1  14
ATOM     14  C   UNL d   1      29.300 -16.739  -1.019  0.00  0.00     0.260 C 
ATOM     15  N   UNL d   1      29.860 -16.397   0.189  0.00  0.00    -0.320 N 
ATOM     16  H   UNL d   1      29.225 -16.353   0.979  0.00  0.00     0.169 HD
ATOM     17  O   UNL d   1      29.709 -17.654  -1.739  0.00  0.00    -0.267 OA
BRANCH  15  18
ATOM     18  C   UNL d   1      31.202 -16.754   0.512  0.00  0.00     0.068 A 
ATOM     19  C   UNL d   1      31.974 -15.770   1.155  0.00  0.00     0.032 A 
ATOM     20  C   UNL d   1      33.278 -16.040   1.582  0.00  0.00     0.002 A 
ATOM     21  C   UNL d   1      33.824 -17.301   1.383  0.00  0.00     0.003 A 
ATOM     22  C   UNL d   1      33.093 -18.265   0.690  0.00  0.00     0.039 A 
ATOM     23  C   UNL d   1      31.792 -18.006   0.230  0.00  0.00     0.095 A 
BRANCH  23  24
ATOM     24  O   UNL d   1      31.221 -19.091  -0.380  0.00  0.00    -0.349 OA
BRANCH  24  25
ATOM     25  C   UNL d   1      31.992 -19.909  -1.252  0.00  0.00     0.171 C 
ATOM     26  C   UNL d   1      31.943 -19.305  -2.654  0.00  0.00     0.034 C 
ENDBRANCH  24  25
ENDBRANCH  23  24
ENDBRANCH  15  18
ENDBRANCH   1  14
BRANCH  12  27
ATOM     27  C   UNL d   1      24.845 -17.250  -0.467  0.00  0.00     0.034 A 
ATOM     28  C   UNL d   1      23.797 -16.325  -0.502  0.00  0.00     0.032 A 
ATOM     29  C   UNL d   1      22.481 -16.791  -0.641  0.00  0.00     0.039 A 
ATOM     30  C   UNL d   1      22.222 -18.165  -0.751  0.00  0.00     0.076 A 
ATOM     31  C   UNL d   1      23.281 -19.068  -0.644  0.00  0.00     0.039 A 
ATOM     32  C   UNL d   1      24.585 -18.619  -0.499  0.00  0.00     0.032 A 
BRANCH  30  33
ATOM     33  O   UNL d   1      20.919 -18.528  -1.021  0.00  0.00    -0.311 OA
BRANCH  33  34
ATOM     34  C   UNL d   1      20.248 -19.308  -0.103  0.00  0.00     0.076 A 
ATOM     35  C   UNL d   1      19.128 -20.027  -0.521  0.00  0.00     0.037 A 
ATOM     36  C   UNL d   1      18.384 -20.752   0.414  0.00  0.00     0.003 A 
ATOM     37  C   UNL d   1      18.808 -20.825   1.743  0.00  0.00     0.000 A 
ATOM     38  C   UNL d   1      19.933 -20.115   2.156  0.00  0.00     0.003 A 
ATOM     39  C   UNL d   1      20.629 -19.325   1.243  0.00  0.00     0.037 A 
ENDBRANCH  33  34
ENDBRANCH  30  33
ENDBRANCH  12  27
BRANCH   4  40
ATOM     40  C   UNL d   1      29.603 -12.516  -3.670  0.00  0.00     0.205 C 
BRANCH  40  41
ATOM     41  O   UNL d   1      30.467 -13.627  -3.803  0.00  0.00    -0.396 OA
ATOM     42  H   UNL d   1      30.891 -13.570  -4.677  0.00  0.00     0.209 HD
ENDBRANCH  40  41
ENDBRANCH   4  40
TORSDOF 9
ENDMDL
MODEL 3
REMARK VINA RESULT:    -8.934      2.594      3.514
REMARK INTER + INTRA:         -12.844
REMARK INTER:                 -11.618
REMARK INTRA:                  -1.225
REMARK CONF_INDEPENDENT:        2.685
REMARK UNBOUND:                -1.225
REMARK  9 active torsions:
REMARK  status: ('A' for Active; 'I' for Inactive)
REMARK    1  A    between atoms: C_2  and  O_3 
REMARK    2  A    between atoms: O_3  and  C_4 
REMARK    3  A    between atoms: C_9  and  N_10 
REMARK       I    between atoms: N_10  and  C_11 
REMARK    4  A    between atoms: C_11  and  C_13 
REMARK    5  A    between atoms: C_16  and  C_17 
REMARK    6  A    between atoms: C_17  and  O_18 
REMARK    7  A    between atoms: N_26  and  C_27 
REMARK    8  A    between atoms: C_30  and  O_31 
REMARK    9  A    between atoms: O_31  and  C_32 
ROOT
ATOM      1  C   UNL d   1      29.105 -16.716  -1.488  0.00  0.00     0.084 C 
ATOM      2  C   UNL d   1      29.727 -15.917  -2.365  0.00  0.00     0.036 C 
ATOM      3  C   UNL d   1      29.046 -15.374  -3.522  0.00  0.00     0.011 A 
ATOM      4  C   UNL d   1      29.759 -14.795  -4.579  0.00  0.00    -0.004 A 
ATOM      5  C   UNL d   1      29.013 -14.446  -5.696  0.00  0.00     0.127 A 
ATOM      6  N   UNL d   1      27.676 -14.641  -5.817  0.00  0.00    -0.262 NA
ATOM      7  C   UNL d   1      27.010 -15.196  -4.779  0.00  0.00     0.065 A 
ATOM      8  C   UNL d   1      25.532 -15.385  -4.940  0.00  0.00     0.073 C 
ATOM      9  C   UNL d   1      27.673 -15.581  -3.624  0.00  0.00     0.113 A 
ATOM     10  O   UNL d   1      26.968 -16.197  -2.572  0.00  0.00    -0.290 OA
ATOM     11  C   UNL d   1      27.644 -16.693  -1.463  0.00  0.00     0.164 C 
ATOM     12  N   UNL d   1      26.891 -16.908  -0.441  0.00  0.00    -0.336 N 
ATOM     13  H   UNL d   1      27.292 -17.078   0.484  0.00  0.00     0.168 HD
ENDROOT
BRANCH   1  14
ATOM     14  C   UNL d   1      30.040 -17.448  -0.591  0.00  0.00     0.260 C 
ATOM     15  N   UNL d   1      30.554 -16.728   0.460  0.00  0.00    -0.320 N 
ATOM     16  H   UNL d   1      29.876 -16.297   1.080  0.00  0.00     0.169 HD
ATOM     17  O   UNL d   1      30.344 -18.616  -0.847  0.00  0.00    -0.267 OA
BRANCH  15  18
ATOM     18  C   UNL d   1      31.788 -17.091   1.074  0.00  0.00     0.068 A 
ATOM     19  C   UNL d   1      32.219 -18.416   0.877  0.00  0.00     0.032 A 
ATOM     20  C   UNL d   1      33.450 -18.857   1.373  0.00  0.00     0.002 A 
ATOM     21  C   UNL d   1      34.274 -17.975   2.062  0.00  0.00     0.003 A 
ATOM     22  C   UNL d   1      33.831 -16.679   2.320  0.00  0.00     0.039 A 
ATOM     23  C   UNL d   1      32.586 -16.224   1.853  0.00  0.00     0.095 A 
BRANCH  23  24
ATOM     24  O   UNL d   1      32.353 -14.910   2.162  0.00  0.00    -0.349 OA
BRANCH  24  25
ATOM     25  C   UNL d   1      33.443 -14.034   2.422  0.00  0.00     0.171 C 
ATOM     26  C   UNL d   1      32.895 -12.622   2.621  0.00  0.00     0.034 C 
ENDBRANCH  24  25
ENDBRANCH  23  24
ENDBRANCH  15  18
ENDBRANCH   1  14
BRANCH  12  27
ATOM     27  C   UNL d   1      25.527 -17.219  -0.556  0.00  0.00     0.034 A 
ATOM     28  C   UNL d   1      24.618 -16.214  -0.899  0.00  0.00     0.032 A 
ATOM     29  C   UNL d   1      23.264 -16.544  -1.056  0.00  0.00     0.039 A 
ATOM     30  C   UNL d   1      22.830 -17.866  -0.880  0.00  0.00     0.076 A 
ATOM     31  C   UNL d   1      23.748 -18.835  -0.472  0.00  0.00     0.039 A 
ATOM     32  C   UNL d   1      25.088 -18.519  -0.306  0.00  0.00     0.032 A 
BRANCH  30  33
ATOM     33  O   UNL d   1      21.511 -18.129  -1.187  0.00  0.00    -0.311 OA
BRANCH  33  34
ATOM     34  C   UNL d   1      20.787 -18.941  -0.340  0.00  0.00     0.076 A 
ATOM     35  C   UNL d   1      19.744 -19.703  -0.866  0.00  0.00     0.037 A 
ATOM     36  C   UNL d   1      18.943 -20.464  -0.010  0.00  0.00     0.003 A 
ATOM     37  C   UNL d   1      19.238 -20.527   1.354  0.00  0.00     0.000 A 
ATOM     38  C   UNL d   1      20.287 -19.774   1.876  0.00  0.00     0.003 A 
ATOM     39  C   UNL d   1      21.035 -18.950   1.037  0.00  0.00     0.037 A 
ENDBRANCH  33  34
ENDBRANCH  30  33
ENDBRANCH  12  27
BRANCH   4  40
ATOM     40  C   UNL d   1      31.254 -14.604  -4.515  0.00  0.00     0.205 C 
BRANCH  40  41
ATOM     41  O   UNL d   1      31.969 -15.824  -4.556  0.00  0.00    -0.396 OA
ATOM     42  H   UNL d   1      32.715 -15.709  -5.169  0.00  0.00     0.209 HD
ENDBRANCH  40  41
ENDBRANCH   4  40
TORSDOF 9
ENDMDL
MODEL 4
REMARK VINA RESULT:    -8.811      1.055      1.953
REMARK INTER + INTRA:         -13.587
REMARK INTER:                 -11.496
REMARK INTRA:                  -2.092
REMARK CONF_INDEPENDENT:        2.685
REMARK UNBOUND:                -2.092
REMARK  9 active torsions:
REMARK  status: ('A' for Active; 'I' for Inactive)
REMARK    1  A    between atoms: C_2  and  O_3 
REMARK    2  A    between atoms: O_3  and  C_4 
REMARK    3  A    between atoms: C_9  and  N_10 
REMARK       I    between atoms: N_10  and  C_11 
REMARK    4  A    between atoms: C_11  and  C_13 
REMARK    5  A    between atoms: C_16  and  C_17 
REMARK    6  A    between atoms: C_17  and  O_18 
REMARK    7  A    between atoms: N_26  and  C_27 
REMARK    8  A    between atoms: C_30  and  O_31 
REMARK    9  A    between atoms: O_31  and  C_32 
ROOT
ATOM      1  C   UNL d   1      28.080 -16.204  -1.674  0.00  0.00     0.084 C 
ATOM      2  C   UNL d   1      28.521 -15.074  -2.240  0.00  0.00     0.036 C 
ATOM      3  C   UNL d   1      27.640 -14.192  -2.978  0.00  0.00     0.011 A 
ATOM      4  C   UNL d   1      28.146 -13.185  -3.808  0.00  0.00    -0.004 A 
ATOM      5  C   UNL d   1      27.214 -12.503  -4.576  0.00  0.00     0.127 A 
ATOM      6  N   UNL d   1      25.882 -12.762  -4.573  0.00  0.00    -0.262 NA
ATOM      7  C   UNL d   1      25.417 -13.734  -3.757  0.00  0.00     0.065 A 
ATOM      8  C   UNL d   1      23.940 -13.986  -3.768  0.00  0.00     0.073 C 
ATOM      9  C   UNL d   1      26.276 -14.472  -2.957  0.00  0.00     0.113 A 
ATOM     10  O   UNL d   1      25.777 -15.511  -2.148  0.00  0.00    -0.290 OA
ATOM     11  C   UNL d   1      26.644 -16.331  -1.434  0.00  0.00     0.164 C 
ATOM     12  N   UNL d   1      26.081 -16.995  -0.486  0.00  0.00    -0.336 N 
ATOM     13  H   UNL d   1      26.636 -17.471   0.228  0.00  0.00     0.168 HD
ENDROOT
BRANCH   1  14
ATOM     14  C   UNL d   1      29.174 -17.134  -1.284  0.00  0.00     0.260 C 
ATOM     15  N   UNL d   1      30.392 -16.918  -1.884  0.00  0.00    -0.320 N 
ATOM     16  H   UNL d   1      30.784 -15.988  -1.775  0.00  0.00     0.169 HD
ATOM     17  O   UNL d   1      28.940 -18.061  -0.504  0.00  0.00    -0.267 OA
BRANCH  15  18
ATOM     18  C   UNL d   1      31.350 -17.966  -2.016  0.00  0.00     0.068 A 
ATOM     19  C   UNL d   1      31.153 -18.861  -3.083  0.00  0.00     0.032 A 
ATOM     20  C   UNL d   1      32.073 -19.881  -3.349  0.00  0.00     0.002 A 
ATOM     21  C   UNL d   1      33.208 -20.011  -2.559  0.00  0.00     0.003 A 
ATOM     22  C   UNL d   1      33.382 -19.171  -1.459  0.00  0.00     0.039 A 
ATOM     23  C   UNL d   1      32.456 -18.158  -1.160  0.00  0.00     0.095 A 
BRANCH  23  24
ATOM     24  O   UNL d   1      32.826 -17.407  -0.076  0.00  0.00    -0.349 OA
BRANCH  24  25
ATOM     25  C   UNL d   1      31.909 -17.189   0.989  0.00  0.00     0.171 C 
ATOM     26  C   UNL d   1      31.790 -15.686   1.229  0.00  0.00     0.034 C 
ENDBRANCH  24  25
ENDBRANCH  23  24
ENDBRANCH  15  18
ENDBRANCH   1  14
BRANCH  12  27
ATOM     27  C   UNL d   1      24.727 -17.364  -0.520  0.00  0.00     0.034 A 
ATOM     28  C   UNL d   1      23.742 -16.371  -0.527  0.00  0.00     0.032 A 
ATOM     29  C   UNL d   1      22.394 -16.750  -0.607  0.00  0.00     0.039 A 
ATOM     30  C   UNL d   1      22.040 -18.105  -0.687  0.00  0.00     0.076 A 
ATOM     31  C   UNL d   1      23.040 -19.075  -0.610  0.00  0.00     0.039 A 
ATOM     32  C   UNL d   1      24.376 -18.713  -0.523  0.00  0.00     0.032 A 
BRANCH  30  33
ATOM     33  O   UNL d   1      20.706 -18.382  -0.901  0.00  0.00    -0.311 OA
BRANCH  33  34
ATOM     34  C   UNL d   1      20.068 -19.251  -0.041  0.00  0.00     0.076 A 
ATOM     35  C   UNL d   1      18.998 -20.008  -0.519  0.00  0.00     0.037 A 
ATOM     36  C   UNL d   1      18.284 -20.828   0.359  0.00  0.00     0.003 A 
ATOM     37  C   UNL d   1      18.691 -20.953   1.689  0.00  0.00     0.000 A 
ATOM     38  C   UNL d   1      19.767 -20.206   2.162  0.00  0.00     0.003 A 
ATOM     39  C   UNL d   1      20.429 -19.325   1.308  0.00  0.00     0.037 A 
ENDBRANCH  33  34
ENDBRANCH  30  33
ENDBRANCH  12  27
BRANCH   4  40
ATOM     40  C   UNL d   1      29.625 -12.893  -3.886  0.00  0.00     0.205 C 
BRANCH  40  41
ATOM     41  O   UNL d   1      30.236 -12.794  -2.615  0.00  0.00    -0.396 OA
ATOM     42  H   UNL d   1      29.719 -12.162  -2.086  0.00  0.00     0.209 HD
ENDBRANCH  40  41
ENDBRANCH   4  40
TORSDOF 9
ENDMDL
MODEL 5
REMARK VINA RESULT:    -8.625      1.911      3.130
REMARK INTER + INTRA:         -12.818
REMARK INTER:                 -11.309
REMARK INTRA:                  -1.509
REMARK CONF_INDEPENDENT:        2.685
REMARK UNBOUND:                -1.509
REMARK  9 active torsions:
REMARK  status: ('A' for Active; 'I' for Inactive)
REMARK    1  A    between atoms: C_2  and  O_3 
REMARK    2  A    between atoms: O_3  and  C_4 
REMARK    3  A    between atoms: C_9  and  N_10 
REMARK       I    between atoms: N_10  and  C_11 
REMARK    4  A    between atoms: C_11  and  C_13 
REMARK    5  A    between atoms: C_16  and  C_17 
REMARK    6  A    between atoms: C_17  and  O_18 
REMARK    7  A    between atoms: N_26  and  C_27 
REMARK    8  A    between atoms: C_30  and  O_31 
REMARK    9  A    between atoms: O_31  and  C_32 
ROOT
ATOM      1  C   UNL d   1      27.828 -15.908  -1.053  0.00  0.00     0.084 C 
ATOM      2  C   UNL d   1      28.296 -14.735  -1.496  0.00  0.00     0.036 C 
ATOM      3  C   UNL d   1      27.511 -13.874  -2.357  0.00  0.00     0.011 A 
ATOM      4  C   UNL d   1      28.099 -12.809  -3.051  0.00  0.00    -0.004 A 
ATOM      5  C   UNL d   1      27.282 -12.149  -3.957  0.00  0.00     0.127 A 
ATOM      6  N   UNL d   1      25.989 -12.479  -4.205  0.00  0.00    -0.262 NA
ATOM      7  C   UNL d   1      25.443 -13.506  -3.517  0.00  0.00     0.065 A 
ATOM      8  C   UNL d   1      24.010 -13.835  -3.804  0.00  0.00     0.073 C 
ATOM      9  C   UNL d   1      26.186 -14.227  -2.594  0.00  0.00     0.113 A 
ATOM     10  O   UNL d   1      25.611 -15.321  -1.920  0.00  0.00    -0.290 OA
ATOM     11  C   UNL d   1      26.382 -16.121  -1.083  0.00  0.00     0.164 C 
ATOM     12  N   UNL d   1      25.698 -16.850  -0.273  0.00  0.00    -0.336 N 
ATOM     13  H   UNL d   1      26.142 -17.323   0.517  0.00  0.00     0.168 HD
ENDROOT
BRANCH   1  14
ATOM     14  C   UNL d   1      28.887 -16.792  -0.496  0.00  0.00     0.260 C 
ATOM     15  N   UNL d   1      29.758 -16.205   0.391  0.00  0.00    -0.320 N 
ATOM     16  H   UNL d   1      29.338 -15.756   1.197  0.00  0.00     0.169 HD
ATOM     17  O   UNL d   1      28.969 -17.963  -0.877  0.00  0.00    -0.267 OA
BRANCH  15  18
ATOM     18  C   UNL d   1      31.065 -16.733   0.606  0.00  0.00     0.068 A 
ATOM     19  C   UNL d   1      31.448 -17.808  -0.217  0.00  0.00     0.032 A 
ATOM     20  C   UNL d   1      32.735 -18.353  -0.141  0.00  0.00     0.002 A 
ATOM     21  C   UNL d   1      33.658 -17.823   0.750  0.00  0.00     0.003 A 
ATOM     22  C   UNL d   1      33.271 -16.801   1.616  0.00  0.00     0.039 A 
ATOM     23  C   UNL d   1      31.977 -16.257   1.573  0.00  0.00     0.095 A 
BRANCH  23  24
ATOM     24  O   UNL d   1      31.805 -15.230   2.463  0.00  0.00    -0.349 OA
BRANCH  24  25
ATOM     25  C   UNL d   1      31.474 -13.928   1.996  0.00  0.00     0.171 C 
ATOM     26  C   UNL d   1      29.996 -13.669   2.281  0.00  0.00     0.034 C 
ENDBRANCH  24  25
ENDBRANCH  23  24
ENDBRANCH  15  18
ENDBRANCH   1  14
BRANCH  12  27
ATOM     27  C   UNL d   1      24.397 -17.290  -0.565  0.00  0.00     0.034 A 
ATOM     28  C   UNL d   1      24.162 -18.651  -0.784  0.00  0.00     0.032 A 
ATOM     29  C   UNL d   1      22.851 -19.086  -1.030  0.00  0.00     0.039 A 
ATOM     30  C   UNL d   1      21.790 -18.168  -1.048  0.00  0.00     0.076 A 
ATOM     31  C   UNL d   1      22.064 -16.808  -0.894  0.00  0.00     0.039 A 
ATOM     32  C   UNL d   1      23.357 -16.366  -0.657  0.00  0.00     0.032 A 
BRANCH  30  33
ATOM     33  O   UNL d   1      20.520 -18.695  -1.160  0.00  0.00    -0.311 OA
BRANCH  33  34
ATOM     34  C   UNL d   1      19.991 -19.373  -0.082  0.00  0.00     0.076 A 
ATOM     35  C   UNL d   1      20.660 -19.320   1.141  0.00  0.00     0.037 A 
ATOM     36  C   UNL d   1      20.187 -20.071   2.220  0.00  0.00     0.003 A 
ATOM     37  C   UNL d   1      19.004 -20.803   2.100  0.00  0.00     0.000 A 
ATOM     38  C   UNL d   1      18.331 -20.844   0.881  0.00  0.00     0.003 A 
ATOM     39  C   UNL d   1      18.845 -20.163  -0.220  0.00  0.00     0.037 A 
ENDBRANCH  33  34
ENDBRANCH  30  33
ENDBRANCH  12  27
BRANCH   4  40
ATOM     40  C   UNL d   1      29.547 -12.436  -2.849  0.00  0.00     0.205 C 
BRANCH  40  41
ATOM     41  O   UNL d   1      29.868 -12.181  -1.496  0.00  0.00    -0.396 OA
ATOM     42  H   UNL d   1      29.564 -12.942  -0.972  0.00  0.00     0.209 HD
ENDBRANCH  40  41
ENDBRANCH   4  40
TORSDOF 9
ENDMDL
MODEL 6
REMARK VINA RESULT:    -8.589      3.451      5.150
REMARK INTER + INTRA:         -13.296
REMARK INTER:                 -11.274
REMARK INTRA:                  -2.022
REMARK CONF_INDEPENDENT:        2.685
REMARK UNBOUND:                -2.022
REMARK  9 active torsions:
REMARK  status: ('A' for Active; 'I' for Inactive)
REMARK    1  A    between atoms: C_2  and  O_3 
REMARK    2  A    between atoms: O_3  and  C_4 
REMARK    3  A    between atoms: C_9  and  N_10 
REMARK       I    between atoms: N_10  and  C_11 
REMARK    4  A    between atoms: C_11  and  C_13 
REMARK    5  A    between atoms: C_16  and  C_17 
REMARK    6  A    between atoms: C_17  and  O_18 
REMARK    7  A    between atoms: N_26  and  C_27 
REMARK    8  A    between atoms: C_30  and  O_31 
REMARK    9  A    between atoms: O_31  and  C_32 
ROOT
ATOM      1  C   UNL d   1      27.653 -14.392  -0.449  0.00  0.00     0.084 C 
ATOM      2  C   UNL d   1      28.227 -13.590  -1.354  0.00  0.00     0.036 C 
ATOM      3  C   UNL d   1      27.928 -13.694  -2.768  0.00  0.00     0.011 A 
ATOM      4  C   UNL d   1      28.734 -13.071  -3.728  0.00  0.00    -0.004 A 
ATOM      5  C   UNL d   1      28.438 -13.362  -5.052  0.00  0.00     0.127 A 
ATOM      6  N   UNL d   1      27.448 -14.201  -5.449  0.00  0.00    -0.262 NA
ATOM      7  C   UNL d   1      26.679 -14.784  -4.503  0.00  0.00     0.065 A 
ATOM      8  C   UNL d   1      25.586 -15.692  -4.975  0.00  0.00     0.073 C 
ATOM      9  C   UNL d   1      26.905 -14.555  -3.153  0.00  0.00     0.113 A 
ATOM     10  O   UNL d   1      26.121 -15.206  -2.182  0.00  0.00    -0.290 OA
ATOM     11  C   UNL d   1      26.417 -15.075  -0.830  0.00  0.00     0.164 C 
ATOM     12  N   UNL d   1      25.455 -15.414  -0.044  0.00  0.00    -0.336 N 
ATOM     13  H   UNL d   1      25.476 -15.176   0.950  0.00  0.00     0.168 HD
ENDROOT
BRANCH   1  14
ATOM     14  C   UNL d   1      28.340 -14.380   0.870  0.00  0.00     0.260 C 
ATOM     15  N   UNL d   1      27.552 -14.654   1.963  0.00  0.00    -0.320 N 
ATOM     16  H   UNL d   1      27.045 -15.532   1.938  0.00  0.00     0.169 HD
ATOM     17  O   UNL d   1      29.536 -14.084   0.934  0.00  0.00    -0.267 OA
BRANCH  15  18
ATOM     18  C   UNL d   1      27.908 -14.199   3.266  0.00  0.00     0.068 A 
ATOM     19  C   UNL d   1      28.102 -15.192   4.244  0.00  0.00     0.032 A 
ATOM     20  C   UNL d   1      28.525 -14.861   5.536  0.00  0.00     0.002 A 
ATOM     21  C   UNL d   1      28.772 -13.534   5.864  0.00  0.00     0.003 A 
ATOM     22  C   UNL d   1      28.521 -12.535   4.924  0.00  0.00     0.039 A 
ATOM     23  C   UNL d   1      28.072 -12.844   3.630  0.00  0.00     0.095 A 
BRANCH  23  24
ATOM     24  O   UNL d   1      27.934 -11.735   2.839  0.00  0.00    -0.349 OA
BRANCH  24  25
ATOM     25  C   UNL d   1      26.739 -11.533   2.093  0.00  0.00     0.171 C 
ATOM     26  C   UNL d   1      27.062 -10.660   0.883  0.00  0.00     0.034 C 
ENDBRANCH  24  25
ENDBRANCH  23  24
ENDBRANCH  15  18
ENDBRANCH   1  14
BRANCH  12  27
ATOM     27  C   UNL d   1      24.484 -16.362  -0.402  0.00  0.00     0.034 A 
ATOM     28  C   UNL d   1      24.858 -17.696  -0.584  0.00  0.00     0.032 A 
ATOM     29  C   UNL d   1      23.872 -18.645  -0.897  0.00  0.00     0.039 A 
ATOM     30  C   UNL d   1      22.529 -18.258  -1.017  0.00  0.00     0.076 A 
ATOM     31  C   UNL d   1      22.195 -16.909  -0.896  0.00  0.00     0.039 A 
ATOM     32  C   UNL d   1      23.162 -15.962  -0.595  0.00  0.00     0.032 A 
BRANCH  30  33
ATOM     33  O   UNL d   1      21.609 -19.272  -1.190  0.00  0.00    -0.311 OA
BRANCH  33  34
ATOM     34  C   UNL d   1      20.708 -19.524  -0.177  0.00  0.00     0.076 A 
ATOM     35  C   UNL d   1      21.029 -19.132   1.123  0.00  0.00     0.037 A 
ATOM     36  C   UNL d   1      20.169 -19.457   2.175  0.00  0.00     0.003 A 
ATOM     37  C   UNL d   1      18.955 -20.097   1.917  0.00  0.00     0.000 A 
ATOM     38  C   UNL d   1      18.631 -20.477   0.616  0.00  0.00     0.003 A 
ATOM     39  C   UNL d   1      19.524 -20.228  -0.424  0.00  0.00     0.037 A 
ENDBRANCH  33  34
ENDBRANCH  30  33
ENDBRANCH  12  27
BRANCH   4  40
ATOM     40  C   UNL d   1      29.881 -12.172  -3.337  0.00  0.00     0.205 C 
BRANCH  40  41
ATOM     41  O   UNL d   1      30.838 -12.820  -2.522  0.00  0.00    -0.396 OA
ATOM     42  H   UNL d   1      31.276 -13.500  -3.063  0.00  0.00     0.209 HD
ENDBRANCH  40  41
ENDBRANCH   4  40
TORSDOF 9
ENDMDL
MODEL 7
REMARK VINA RESULT:    -8.503      2.496      4.528
REMARK INTER + INTRA:         -12.782
REMARK INTER:                 -11.188
REMARK INTRA:                  -1.594
REMARK CONF_INDEPENDENT:        2.685
REMARK UNBOUND:                -1.594
REMARK  9 active torsions:
REMARK  status: ('A' for Active; 'I' for Inactive)
REMARK    1  A    between atoms: C_2  and  O_3 
REMARK    2  A    between atoms: O_3  and  C_4 
REMARK    3  A    between atoms: C_9  and  N_10 
REMARK       I    between atoms: N_10  and  C_11 
REMARK    4  A    between atoms: C_11  and  C_13 
REMARK    5  A    between atoms: C_16  and  C_17 
REMARK    6  A    between atoms: C_17  and  O_18 
REMARK    7  A    between atoms: N_26  and  C_27 
REMARK    8  A    between atoms: C_30  and  O_31 
REMARK    9  A    between atoms: O_31  and  C_32 
ROOT
ATOM      1  C   UNL d   1      29.747 -15.275  -5.485  0.00  0.00     0.084 C 
ATOM      2  C   UNL d   1      29.629 -14.158  -6.215  0.00  0.00     0.036 C 
ATOM      3  C   UNL d   1      28.498 -13.265  -6.070  0.00  0.00     0.011 A 
ATOM      4  C   UNL d   1      28.227 -12.275  -7.022  0.00  0.00    -0.004 A 
ATOM      5  C   UNL d   1      27.037 -11.581  -6.857  0.00  0.00     0.127 A 
ATOM      6  N   UNL d   1      26.147 -11.813  -5.859  0.00  0.00    -0.262 NA
ATOM      7  C   UNL d   1      26.435 -12.769  -4.948  0.00  0.00     0.065 A 
ATOM      8  C   UNL d   1      25.439 -12.990  -3.852  0.00  0.00     0.073 C 
ATOM      9  C   UNL d   1      27.600 -13.517  -5.037  0.00  0.00     0.113 A 
ATOM     10  O   UNL d   1      27.860 -14.539  -4.103  0.00  0.00    -0.290 OA
ATOM     11  C   UNL d   1      28.964 -15.370  -4.254  0.00  0.00     0.164 C 
ATOM     12  N   UNL d   1      29.288 -16.015  -3.188  0.00  0.00    -0.336 N 
ATOM     13  H   UNL d   1      30.187 -16.496  -3.113  0.00  0.00     0.168 HD
ENDROOT
BRANCH   1  14
ATOM     14  C   UNL d   1      30.761 -16.223  -6.018  0.00  0.00     0.260 C 
ATOM     15  N   UNL d   1      30.499 -16.751  -7.260  0.00  0.00    -0.320 N 
ATOM     16  H   UNL d   1      30.346 -16.081  -8.006  0.00  0.00     0.169 HD
ATOM     17  O   UNL d   1      31.738 -16.526  -5.327  0.00  0.00    -0.267 OA
BRANCH  15  18
ATOM     18  C   UNL d   1      31.063 -17.995  -7.671  0.00  0.00     0.068 A 
ATOM     19  C   UNL d   1      31.919 -17.955  -8.787  0.00  0.00     0.032 A 
ATOM     20  C   UNL d   1      32.583 -19.104  -9.229  0.00  0.00     0.002 A 
ATOM     21  C   UNL d   1      32.410 -20.305  -8.553  0.00  0.00     0.003 A 
ATOM     22  C   UNL d   1      31.516 -20.372  -7.486  0.00  0.00     0.039 A 
ATOM     23  C   UNL d   1      30.819 -19.236  -7.043  0.00  0.00     0.095 A 
BRANCH  23  24
ATOM     24  O   UNL d   1      30.030 -19.491  -5.953  0.00  0.00    -0.349 OA
BRANCH  24  25
ATOM     25  C   UNL d   1      30.529 -19.262  -4.641  0.00  0.00     0.171 C 
ATOM     26  C   UNL d   1      32.027 -19.558  -4.631  0.00  0.00     0.034 C 
ENDBRANCH  24  25
ENDBRANCH  23  24
ENDBRANCH  15  18
ENDBRANCH   1  14
BRANCH  12  27
ATOM     27  C   UNL d   1      28.355 -16.356  -2.196  0.00  0.00     0.034 A 
ATOM     28  C   UNL d   1      26.990 -16.320  -2.494  0.00  0.00     0.032 A 
ATOM     29  C   UNL d   1      26.067 -16.707  -1.510  0.00  0.00     0.039 A 
ATOM     30  C   UNL d   1      26.511 -17.132  -0.249  0.00  0.00     0.076 A 
ATOM     31  C   UNL d   1      27.875 -17.094   0.042  0.00  0.00     0.039 A 
ATOM     32  C   UNL d   1      28.795 -16.706  -0.920  0.00  0.00     0.032 A 
BRANCH  30  33
ATOM     33  O   UNL d   1      25.549 -17.624   0.609  0.00  0.00    -0.311 OA
BRANCH  33  34
ATOM     34  C   UNL d   1      24.267 -17.798   0.132  0.00  0.00     0.076 A 
ATOM     35  C   UNL d   1      23.822 -19.091  -0.146  0.00  0.00     0.037 A 
ATOM     36  C   UNL d   1      22.558 -19.280  -0.713  0.00  0.00     0.003 A 
ATOM     37  C   UNL d   1      21.713 -18.188  -0.922  0.00  0.00     0.000 A 
ATOM     38  C   UNL d   1      22.155 -16.899  -0.633  0.00  0.00     0.003 A 
ATOM     39  C   UNL d   1      23.446 -16.700  -0.145  0.00  0.00     0.037 A 
ENDBRANCH  33  34
ENDBRANCH  30  33
ENDBRANCH  12  27
BRANCH   4  40
ATOM     40  C   UNL d   1      29.159 -12.014  -8.180  0.00  0.00     0.205 C 
BRANCH  40  41
ATOM     41  O   UNL d   1      28.691 -12.557  -9.399  0.00  0.00    -0.396 OA
ATOM     42  H   UNL d   1      29.150 -13.403  -9.542  0.00  0.00     0.209 HD
ENDBRANCH  40  41
ENDBRANCH   4  40
TORSDOF 9
ENDMDL
MODEL 8
REMARK VINA RESULT:    -8.066      4.853      8.100
REMARK INTER + INTRA:         -12.799
REMARK INTER:                 -10.750
REMARK INTRA:                  -2.048
REMARK CONF_INDEPENDENT:        2.685
REMARK UNBOUND:                -2.048
REMARK  9 active torsions:
REMARK  status: ('A' for Active; 'I' for Inactive)
REMARK    1  A    between atoms: C_2  and  O_3 
REMARK    2  A    between atoms: O_3  and  C_4 
REMARK    3  A    between atoms: C_9  and  N_10 
REMARK       I    between atoms: N_10  and  C_11 
REMARK    4  A    between atoms: C_11  and  C_13 
REMARK    5  A    between atoms: C_16  and  C_17 
REMARK    6  A    between atoms: C_17  and  O_18 
REMARK    7  A    between atoms: N_26  and  C_27 
REMARK    8  A    between atoms: C_30  and  O_31 
REMARK    9  A    between atoms: O_31  and  C_32 
ROOT
ATOM      1  C   UNL d   1      26.949 -15.094  -1.978  0.00  0.00     0.084 C 
ATOM      2  C   UNL d   1      27.646 -15.187  -3.117  0.00  0.00     0.036 C 
ATOM      3  C   UNL d   1      28.802 -14.355  -3.378  0.00  0.00     0.011 A 
ATOM      4  C   UNL d   1      29.341 -14.242  -4.665  0.00  0.00    -0.004 A 
ATOM      5  C   UNL d   1      30.351 -13.304  -4.822  0.00  0.00     0.127 A 
ATOM      6  N   UNL d   1      30.819 -12.508  -3.827  0.00  0.00    -0.262 NA
ATOM      7  C   UNL d   1      30.286 -12.641  -2.592  0.00  0.00     0.065 A 
ATOM      8  C   UNL d   1      30.835 -11.757  -1.513  0.00  0.00     0.073 C 
ATOM      9  C   UNL d   1      29.269 -13.550  -2.343  0.00  0.00     0.113 A 
ATOM     10  O   UNL d   1      28.697 -13.642  -1.059  0.00  0.00    -0.290 OA
ATOM     11  C   UNL d   1      27.600 -14.464  -0.831  0.00  0.00     0.164 C 
ATOM     12  N   UNL d   1      27.391 -14.732   0.411  0.00  0.00    -0.336 N 
ATOM     13  H   UNL d   1      26.748 -15.475   0.691  0.00  0.00     0.168 HD
ENDROOT
BRANCH   1  14
ATOM     14  C   UNL d   1      25.618 -15.755  -2.045  0.00  0.00     0.260 C 
ATOM     15  N   UNL d   1      25.010 -16.011  -0.840  0.00  0.00    -0.320 N 
ATOM     16  H   UNL d   1      24.878 -15.213  -0.228  0.00  0.00     0.169 HD
ATOM     17  O   UNL d   1      25.151 -16.081  -3.141  0.00  0.00    -0.267 OA
BRANCH  15  18
ATOM     18  C   UNL d   1      24.035 -17.043  -0.705  0.00  0.00     0.068 A 
ATOM     19  C   UNL d   1      22.697 -16.671  -0.928  0.00  0.00     0.032 A 
ATOM     20  C   UNL d   1      21.669 -17.620  -0.895  0.00  0.00     0.002 A 
ATOM     21  C   UNL d   1      21.967 -18.954  -0.650  0.00  0.00     0.003 A 
ATOM     22  C   UNL d   1      23.280 -19.325  -0.364  0.00  0.00     0.039 A 
ATOM     23  C   UNL d   1      24.323 -18.383  -0.367  0.00  0.00     0.095 A 
BRANCH  23  24
ATOM     24  O   UNL d   1      25.545 -18.947  -0.114  0.00  0.00    -0.349 OA
BRANCH  24  25
ATOM     25  C   UNL d   1      26.484 -18.275   0.717  0.00  0.00     0.171 C 
ATOM     26  C   UNL d   1      27.663 -17.827  -0.144  0.00  0.00     0.034 C 
ENDBRANCH  24  25
ENDBRANCH  23  24
ENDBRANCH  15  18
ENDBRANCH   1  14
BRANCH  12  27
ATOM     27  C   UNL d   1      27.773 -13.865   1.447  0.00  0.00     0.034 A 
ATOM     28  C   UNL d   1      26.844 -12.956   1.963  0.00  0.00     0.032 A 
ATOM     29  C   UNL d   1      27.222 -12.126   3.029  0.00  0.00     0.039 A 
ATOM     30  C   UNL d   1      28.513 -12.213   3.573  0.00  0.00     0.076 A 
ATOM     31  C   UNL d   1      29.439 -13.080   2.994  0.00  0.00     0.039 A 
ATOM     32  C   UNL d   1      29.079 -13.901   1.935  0.00  0.00     0.032 A 
BRANCH  30  33
ATOM     33  O   UNL d   1      28.757 -11.460   4.704  0.00  0.00    -0.311 OA
BRANCH  33  34
ATOM     34  C   UNL d   1      28.721 -12.086   5.932  0.00  0.00     0.076 A 
ATOM     35  C   UNL d   1      28.535 -11.311   7.077  0.00  0.00     0.037 A 
ATOM     36  C   UNL d   1      28.584 -11.916   8.336  0.00  0.00     0.003 A 
ATOM     37  C   UNL d   1      28.734 -13.300   8.444  0.00  0.00     0.000 A 
ATOM     38  C   UNL d   1      28.907 -14.073   7.298  0.00  0.00     0.003 A 
ATOM     39  C   UNL d   1      28.942 -13.462   6.046  0.00  0.00     0.037 A 
ENDBRANCH  33  34
ENDBRANCH  30  33
ENDBRANCH  12  27
BRANCH   4  40
ATOM     40  C   UNL d   1      28.821 -15.067  -5.817  0.00  0.00     0.205 C 
BRANCH  40  41
ATOM     41  O   UNL d   1      27.418 -14.975  -5.972  0.00  0.00    -0.396 OA
ATOM     42  H   UNL d   1      27.201 -14.044  -6.152  0.00  0.00     0.209 HD
ENDBRANCH  40  41
ENDBRANCH   4  40
TORSDOF 9
ENDMDL
MODEL 9
REMARK VINA RESULT:    -8.051      4.506      8.930
REMARK INTER + INTRA:         -12.701
REMARK INTER:                 -10.735
REMARK INTRA:                  -1.966
REMARK CONF_INDEPENDENT:        2.685
REMARK UNBOUND:                -1.966
REMARK  9 active torsions:
REMARK  status: ('A' for Active; 'I' for Inactive)
REMARK    1  A    between atoms: C_2  and  O_3 
REMARK    2  A    between atoms: O_3  and  C_4 
REMARK    3  A    between atoms: C_9  and  N_10 
REMARK       I    between atoms: N_10  and  C_11 
REMARK    4  A    between atoms: C_11  and  C_13 
REMARK    5  A    between atoms: C_16  and  C_17 
REMARK    6  A    between atoms: C_17  and  O_18 
REMARK    7  A    between atoms: N_26  and  C_27 
REMARK    8  A    between atoms: C_30  and  O_31 
REMARK    9  A    between atoms: O_31  and  C_32 
ROOT
ATOM      1  C   UNL d   1      26.669 -10.611  -6.040  0.00  0.00     0.084 C 
ATOM      2  C   UNL d   1      27.357 -10.546  -7.187  0.00  0.00     0.036 C 
ATOM      3  C   UNL d   1      28.306 -11.571  -7.569  0.00  0.00     0.011 A 
ATOM      4  C   UNL d   1      29.228 -11.359  -8.602  0.00  0.00    -0.004 A 
ATOM      5  C   UNL d   1      30.182 -12.351  -8.778  0.00  0.00     0.127 A 
ATOM      6  N   UNL d   1      30.271 -13.472  -8.019  0.00  0.00    -0.262 NA
ATOM      7  C   UNL d   1      29.365 -13.657  -7.033  0.00  0.00     0.065 A 
ATOM      8  C   UNL d   1      29.483 -14.911  -6.223  0.00  0.00     0.073 C 
ATOM      9  C   UNL d   1      28.378 -12.715  -6.781  0.00  0.00     0.113 A 
ATOM     10  O   UNL d   1      27.471 -12.905  -5.720  0.00  0.00    -0.290 OA
ATOM     11  C   UNL d   1      26.556 -11.913  -5.386  0.00  0.00     0.164 C 
ATOM     12  N   UNL d   1      25.577 -12.323  -4.658  0.00  0.00    -0.336 N 
ATOM     13  H   UNL d   1      24.746 -11.745  -4.515  0.00  0.00     0.168 HD
ENDROOT
BRANCH   1  14
ATOM     14  C   UNL d   1      26.032  -9.321  -5.661  0.00  0.00     0.260 C 
ATOM     15  N   UNL d   1      24.693  -9.204  -5.944  0.00  0.00    -0.320 N 
ATOM     16  H   UNL d   1      24.090  -9.920  -5.554  0.00  0.00     0.169 HD
ATOM     17  O   UNL d   1      26.719  -8.420  -5.171  0.00  0.00    -0.267 OA
BRANCH  15  18
ATOM     18  C   UNL d   1      24.080  -7.928  -6.117  0.00  0.00     0.068 A 
ATOM     19  C   UNL d   1      22.901  -7.696  -5.385  0.00  0.00     0.032 A 
ATOM     20  C   UNL d   1      22.260  -6.453  -5.423  0.00  0.00     0.002 A 
ATOM     21  C   UNL d   1      22.796  -5.422  -6.184  0.00  0.00     0.003 A 
ATOM     22  C   UNL d   1      23.927  -5.658  -6.964  0.00  0.00     0.039 A 
ATOM     23  C   UNL d   1      24.571  -6.906  -6.960  0.00  0.00     0.095 A 
BRANCH  23  24
ATOM     24  O   UNL d   1      25.691  -6.926  -7.747  0.00  0.00    -0.349 OA
BRANCH  24  25
ATOM     25  C   UNL d   1      25.597  -6.607  -9.130  0.00  0.00     0.171 C 
ATOM     26  C   UNL d   1      26.006  -7.835  -9.942  0.00  0.00     0.034 C 
ENDBRANCH  24  25
ENDBRANCH  23  24
ENDBRANCH  15  18
ENDBRANCH   1  14
BRANCH  12  27
ATOM     27  C   UNL d   1      25.688 -13.417  -3.785  0.00  0.00     0.034 A 
ATOM     28  C   UNL d   1      25.968 -13.195  -2.434  0.00  0.00     0.032 A 
ATOM     29  C   UNL d   1      26.033 -14.292  -1.562  0.00  0.00     0.039 A 
ATOM     30  C   UNL d   1      25.810 -15.592  -2.039  0.00  0.00     0.076 A 
ATOM     31  C   UNL d   1      25.599 -15.790  -3.404  0.00  0.00     0.039 A 
ATOM     32  C   UNL d   1      25.541 -14.714  -4.277  0.00  0.00     0.032 A 
BRANCH  30  33
ATOM     33  O   UNL d   1      25.756 -16.596  -1.093  0.00  0.00    -0.311 OA
BRANCH  33  34
ATOM     34  C   UNL d   1      24.546 -17.215  -0.858  0.00  0.00     0.076 A 
ATOM     35  C   UNL d   1      23.380 -16.449  -0.892  0.00  0.00     0.037 A 
ATOM     36  C   UNL d   1      22.156 -17.040  -0.570  0.00  0.00     0.003 A 
ATOM     37  C   UNL d   1      22.087 -18.409  -0.298  0.00  0.00     0.000 A 
ATOM     38  C   UNL d   1      23.251 -19.174  -0.277  0.00  0.00     0.003 A 
ATOM     39  C   UNL d   1      24.484 -18.569  -0.516  0.00  0.00     0.037 A 
ENDBRANCH  33  34
ENDBRANCH  30  33
ENDBRANCH  12  27
BRANCH   4  40
ATOM     40  C   UNL d   1      29.203 -10.105  -9.440  0.00  0.00     0.205 C 
BRANCH  40  41
ATOM     41  O   UNL d   1      29.385  -8.928  -8.678  0.00  0.00    -0.396 OA
ATOM     42  H   UNL d   1      30.059  -8.387  -9.125  0.00  0.00     0.209 HD
ENDBRANCH  40  41
ENDBRANCH   4  40
TORSDOF 9
ENDMDL
