MODEL 1
REMARK VINA RESULT:    -7.241      0.000      0.000
REMARK INTER + INTRA:         -10.269
REMARK INTER:                  -8.434
REMARK INTRA:                  -1.835
REMARK CONF_INDEPENDENT:        1.193
REMARK UNBOUND:                -1.835
REMARK  4 active torsions:
REMARK  status: ('A' for Active; 'I' for Inactive)
REMARK    1  A    between atoms: C_5  and  C_6 
REMARK       I    between atoms: C_6  and  N_8 
REMARK    2  A    between atoms: N_8  and  N_9 
REMARK       I    between atoms: N_9  and  C_10 
REMARK    3  A    between atoms: C_10  and  C_12 
REMARK    4  A    between atoms: C_16  and  O_17 
ROOT
ATOM      1  C   UNL d   1      21.953 -18.200  -0.299  0.00  0.00     0.272 C 
ATOM      2  O   UNL d   1      21.685 -17.384  -1.188  0.00  0.00    -0.266 OA
ATOM      3  N   UNL d   1      23.236 -18.328   0.221  0.00  0.00    -0.263 N 
ATOM      4  H   UNL d   1      23.508 -18.981   0.952  0.00  0.00     0.190 HD
ENDROOT
BRANCH   1   5
ATOM      5  C   UNL d   1      20.855 -19.083   0.242  0.00  0.00     0.066 A 
ATOM      6  C   UNL d   1      20.657 -19.267   1.620  0.00  0.00     0.020 A 
ATOM      7  C   UNL d   1      19.617 -20.082   2.105  0.00  0.00     0.008 A 
ATOM      8  C   UNL d   1      18.741 -20.726   1.226  0.00  0.00    -0.059 A 
ATOM      9  C   UNL d   1      17.609 -21.583   1.714  0.00  0.00     0.048 C 
ATOM     10  C   UNL d   1      18.935 -20.560  -0.147  0.00  0.00     0.044 A 
ATOM     11  C   UNL d   1      19.978 -19.759  -0.632  0.00  0.00     0.082 A 
BRANCH  11  12
ATOM     12  O   UNL d   1      20.062 -19.698  -2.000  0.00  0.00    -0.360 OA
ATOM     13  H   UNL d   1      20.594 -18.911  -2.242  0.00  0.00     0.217 HD
ENDBRANCH  11  12
ENDBRANCH   1   5
BRANCH   3  14
ATOM     14  N   UNL d   1      24.293 -17.508  -0.258  0.00  0.00    -0.267 N 
ATOM     15  C   UNL d   1      25.569 -17.701   0.258  0.00  0.00     0.243 C 
ATOM     16  O   UNL d   1      25.779 -18.564   1.114  0.00  0.00    -0.271 OA
ATOM     17  H   UNL d   1      24.052 -16.815  -0.962  0.00  0.00     0.190 HD
BRANCH  15  18
ATOM     18  C   UNL d   1      26.696 -16.784  -0.295  0.00  0.00     0.032 C 
ATOM     19  C   UNL d   1      26.882 -15.555   0.604  0.00  0.00     0.025 C 
ATOM     20  C   UNL d   1      28.021 -17.553  -0.387  0.00  0.00     0.025 C 
ATOM     21  C   UNL d   1      26.335 -16.287  -1.712  0.00  0.00     0.025 C 
ENDBRANCH  15  18
ENDBRANCH   3  14
TORSDOF 4
ENDMDL
MODEL 2
REMARK VINA RESULT:    -6.807      1.283      1.747
REMARK INTER + INTRA:          -8.826
REMARK INTER:                  -8.000
REMARK INTRA:                  -0.826
REMARK CONF_INDEPENDENT:        1.193
REMARK UNBOUND:                -0.826
REMARK  4 active torsions:
REMARK  status: ('A' for Active; 'I' for Inactive)
REMARK    1  A    between atoms: C_5  and  C_6 
REMARK       I    between atoms: C_6  and  N_8 
REMARK    2  A    between atoms: N_8  and  N_9 
REMARK       I    between atoms: N_9  and  C_10 
REMARK    3  A    between atoms: C_10  and  C_12 
REMARK    4  A    between atoms: C_16  and  O_17 
ROOT
ATOM      1  C   UNL d   1      22.259 -18.159   0.193  0.00  0.00     0.272 C 
ATOM      2  O   UNL d   1      23.206 -18.208   0.984  0.00  0.00    -0.266 OA
ATOM      3  N   UNL d   1      22.257 -17.303  -0.903  0.00  0.00    -0.263 N 
ATOM      4  H   UNL d   1      21.505 -17.226  -1.583  0.00  0.00     0.190 HD
ENDROOT
BRANCH   1   5
ATOM      5  C   UNL d   1      21.066 -19.057   0.419  0.00  0.00     0.066 A 
ATOM      6  C   UNL d   1      20.638 -19.418   1.707  0.00  0.00     0.020 A 
ATOM      7  C   UNL d   1      19.514 -20.243   1.898  0.00  0.00     0.008 A 
ATOM      8  C   UNL d   1      18.783 -20.721   0.807  0.00  0.00    -0.059 A 
ATOM      9  C   UNL d   1      17.566 -21.584   0.979  0.00  0.00     0.048 C 
ATOM     10  C   UNL d   1      19.206 -20.378  -0.480  0.00  0.00     0.044 A 
ATOM     11  C   UNL d   1      20.332 -19.567  -0.672  0.00  0.00     0.082 A 
BRANCH  11  12
ATOM     12  O   UNL d   1      20.644 -19.325  -1.986  0.00  0.00    -0.360 OA
ATOM     13  H   UNL d   1      19.885 -19.604  -2.540  0.00  0.00     0.217 HD
ENDBRANCH  11  12
ENDBRANCH   1   5
BRANCH   3  14
ATOM     14  N   UNL d   1      23.365 -16.450  -1.152  0.00  0.00    -0.267 N 
ATOM     15  C   UNL d   1      24.639 -17.005  -1.176  0.00  0.00     0.243 C 
ATOM     16  O   UNL d   1      24.804 -18.212  -0.983  0.00  0.00    -0.271 OA
ATOM     17  H   UNL d   1      23.160 -15.465  -1.301  0.00  0.00     0.190 HD
BRANCH  15  18
ATOM     18  C   UNL d   1      25.822 -16.036  -1.454  0.00  0.00     0.032 C 
ATOM     19  C   UNL d   1      27.125 -16.819  -1.656  0.00  0.00     0.025 C 
ATOM     20  C   UNL d   1      25.542 -15.185  -2.700  0.00  0.00     0.025 C 
ATOM     21  C   UNL d   1      26.022 -15.078  -0.259  0.00  0.00     0.025 C 
ENDBRANCH  15  18
ENDBRANCH   3  14
TORSDOF 4
ENDMDL
MODEL 3
REMARK VINA RESULT:    -6.449      1.445      7.510
REMARK INTER + INTRA:          -9.446
REMARK INTER:                  -7.642
REMARK INTRA:                  -1.804
REMARK CONF_INDEPENDENT:        1.193
REMARK UNBOUND:                -1.804
REMARK  4 active torsions:
REMARK  status: ('A' for Active; 'I' for Inactive)
REMARK    1  A    between atoms: C_5  and  C_6 
REMARK       I    between atoms: C_6  and  N_8 
REMARK    2  A    between atoms: N_8  and  N_9 
REMARK       I    between atoms: N_9  and  C_10 
REMARK    3  A    between atoms: C_10  and  C_12 
REMARK    4  A    between atoms: C_16  and  O_17 
ROOT
ATOM      1  C   UNL d   1      24.199 -17.989  -0.010  0.00  0.00     0.272 C 
ATOM      2  O   UNL d   1      24.535 -18.572   1.027  0.00  0.00    -0.266 OA
ATOM      3  N   UNL d   1      22.935 -18.144  -0.566  0.00  0.00    -0.263 N 
ATOM      4  H   UNL d   1      22.610 -17.687  -1.415  0.00  0.00     0.190 HD
ENDROOT
BRANCH   1   5
ATOM      5  C   UNL d   1      25.190 -17.077  -0.692  0.00  0.00     0.066 A 
ATOM      6  C   UNL d   1      24.782 -15.993  -1.486  0.00  0.00     0.020 A 
ATOM      7  C   UNL d   1      25.721 -15.144  -2.101  0.00  0.00     0.008 A 
ATOM      8  C   UNL d   1      27.093 -15.350  -1.930  0.00  0.00    -0.059 A 
ATOM      9  C   UNL d   1      28.119 -14.448  -2.554  0.00  0.00     0.048 C 
ATOM     10  C   UNL d   1      27.512 -16.431  -1.151  0.00  0.00     0.044 A 
ATOM     11  C   UNL d   1      26.578 -17.285  -0.548  0.00  0.00     0.082 A 
BRANCH  11  12
ATOM     12  O   UNL d   1      27.127 -18.315   0.174  0.00  0.00    -0.360 OA
ATOM     13  H   UNL d   1      26.534 -18.514   0.928  0.00  0.00     0.217 HD
ENDBRANCH  11  12
ENDBRANCH   1   5
BRANCH   3  14
ATOM     14  N   UNL d   1      21.974 -18.987   0.052  0.00  0.00    -0.267 N 
ATOM     15  C   UNL d   1      20.652 -18.911  -0.371  0.00  0.00     0.243 C 
ATOM     16  O   UNL d   1      20.321 -18.125  -1.263  0.00  0.00    -0.271 OA
ATOM     17  H   UNL d   1      22.312 -19.610   0.782  0.00  0.00     0.190 HD
BRANCH  15  18
ATOM     18  C   UNL d   1      19.634 -19.852   0.331  0.00  0.00     0.032 C 
ATOM     19  C   UNL d   1      19.190 -19.262   1.675  0.00  0.00     0.025 C 
ATOM     20  C   UNL d   1      18.403 -20.075  -0.558  0.00  0.00     0.025 C 
ATOM     21  C   UNL d   1      20.278 -21.229   0.605  0.00  0.00     0.025 C 
ENDBRANCH  15  18
ENDBRANCH   3  14
TORSDOF 4
ENDMDL
MODEL 4
REMARK VINA RESULT:    -6.371      1.463      7.361
REMARK INTER + INTRA:          -9.409
REMARK INTER:                  -7.564
REMARK INTRA:                  -1.845
REMARK CONF_INDEPENDENT:        1.193
REMARK UNBOUND:                -1.845
REMARK  4 active torsions:
REMARK  status: ('A' for Active; 'I' for Inactive)
REMARK    1  A    between atoms: C_5  and  C_6 
REMARK       I    between atoms: C_6  and  N_8 
REMARK    2  A    between atoms: N_8  and  N_9 
REMARK       I    between atoms: N_9  and  C_10 
REMARK    3  A    between atoms: C_10  and  C_12 
REMARK    4  A    between atoms: C_16  and  O_17 
ROOT
ATOM      1  C   UNL d   1      24.206 -17.963  -0.065  0.00  0.00     0.272 C 
ATOM      2  O   UNL d   1      24.573 -18.575   0.944  0.00  0.00    -0.266 OA
ATOM      3  N   UNL d   1      22.919 -18.091  -0.577  0.00  0.00    -0.263 N 
ATOM      4  H   UNL d   1      22.568 -17.610  -1.401  0.00  0.00     0.190 HD
ENDROOT
BRANCH   1   5
ATOM      5  C   UNL d   1      25.180 -17.044  -0.762  0.00  0.00     0.066 A 
ATOM      6  C   UNL d   1      26.569 -17.236  -0.688  0.00  0.00     0.020 A 
ATOM      7  C   UNL d   1      27.462 -16.379  -1.358  0.00  0.00     0.008 A 
ATOM      8  C   UNL d   1      26.988 -15.312  -2.128  0.00  0.00    -0.059 A 
ATOM      9  C   UNL d   1      27.914 -14.395  -2.874  0.00  0.00     0.048 C 
ATOM     10  C   UNL d   1      25.609 -15.105  -2.201  0.00  0.00     0.044 A 
ATOM     11  C   UNL d   1      24.719 -15.951  -1.524  0.00  0.00     0.082 A 
BRANCH  11  12
ATOM     12  O   UNL d   1      23.396 -15.621  -1.668  0.00  0.00    -0.360 OA
ATOM     13  H   UNL d   1      23.338 -14.802  -2.205  0.00  0.00     0.217 HD
ENDBRANCH  11  12
ENDBRANCH   1   5
BRANCH   3  14
ATOM     14  N   UNL d   1      21.973 -18.940   0.056  0.00  0.00    -0.267 N 
ATOM     15  C   UNL d   1      20.650 -18.892  -0.366  0.00  0.00     0.243 C 
ATOM     16  O   UNL d   1      20.305 -18.127  -1.270  0.00  0.00    -0.271 OA
ATOM     17  H   UNL d   1      22.322 -19.545   0.796  0.00  0.00     0.190 HD
BRANCH  15  18
ATOM     18  C   UNL d   1      19.648 -19.838   0.353  0.00  0.00     0.032 C 
ATOM     19  C   UNL d   1      20.297 -21.200   0.631  0.00  0.00     0.025 C 
ATOM     20  C   UNL d   1      19.175 -19.220   1.676  0.00  0.00     0.025 C 
ATOM     21  C   UNL d   1      18.405 -20.075  -0.533  0.00  0.00     0.025 C 
ENDBRANCH  15  18
ENDBRANCH   3  14
TORSDOF 4
ENDMDL
MODEL 5
REMARK VINA RESULT:    -5.901      4.610      9.209
REMARK INTER + INTRA:          -8.934
REMARK INTER:                  -7.094
REMARK INTRA:                  -1.840
REMARK CONF_INDEPENDENT:        1.193
REMARK UNBOUND:                -1.840
REMARK  4 active torsions:
REMARK  status: ('A' for Active; 'I' for Inactive)
REMARK    1  A    between atoms: C_5  and  C_6 
REMARK       I    between atoms: C_6  and  N_8 
REMARK    2  A    between atoms: N_8  and  N_9 
REMARK       I    between atoms: N_9  and  C_10 
REMARK    3  A    between atoms: C_10  and  C_12 
REMARK    4  A    between atoms: C_16  and  O_17 
ROOT
ATOM      1  C   UNL d   1      25.511 -14.510  -4.183  0.00  0.00     0.272 C 
ATOM      2  O   UNL d   1      24.364 -14.072  -4.327  0.00  0.00    -0.266 OA
ATOM      3  N   UNL d   1      25.806 -15.519  -3.273  0.00  0.00    -0.263 N 
ATOM      4  H   UNL d   1      26.730 -15.914  -3.118  0.00  0.00     0.190 HD
ENDROOT
BRANCH   1   5
ATOM      5  C   UNL d   1      26.626 -13.936  -5.023  0.00  0.00     0.066 A 
ATOM      6  C   UNL d   1      27.701 -14.720  -5.472  0.00  0.00     0.020 A 
ATOM      7  C   UNL d   1      28.723 -14.170  -6.268  0.00  0.00     0.008 A 
ATOM      8  C   UNL d   1      28.693 -12.824  -6.644  0.00  0.00    -0.059 A 
ATOM      9  C   UNL d   1      29.756 -12.215  -7.512  0.00  0.00     0.048 C 
ATOM     10  C   UNL d   1      27.635 -12.031  -6.194  0.00  0.00     0.044 A 
ATOM     11  C   UNL d   1      26.622 -12.574  -5.391  0.00  0.00     0.082 A 
BRANCH  11  12
ATOM     12  O   UNL d   1      25.656 -11.679  -5.007  0.00  0.00    -0.360 OA
ATOM     13  H   UNL d   1      24.780 -12.105  -5.117  0.00  0.00     0.217 HD
ENDBRANCH  11  12
ENDBRANCH   1   5
BRANCH   3  14
ATOM     14  N   UNL d   1      24.781 -16.089  -2.472  0.00  0.00    -0.267 N 
ATOM     15  C   UNL d   1      25.125 -17.073  -1.553  0.00  0.00     0.243 C 
ATOM     16  O   UNL d   1      26.296 -17.445  -1.438  0.00  0.00    -0.271 OA
ATOM     17  H   UNL d   1      23.837 -15.739  -2.618  0.00  0.00     0.190 HD
BRANCH  15  18
ATOM     18  C   UNL d   1      23.973 -17.668  -0.696  0.00  0.00     0.032 C 
ATOM     19  C   UNL d   1      23.270 -18.804  -1.449  0.00  0.00     0.025 C 
ATOM     20  C   UNL d   1      24.513 -18.200   0.639  0.00  0.00     0.025 C 
ATOM     21  C   UNL d   1      22.922 -16.581  -0.383  0.00  0.00     0.025 C 
ENDBRANCH  15  18
ENDBRANCH   3  14
TORSDOF 4
ENDMDL
MODEL 6
REMARK VINA RESULT:    -5.718      3.652      5.572
REMARK INTER + INTRA:          -8.694
REMARK INTER:                  -6.911
REMARK INTRA:                  -1.783
REMARK CONF_INDEPENDENT:        1.193
REMARK UNBOUND:                -1.783
REMARK  4 active torsions:
REMARK  status: ('A' for Active; 'I' for Inactive)
REMARK    1  A    between atoms: C_5  and  C_6 
REMARK       I    between atoms: C_6  and  N_8 
REMARK    2  A    between atoms: N_8  and  N_9 
REMARK       I    between atoms: N_9  and  C_10 
REMARK    3  A    between atoms: C_10  and  C_12 
REMARK    4  A    between atoms: C_16  and  O_17 
ROOT
ATOM      1  C   UNL d   1      26.069 -16.153  -1.621  0.00  0.00     0.272 C 
ATOM      2  O   UNL d   1      27.008 -15.877  -0.868  0.00  0.00    -0.266 OA
ATOM      3  N   UNL d   1      26.098 -15.849  -2.978  0.00  0.00    -0.263 N 
ATOM      4  H   UNL d   1      25.354 -16.056  -3.639  0.00  0.00     0.190 HD
ENDROOT
BRANCH   1   5
ATOM      5  C   UNL d   1      24.852 -16.844  -1.055  0.00  0.00     0.066 A 
ATOM      6  C   UNL d   1      23.551 -16.362  -1.273  0.00  0.00     0.020 A 
ATOM      7  C   UNL d   1      22.428 -17.030  -0.750  0.00  0.00     0.008 A 
ATOM      8  C   UNL d   1      22.575 -18.203  -0.003  0.00  0.00    -0.059 A 
ATOM      9  C   UNL d   1      21.395 -18.950   0.548  0.00  0.00     0.048 C 
ATOM     10  C   UNL d   1      23.865 -18.685   0.230  0.00  0.00     0.044 A 
ATOM     11  C   UNL d   1      24.985 -18.015  -0.279  0.00  0.00     0.082 A 
BRANCH  11  12
ATOM     12  O   UNL d   1      26.189 -18.589   0.040  0.00  0.00    -0.360 OA
ATOM     13  H   UNL d   1      26.886 -17.903  -0.028  0.00  0.00     0.217 HD
ENDBRANCH  11  12
ENDBRANCH   1   5
BRANCH   3  14
ATOM     14  N   UNL d   1      27.229 -15.206  -3.548  0.00  0.00    -0.267 N 
ATOM     15  C   UNL d   1      27.311 -15.110  -4.932  0.00  0.00     0.243 C 
ATOM     16  O   UNL d   1      26.422 -15.574  -5.649  0.00  0.00    -0.271 OA
ATOM     17  H   UNL d   1      27.927 -14.848  -2.901  0.00  0.00     0.190 HD
BRANCH  15  18
ATOM     18  C   UNL d   1      28.564 -14.397  -5.513  0.00  0.00     0.032 C 
ATOM     19  C   UNL d   1      29.270 -13.575  -4.428  0.00  0.00     0.025 C 
ATOM     20  C   UNL d   1      29.548 -15.422  -6.095  0.00  0.00     0.025 C 
ATOM     21  C   UNL d   1      28.154 -13.435  -6.649  0.00  0.00     0.025 C 
ENDBRANCH  15  18
ENDBRANCH   3  14
TORSDOF 4
ENDMDL
MODEL 7
REMARK VINA RESULT:    -5.366      5.396      8.015
REMARK INTER + INTRA:          -8.413
REMARK INTER:                  -6.559
REMARK INTRA:                  -1.853
REMARK CONF_INDEPENDENT:        1.193
REMARK UNBOUND:                -1.853
REMARK  4 active torsions:
REMARK  status: ('A' for Active; 'I' for Inactive)
REMARK    1  A    between atoms: C_5  and  C_6 
REMARK       I    between atoms: C_6  and  N_8 
REMARK    2  A    between atoms: N_8  and  N_9 
REMARK       I    between atoms: N_9  and  C_10 
REMARK    3  A    between atoms: C_10  and  C_12 
REMARK    4  A    between atoms: C_16  and  O_17 
ROOT
ATOM      1  C   UNL d   1      25.158 -14.171  -3.286  0.00  0.00     0.272 C 
ATOM      2  O   UNL d   1      24.407 -14.450  -4.226  0.00  0.00    -0.266 OA
ATOM      3  N   UNL d   1      25.746 -12.917  -3.159  0.00  0.00    -0.263 N 
ATOM      4  H   UNL d   1      26.369 -12.638  -2.405  0.00  0.00     0.190 HD
ENDROOT
BRANCH   1   5
ATOM      5  C   UNL d   1      25.444 -15.220  -2.239  0.00  0.00     0.066 A 
ATOM      6  C   UNL d   1      24.541 -16.258  -1.957  0.00  0.00     0.020 A 
ATOM      7  C   UNL d   1      24.833 -17.236  -0.988  0.00  0.00     0.008 A 
ATOM      8  C   UNL d   1      26.040 -17.209  -0.283  0.00  0.00    -0.059 A 
ATOM      9  C   UNL d   1      26.390 -18.252   0.739  0.00  0.00     0.048 C 
ATOM     10  C   UNL d   1      26.942 -16.176  -0.548  0.00  0.00     0.044 A 
ATOM     11  C   UNL d   1      26.647 -15.193  -1.503  0.00  0.00     0.082 A 
BRANCH  11  12
ATOM     12  O   UNL d   1      27.613 -14.230  -1.648  0.00  0.00    -0.360 OA
ATOM     13  H   UNL d   1      28.401 -14.502  -1.132  0.00  0.00     0.217 HD
ENDBRANCH  11  12
ENDBRANCH   1   5
BRANCH   3  14
ATOM     14  N   UNL d   1      25.494 -11.902  -4.120  0.00  0.00    -0.267 N 
ATOM     15  C   UNL d   1      26.225 -10.723  -4.049  0.00  0.00     0.243 C 
ATOM     16  O   UNL d   1      27.073 -10.560  -3.168  0.00  0.00    -0.271 OA
ATOM     17  H   UNL d   1      24.780 -12.099  -4.818  0.00  0.00     0.190 HD
BRANCH  15  18
ATOM     18  C   UNL d   1      25.918  -9.640  -5.121  0.00  0.00     0.032 C 
ATOM     19  C   UNL d   1      25.537 -10.294  -6.455  0.00  0.00     0.025 C 
ATOM     20  C   UNL d   1      24.774  -8.728  -4.656  0.00  0.00     0.025 C 
ATOM     21  C   UNL d   1      27.162  -8.757  -5.362  0.00  0.00     0.025 C 
ENDBRANCH  15  18
ENDBRANCH   3  14
TORSDOF 4
ENDMDL
MODEL 8
REMARK VINA RESULT:    -5.250      4.371      6.459
REMARK INTER + INTRA:          -8.198
REMARK INTER:                  -6.443
REMARK INTRA:                  -1.755
REMARK CONF_INDEPENDENT:        1.193
REMARK UNBOUND:                -1.755
REMARK  4 active torsions:
REMARK  status: ('A' for Active; 'I' for Inactive)
REMARK    1  A    between atoms: C_5  and  C_6 
REMARK       I    between atoms: C_6  and  N_8 
REMARK    2  A    between atoms: N_8  and  N_9 
REMARK       I    between atoms: N_9  and  C_10 
REMARK    3  A    between atoms: C_10  and  C_12 
REMARK    4  A    between atoms: C_16  and  O_17 
ROOT
ATOM      1  C   UNL d   1      27.198 -16.115  -2.162  0.00  0.00     0.272 C 
ATOM      2  O   UNL d   1      28.272 -16.145  -1.551  0.00  0.00    -0.266 OA
ATOM      3  N   UNL d   1      27.091 -15.578  -3.440  0.00  0.00    -0.263 N 
ATOM      4  H   UNL d   1      26.233 -15.531  -3.984  0.00  0.00     0.190 HD
ENDROOT
BRANCH   1   5
ATOM      5  C   UNL d   1      25.963 -16.682  -1.503  0.00  0.00     0.066 A 
ATOM      6  C   UNL d   1      26.034 -17.702  -0.540  0.00  0.00     0.020 A 
ATOM      7  C   UNL d   1      24.872 -18.207   0.075  0.00  0.00     0.008 A 
ATOM      8  C   UNL d   1      23.611 -17.698  -0.250  0.00  0.00    -0.059 A 
ATOM      9  C   UNL d   1      22.357 -18.199   0.406  0.00  0.00     0.048 C 
ATOM     10  C   UNL d   1      23.528 -16.691  -1.214  0.00  0.00     0.044 A 
ATOM     11  C   UNL d   1      24.682 -16.196  -1.837  0.00  0.00     0.082 A 
BRANCH  11  12
ATOM     12  O   UNL d   1      24.452 -15.223  -2.776  0.00  0.00    -0.360 OA
ATOM     13  H   UNL d   1      24.379 -14.361  -2.315  0.00  0.00     0.217 HD
ENDBRANCH  11  12
ENDBRANCH   1   5
BRANCH   3  14
ATOM     14  N   UNL d   1      28.233 -15.043  -4.094  0.00  0.00    -0.267 N 
ATOM     15  C   UNL d   1      28.193 -14.882  -5.474  0.00  0.00     0.243 C 
ATOM     16  O   UNL d   1      27.189 -15.199  -6.116  0.00  0.00    -0.271 OA
ATOM     17  H   UNL d   1      29.028 -14.804  -3.506  0.00  0.00     0.190 HD
BRANCH  15  18
ATOM     18  C   UNL d   1      29.463 -14.291  -6.149  0.00  0.00     0.032 C 
ATOM     19  C   UNL d   1      30.310 -13.523  -5.126  0.00  0.00     0.025 C 
ATOM     20  C   UNL d   1      30.310 -15.407  -6.776  0.00  0.00     0.025 C 
ATOM     21  C   UNL d   1      29.064 -13.308  -7.272  0.00  0.00     0.025 C 
ENDBRANCH  15  18
ENDBRANCH   3  14
TORSDOF 4
ENDMDL
MODEL 9
REMARK VINA RESULT:    -5.073      5.523      9.063
REMARK INTER + INTRA:          -8.052
REMARK INTER:                  -6.266
REMARK INTRA:                  -1.786
REMARK CONF_INDEPENDENT:        1.193
REMARK UNBOUND:                -1.786
REMARK  4 active torsions:
REMARK  status: ('A' for Active; 'I' for Inactive)
REMARK    1  A    between atoms: C_5  and  C_6 
REMARK       I    between atoms: C_6  and  N_8 
REMARK    2  A    between atoms: N_8  and  N_9 
REMARK       I    between atoms: N_9  and  C_10 
REMARK    3  A    between atoms: C_10  and  C_12 
REMARK    4  A    between atoms: C_16  and  O_17 
ROOT
ATOM      1  C   UNL d   1      27.308 -13.272   2.934  0.00  0.00     0.272 C 
ATOM      2  O   UNL d   1      26.715 -12.314   2.426  0.00  0.00    -0.266 OA
ATOM      3  N   UNL d   1      27.522 -14.458   2.240  0.00  0.00    -0.263 N 
ATOM      4  H   UNL d   1      28.004 -15.273   2.612  0.00  0.00     0.190 HD
ENDROOT
BRANCH   1   5
ATOM      5  C   UNL d   1      27.818 -13.153   4.350  0.00  0.00     0.066 A 
ATOM      6  C   UNL d   1      27.939 -11.912   4.996  0.00  0.00     0.020 A 
ATOM      7  C   UNL d   1      28.402 -11.822   6.323  0.00  0.00     0.008 A 
ATOM      8  C   UNL d   1      28.747 -12.971   7.041  0.00  0.00    -0.059 A 
ATOM      9  C   UNL d   1      29.221 -12.910   8.464  0.00  0.00     0.048 C 
ATOM     10  C   UNL d   1      28.641 -14.210   6.404  0.00  0.00     0.044 A 
ATOM     11  C   UNL d   1      28.192 -14.300   5.079  0.00  0.00     0.082 A 
BRANCH  11  12
ATOM     12  O   UNL d   1      28.155 -15.575   4.575  0.00  0.00    -0.360 OA
ATOM     13  H   UNL d   1      29.048 -15.802   4.241  0.00  0.00     0.217 HD
ENDBRANCH  11  12
ENDBRANCH   1   5
BRANCH   3  14
ATOM     14  N   UNL d   1      27.063 -14.604   0.904  0.00  0.00    -0.267 N 
ATOM     15  C   UNL d   1      27.036 -15.877   0.346  0.00  0.00     0.243 C 
ATOM     16  O   UNL d   1      27.406 -16.857   0.997  0.00  0.00    -0.271 OA
ATOM     17  H   UNL d   1      26.775 -13.755   0.423  0.00  0.00     0.190 HD
BRANCH  15  18
ATOM     18  C   UNL d   1      26.525 -15.992  -1.117  0.00  0.00     0.032 C 
ATOM     19  C   UNL d   1      27.682 -16.323  -2.069  0.00  0.00     0.025 C 
ATOM     20  C   UNL d   1      25.447 -17.079  -1.229  0.00  0.00     0.025 C 
ATOM     21  C   UNL d   1      25.901 -14.655  -1.573  0.00  0.00     0.025 C 
ENDBRANCH  15  18
ENDBRANCH   3  14
TORSDOF 4
ENDMDL
