MODEL 1
REMARK VINA RESULT:    -9.904      0.000      0.000
REMARK INTER + INTRA:         -13.511
REMARK INTER:                 -11.993
REMARK INTRA:                  -1.518
REMARK CONF_INDEPENDENT:        2.088
REMARK UNBOUND:                -1.518
REMARK  7 active torsions:
REMARK  status: ('A' for Active; 'I' for Inactive)
REMARK    1  A    between atoms: C_2  and  C_3 
REMARK    2  A    between atoms: C_7  and  C_8 
REMARK       I    between atoms: C_8  and  N_9 
REMARK    3  A    between atoms: N_15  and  C_16 
REMARK    4  A    between atoms: C_16  and  C_17 
REMARK       I    between atoms: C_17  and  N_19 
REMARK    5  A    between atoms: N_19  and  C_20 
REMARK    6  A    between atoms: C_24  and  O_25 
REMARK    7  A    between atoms: O_25  and  C_26 
ROOT
ATOM      1  C   UNL d   1      28.059 -12.786  -6.249  0.00  0.00     0.054 C 
ATOM      2  C   UNL d   1      28.143 -14.141  -5.532  0.00  0.00     0.140 C 
ATOM      3  N   UNL d   1      26.881 -14.835  -5.545  0.00  0.00    -0.321 N 
ATOM      4  C   UNL d   1      26.135 -14.503  -4.427  0.00  0.00     0.326 C 
ATOM      5  O   UNL d   1      24.914 -14.532  -4.389  0.00  0.00    -0.247 OA
ATOM      6  N   UNL d   1      27.002 -14.124  -3.442  0.00  0.00    -0.259 N 
ATOM      7  C   UNL d   1      28.180 -13.783  -4.051  0.00  0.00     0.261 C 
ATOM      8  O   UNL d   1      29.131 -13.139  -3.600  0.00  0.00    -0.270 OA
ATOM      9  H   UNL d   1      26.493 -15.341  -6.330  0.00  0.00     0.165 HD
ENDROOT
BRANCH   6  10
ATOM     10  C   UNL d   1      26.635 -13.967  -2.011  0.00  0.00     0.240 C 
BRANCH  10  11
ATOM     11  C   UNL d   1      25.978 -15.208  -1.361  0.00  0.00     0.240 C 
ATOM     12  O   UNL d   1      26.441 -15.712  -0.338  0.00  0.00    -0.271 OA
ATOM     13  N   UNL d   1      24.913 -15.850  -1.982  0.00  0.00    -0.326 N 
ATOM     14  H   UNL d   1      24.798 -15.804  -2.984  0.00  0.00     0.169 HD
BRANCH  13  15
ATOM     15  C   UNL d   1      24.264 -16.908  -1.271  0.00  0.00     0.037 A 
ATOM     16  C   UNL d   1      24.963 -17.890  -0.579  0.00  0.00     0.029 A 
ATOM     17  C   UNL d   1      24.260 -18.945   0.031  0.00  0.00     0.005 A 
ATOM     18  C   UNL d   1      22.859 -19.001  -0.017  0.00  0.00     0.037 A 
ATOM     19  C   UNL d   1      22.152 -18.005  -0.683  0.00  0.00     0.078 A 
ATOM     20  C   UNL d   1      22.866 -16.963  -1.273  0.00  0.00     0.066 A 
BRANCH  19  21
ATOM     21  O   UNL d   1      20.775 -18.097  -0.711  0.00  0.00    -0.311 OA
BRANCH  21  22
ATOM     22  C   UNL d   1      20.159 -19.085   0.033  0.00  0.00     0.076 A 
ATOM     23  C   UNL d   1      19.170 -19.843  -0.594  0.00  0.00     0.037 A 
ATOM     24  C   UNL d   1      18.483 -20.823   0.128  0.00  0.00     0.003 A 
ATOM     25  C   UNL d   1      18.843 -21.105   1.447  0.00  0.00     0.000 A 
ATOM     26  C   UNL d   1      19.839 -20.359   2.073  0.00  0.00     0.003 A 
ATOM     27  C   UNL d   1      20.461 -19.319   1.382  0.00  0.00     0.037 A 
ENDBRANCH  21  22
ENDBRANCH  19  21
ENDBRANCH  13  15
ENDBRANCH  10  11
ENDBRANCH   6  10
BRANCH   2  28
ATOM     28  C   UNL d   1      29.312 -14.960  -6.055  0.00  0.00    -0.020 A 
ATOM     29  C   UNL d   1      29.495 -16.282  -5.619  0.00  0.00     0.010 A 
ATOM     30  C   UNL d   1      30.588 -17.030  -6.053  0.00  0.00     0.002 A 
ATOM     31  C   UNL d   1      31.471 -16.510  -6.998  0.00  0.00     0.017 A 
ATOM     32  C   UNL d   1      31.292 -15.215  -7.489  0.00  0.00     0.032 A 
ATOM     33  C   UNL d   1      30.213 -14.458  -7.017  0.00  0.00     0.027 A 
BRANCH  32  34
ATOM     34  C   UNL d   1      32.227 -14.567  -8.455  0.00  0.00     0.249 C 
ATOM     35  N   UNL d   1      31.722 -13.648  -9.327  0.00  0.00    -0.366 N 
ATOM     36  H   UNL d   1      30.756 -13.371  -9.377  0.00  0.00     0.159 HD
ATOM     37  H   UNL d   1      32.367 -13.259 -10.000  0.00  0.00     0.159 HD
ATOM     38  O   UNL d   1      33.419 -14.858  -8.509  0.00  0.00    -0.268 OA
ENDBRANCH  32  34
ENDBRANCH   2  28
TORSDOF 7
ENDMDL
MODEL 2
REMARK VINA RESULT:    -9.860      1.692      2.226
REMARK INTER + INTRA:         -13.352
REMARK INTER:                 -11.948
REMARK INTRA:                  -1.404
REMARK CONF_INDEPENDENT:        2.088
REMARK UNBOUND:                -1.404
REMARK  7 active torsions:
REMARK  status: ('A' for Active; 'I' for Inactive)
REMARK    1  A    between atoms: C_2  and  C_3 
REMARK    2  A    between atoms: C_7  and  C_8 
REMARK       I    between atoms: C_8  and  N_9 
REMARK    3  A    between atoms: N_15  and  C_16 
REMARK    4  A    between atoms: C_16  and  C_17 
REMARK       I    between atoms: C_17  and  N_19 
REMARK    5  A    between atoms: N_19  and  C_20 
REMARK    6  A    between atoms: C_24  and  O_25 
REMARK    7  A    between atoms: O_25  and  C_26 
ROOT
ATOM      1  C   UNL d   1      28.564 -12.700  -5.727  0.00  0.00     0.054 C 
ATOM      2  C   UNL d   1      28.417 -14.182  -5.354  0.00  0.00     0.140 C 
ATOM      3  N   UNL d   1      27.132 -14.707  -5.741  0.00  0.00    -0.321 N 
ATOM      4  C   UNL d   1      26.217 -14.552  -4.712  0.00  0.00     0.326 C 
ATOM      5  O   UNL d   1      25.012 -14.450  -4.882  0.00  0.00    -0.247 OA
ATOM      6  N   UNL d   1      26.912 -14.506  -3.537  0.00  0.00    -0.259 N 
ATOM      7  C   UNL d   1      28.204 -14.173  -3.846  0.00  0.00     0.261 C 
ATOM      8  O   UNL d   1      29.099 -13.760  -3.103  0.00  0.00    -0.270 OA
ATOM      9  H   UNL d   1      26.861 -14.976  -6.677  0.00  0.00     0.165 HD
ENDROOT
BRANCH   6  10
ATOM     10  C   UNL d   1      26.299 -14.635  -2.190  0.00  0.00     0.240 C 
BRANCH  10  11
ATOM     11  C   UNL d   1      25.354 -15.848  -2.011  0.00  0.00     0.240 C 
ATOM     12  O   UNL d   1      25.156 -16.641  -2.931  0.00  0.00    -0.271 OA
ATOM     13  N   UNL d   1      24.621 -16.006  -0.841  0.00  0.00    -0.326 N 
ATOM     14  H   UNL d   1      24.370 -15.205  -0.279  0.00  0.00     0.169 HD
BRANCH  13  15
ATOM     15  C   UNL d   1      23.869 -17.212  -0.681  0.00  0.00     0.037 A 
ATOM     16  C   UNL d   1      24.464 -18.465  -0.596  0.00  0.00     0.029 A 
ATOM     17  C   UNL d   1      23.658 -19.614  -0.520  0.00  0.00     0.005 A 
ATOM     18  C   UNL d   1      22.258 -19.513  -0.492  0.00  0.00     0.037 A 
ATOM     19  C   UNL d   1      21.657 -18.259  -0.547  0.00  0.00     0.078 A 
ATOM     20  C   UNL d   1      22.474 -17.132  -0.612  0.00  0.00     0.066 A 
BRANCH  19  21
ATOM     21  O   UNL d   1      20.278 -18.201  -0.520  0.00  0.00    -0.311 OA
BRANCH  21  22
ATOM     22  C   UNL d   1      19.583 -19.198   0.138  0.00  0.00     0.076 A 
ATOM     23  C   UNL d   1      19.806 -19.344   1.506  0.00  0.00     0.037 A 
ATOM     24  C   UNL d   1      19.164 -20.366   2.210  0.00  0.00     0.003 A 
ATOM     25  C   UNL d   1      18.234 -21.186   1.567  0.00  0.00     0.000 A 
ATOM     26  C   UNL d   1      17.999 -21.035   0.202  0.00  0.00     0.003 A 
ATOM     27  C   UNL d   1      18.709 -20.075  -0.520  0.00  0.00     0.037 A 
ENDBRANCH  21  22
ENDBRANCH  19  21
ENDBRANCH  13  15
ENDBRANCH  10  11
ENDBRANCH   6  10
BRANCH   2  28
ATOM     28  C   UNL d   1      29.600 -14.989  -5.863  0.00  0.00    -0.020 A 
ATOM     29  C   UNL d   1      30.701 -14.335  -6.438  0.00  0.00     0.010 A 
ATOM     30  C   UNL d   1      31.773 -15.064  -6.951  0.00  0.00     0.002 A 
ATOM     31  C   UNL d   1      31.812 -16.452  -6.823  0.00  0.00     0.017 A 
ATOM     32  C   UNL d   1      30.755 -17.131  -6.213  0.00  0.00     0.032 A 
ATOM     33  C   UNL d   1      29.664 -16.392  -5.736  0.00  0.00     0.027 A 
BRANCH  32  34
ATOM     34  C   UNL d   1      30.695 -18.617  -6.092  0.00  0.00     0.249 C 
ATOM     35  N   UNL d   1      30.405 -19.346  -7.207  0.00  0.00    -0.366 N 
ATOM     36  H   UNL d   1      30.219 -18.959  -8.117  0.00  0.00     0.159 HD
ATOM     37  H   UNL d   1      30.325 -20.346  -7.087  0.00  0.00     0.159 HD
ATOM     38  O   UNL d   1      30.867 -19.194  -5.021  0.00  0.00    -0.268 OA
ENDBRANCH  32  34
ENDBRANCH   2  28
TORSDOF 7
ENDMDL
MODEL 3
REMARK VINA RESULT:    -9.678      4.034      6.589
REMARK INTER + INTRA:         -13.405
REMARK INTER:                 -11.766
REMARK INTRA:                  -1.639
REMARK CONF_INDEPENDENT:        2.088
REMARK UNBOUND:                -1.639
REMARK  7 active torsions:
REMARK  status: ('A' for Active; 'I' for Inactive)
REMARK    1  A    between atoms: C_2  and  C_3 
REMARK    2  A    between atoms: C_7  and  C_8 
REMARK       I    between atoms: C_8  and  N_9 
REMARK    3  A    between atoms: N_15  and  C_16 
REMARK    4  A    between atoms: C_16  and  C_17 
REMARK       I    between atoms: C_17  and  N_19 
REMARK    5  A    between atoms: N_19  and  C_20 
REMARK    6  A    between atoms: C_24  and  O_25 
REMARK    7  A    between atoms: O_25  and  C_26 
ROOT
ATOM      1  C   UNL d   1      26.206 -12.600   1.731  0.00  0.00     0.054 C 
ATOM      2  C   UNL d   1      27.434 -12.996   0.897  0.00  0.00     0.140 C 
ATOM      3  N   UNL d   1      27.751 -12.002  -0.096  0.00  0.00    -0.321 N 
ATOM      4  C   UNL d   1      27.092 -12.276  -1.283  0.00  0.00     0.326 C 
ATOM      5  O   UNL d   1      26.780 -11.425  -2.102  0.00  0.00    -0.247 OA
ATOM      6  N   UNL d   1      26.847 -13.620  -1.325  0.00  0.00    -0.259 N 
ATOM      7  C   UNL d   1      26.920 -14.083  -0.038  0.00  0.00     0.261 C 
ATOM      8  O   UNL d   1      26.511 -15.150   0.429  0.00  0.00    -0.270 OA
ATOM      9  H   UNL d   1      28.224 -11.125   0.075  0.00  0.00     0.165 HD
ENDROOT
BRANCH   6  10
ATOM     10  C   UNL d   1      26.421 -14.361  -2.540  0.00  0.00     0.240 C 
BRANCH  10  11
ATOM     11  C   UNL d   1      25.529 -15.598  -2.277  0.00  0.00     0.240 C 
ATOM     12  O   UNL d   1      25.337 -16.442  -3.152  0.00  0.00    -0.271 OA
ATOM     13  N   UNL d   1      24.833 -15.725  -1.081  0.00  0.00    -0.326 N 
ATOM     14  H   UNL d   1      24.565 -14.907  -0.551  0.00  0.00     0.169 HD
BRANCH  13  15
ATOM     15  C   UNL d   1      24.132 -16.948  -0.843  0.00  0.00     0.037 A 
ATOM     16  C   UNL d   1      24.780 -18.143  -0.552  0.00  0.00     0.029 A 
ATOM     17  C   UNL d   1      24.030 -19.324  -0.408  0.00  0.00     0.005 A 
ATOM     18  C   UNL d   1      22.631 -19.308  -0.517  0.00  0.00     0.037 A 
ATOM     19  C   UNL d   1      21.974 -18.110  -0.779  0.00  0.00     0.078 A 
ATOM     20  C   UNL d   1      22.734 -16.949  -0.908  0.00  0.00     0.066 A 
BRANCH  19  21
ATOM     21  O   UNL d   1      20.597 -18.135  -0.882  0.00  0.00    -0.311 OA
BRANCH  21  22
ATOM     22  C   UNL d   1      19.894 -19.084  -0.164  0.00  0.00     0.076 A 
ATOM     23  C   UNL d   1      18.897 -19.791  -0.835  0.00  0.00     0.037 A 
ATOM     24  C   UNL d   1      18.124 -20.728  -0.144  0.00  0.00     0.003 A 
ATOM     25  C   UNL d   1      18.405 -21.022   1.192  0.00  0.00     0.000 A 
ATOM     26  C   UNL d   1      19.408 -20.326   1.862  0.00  0.00     0.003 A 
ATOM     27  C   UNL d   1      20.119 -19.325   1.198  0.00  0.00     0.037 A 
ENDBRANCH  21  22
ENDBRANCH  19  21
ENDBRANCH  13  15
ENDBRANCH  10  11
ENDBRANCH   6  10
BRANCH   2  28
ATOM     28  C   UNL d   1      28.599 -13.376   1.795  0.00  0.00    -0.020 A 
ATOM     29  C   UNL d   1      29.918 -13.237   1.332  0.00  0.00     0.010 A 
ATOM     30  C   UNL d   1      30.996 -13.625   2.126  0.00  0.00     0.002 A 
ATOM     31  C   UNL d   1      30.789 -14.077   3.429  0.00  0.00     0.017 A 
ATOM     32  C   UNL d   1      29.493 -14.183   3.938  0.00  0.00     0.032 A 
ATOM     33  C   UNL d   1      28.415 -13.827   3.119  0.00  0.00     0.027 A 
BRANCH  32  34
ATOM     34  C   UNL d   1      29.188 -14.713   5.299  0.00  0.00     0.249 C 
ATOM     35  N   UNL d   1      30.201 -14.783   6.209  0.00  0.00    -0.366 N 
ATOM     36  H   UNL d   1      31.153 -14.510   6.034  0.00  0.00     0.159 HD
ATOM     37  H   UNL d   1      29.976 -15.189   7.107  0.00  0.00     0.159 HD
ATOM     38  O   UNL d   1      28.068 -15.112   5.611  0.00  0.00    -0.268 OA
ENDBRANCH  32  34
ENDBRANCH   2  28
TORSDOF 7
ENDMDL
MODEL 4
REMARK VINA RESULT:    -9.374      4.613      7.452
REMARK INTER + INTRA:         -12.982
REMARK INTER:                 -11.463
REMARK INTRA:                  -1.519
REMARK CONF_INDEPENDENT:        2.088
REMARK UNBOUND:                -1.519
REMARK  7 active torsions:
REMARK  status: ('A' for Active; 'I' for Inactive)
REMARK    1  A    between atoms: C_2  and  C_3 
REMARK    2  A    between atoms: C_7  and  C_8 
REMARK       I    between atoms: C_8  and  N_9 
REMARK    3  A    between atoms: N_15  and  C_16 
REMARK    4  A    between atoms: C_16  and  C_17 
REMARK       I    between atoms: C_17  and  N_19 
REMARK    5  A    between atoms: N_19  and  C_20 
REMARK    6  A    between atoms: C_24  and  O_25 
REMARK    7  A    between atoms: O_25  and  C_26 
ROOT
ATOM      1  C   UNL d   1      30.122 -13.506   1.008  0.00  0.00     0.054 C 
ATOM      2  C   UNL d   1      28.688 -13.732   1.509  0.00  0.00     0.140 C 
ATOM      3  N   UNL d   1      28.348 -15.131   1.550  0.00  0.00    -0.321 N 
ATOM      4  C   UNL d   1      27.789 -15.528   0.347  0.00  0.00     0.326 C 
ATOM      5  O   UNL d   1      27.844 -16.670  -0.086  0.00  0.00    -0.247 OA
ATOM      6  N   UNL d   1      27.225 -14.429  -0.236  0.00  0.00    -0.259 N 
ATOM      7  C   UNL d   1      27.808 -13.328   0.333  0.00  0.00     0.261 C 
ATOM      8  O   UNL d   1      27.813 -12.159  -0.062  0.00  0.00    -0.270 OA
ATOM      9  H   UNL d   1      28.638 -15.789   2.261  0.00  0.00     0.165 HD
ENDROOT
BRANCH   6  10
ATOM     10  C   UNL d   1      26.284 -14.474  -1.385  0.00  0.00     0.240 C 
BRANCH  10  11
ATOM     11  C   UNL d   1      25.345 -15.702  -1.417  0.00  0.00     0.240 C 
ATOM     12  O   UNL d   1      25.162 -16.337  -2.456  0.00  0.00    -0.271 OA
ATOM     13  N   UNL d   1      24.597 -16.050  -0.298  0.00  0.00    -0.326 N 
ATOM     14  H   UNL d   1      24.334 -15.351   0.382  0.00  0.00     0.169 HD
BRANCH  13  15
ATOM     15  C   UNL d   1      23.850 -17.268  -0.346  0.00  0.00     0.037 A 
ATOM     16  C   UNL d   1      24.453 -18.520  -0.395  0.00  0.00     0.029 A 
ATOM     17  C   UNL d   1      23.655 -19.672  -0.521  0.00  0.00     0.005 A 
ATOM     18  C   UNL d   1      22.255 -19.579  -0.561  0.00  0.00     0.037 A 
ATOM     19  C   UNL d   1      21.645 -18.331  -0.482  0.00  0.00     0.078 A 
ATOM     20  C   UNL d   1      22.453 -17.203  -0.348  0.00  0.00     0.066 A 
BRANCH  19  21
ATOM     21  O   UNL d   1      20.266 -18.281  -0.527  0.00  0.00    -0.311 OA
BRANCH  21  22
ATOM     22  C   UNL d   1      19.543 -19.253   0.138  0.00  0.00     0.076 A 
ATOM     23  C   UNL d   1      19.721 -19.358   1.516  0.00  0.00     0.037 A 
ATOM     24  C   UNL d   1      19.049 -20.355   2.230  0.00  0.00     0.003 A 
ATOM     25  C   UNL d   1      18.135 -21.188   1.582  0.00  0.00     0.000 A 
ATOM     26  C   UNL d   1      17.945 -21.077   0.206  0.00  0.00     0.003 A 
ATOM     27  C   UNL d   1      18.684 -20.143  -0.522  0.00  0.00     0.037 A 
ENDBRANCH  21  22
ENDBRANCH  19  21
ENDBRANCH  13  15
ENDBRANCH  10  11
ENDBRANCH   6  10
BRANCH   2  28
ATOM     28  C   UNL d   1      28.447 -12.992   2.815  0.00  0.00    -0.020 A 
ATOM     29  C   UNL d   1      27.763 -11.766   2.812  0.00  0.00     0.010 A 
ATOM     30  C   UNL d   1      27.575 -11.052   3.994  0.00  0.00     0.002 A 
ATOM     31  C   UNL d   1      27.986 -11.586   5.216  0.00  0.00     0.017 A 
ATOM     32  C   UNL d   1      28.628 -12.825   5.261  0.00  0.00     0.032 A 
ATOM     33  C   UNL d   1      28.847 -13.516   4.062  0.00  0.00     0.027 A 
BRANCH  32  34
ATOM     34  C   UNL d   1      29.150 -13.433   6.519  0.00  0.00     0.249 C 
ATOM     35  N   UNL d   1      28.986 -14.774   6.706  0.00  0.00    -0.366 N 
ATOM     36  H   UNL d   1      28.530 -15.395   6.058  0.00  0.00     0.159 HD
ATOM     37  H   UNL d   1      29.307 -15.152   7.587  0.00  0.00     0.159 HD
ATOM     38  O   UNL d   1      29.688 -12.763   7.397  0.00  0.00    -0.268 OA
ENDBRANCH  32  34
ENDBRANCH   2  28
TORSDOF 7
ENDMDL
MODEL 5
REMARK VINA RESULT:    -9.336      7.480     10.720
REMARK INTER + INTRA:         -12.965
REMARK INTER:                 -11.424
REMARK INTRA:                  -1.541
REMARK CONF_INDEPENDENT:        2.088
REMARK UNBOUND:                -1.541
REMARK  7 active torsions:
REMARK  status: ('A' for Active; 'I' for Inactive)
REMARK    1  A    between atoms: C_2  and  C_3 
REMARK    2  A    between atoms: C_7  and  C_8 
REMARK       I    between atoms: C_8  and  N_9 
REMARK    3  A    between atoms: N_15  and  C_16 
REMARK    4  A    between atoms: C_16  and  C_17 
REMARK       I    between atoms: C_17  and  N_19 
REMARK    5  A    between atoms: N_19  and  C_20 
REMARK    6  A    between atoms: C_24  and  O_25 
REMARK    7  A    between atoms: O_25  and  C_26 
ROOT
ATOM      1  C   UNL d   1      30.705 -11.516   6.401  0.00  0.00     0.054 C 
ATOM      2  C   UNL d   1      29.767 -12.729   6.329  0.00  0.00     0.140 C 
ATOM      3  N   UNL d   1      30.192 -13.679   5.333  0.00  0.00    -0.321 N 
ATOM      4  C   UNL d   1      29.608 -13.392   4.110  0.00  0.00     0.326 C 
ATOM      5  O   UNL d   1      30.104 -13.682   3.032  0.00  0.00    -0.247 OA
ATOM      6  N   UNL d   1      28.440 -12.723   4.351  0.00  0.00    -0.259 N 
ATOM      7  C   UNL d   1      28.526 -12.206   5.616  0.00  0.00     0.261 C 
ATOM      8  O   UNL d   1      27.844 -11.322   6.142  0.00  0.00    -0.270 OA
ATOM      9  H   UNL d   1      30.947 -14.344   5.434  0.00  0.00     0.165 HD
ENDROOT
BRANCH   6  10
ATOM     10  C   UNL d   1      27.380 -12.488   3.337  0.00  0.00     0.240 C 
BRANCH  10  11
ATOM     11  C   UNL d   1      27.359 -13.495   2.162  0.00  0.00     0.240 C 
ATOM     12  O   UNL d   1      26.620 -13.326   1.192  0.00  0.00    -0.271 OA
ATOM     13  N   UNL d   1      28.093 -14.673   2.228  0.00  0.00    -0.326 N 
ATOM     14  H   UNL d   1      28.319 -15.090   3.120  0.00  0.00     0.169 HD
BRANCH  13  15
ATOM     15  C   UNL d   1      28.139 -15.498   1.061  0.00  0.00     0.037 A 
ATOM     16  C   UNL d   1      29.072 -15.318   0.047  0.00  0.00     0.029 A 
ATOM     17  C   UNL d   1      29.006 -16.116  -1.109  0.00  0.00     0.005 A 
ATOM     18  C   UNL d   1      28.033 -17.119  -1.239  0.00  0.00     0.037 A 
ATOM     19  C   UNL d   1      27.114 -17.324  -0.215  0.00  0.00     0.078 A 
ATOM     20  C   UNL d   1      27.202 -16.529   0.927  0.00  0.00     0.066 A 
BRANCH  19  21
ATOM     21  O   UNL d   1      26.171 -18.318  -0.381  0.00  0.00    -0.311 OA
BRANCH  21  22
ATOM     22  C   UNL d   1      24.846 -17.958  -0.538  0.00  0.00     0.076 A 
ATOM     23  C   UNL d   1      23.892 -18.974  -0.487  0.00  0.00     0.037 A 
ATOM     24  C   UNL d   1      22.542 -18.671  -0.686  0.00  0.00     0.003 A 
ATOM     25  C   UNL d   1      22.137 -17.345  -0.848  0.00  0.00     0.000 A 
ATOM     26  C   UNL d   1      23.086 -16.326  -0.887  0.00  0.00     0.003 A 
ATOM     27  C   UNL d   1      24.442 -16.638  -0.781  0.00  0.00     0.037 A 
ENDBRANCH  21  22
ENDBRANCH  19  21
ENDBRANCH  13  15
ENDBRANCH  10  11
ENDBRANCH   6  10
BRANCH   2  28
ATOM     28  C   UNL d   1      29.547 -13.328   7.709  0.00  0.00    -0.020 A 
ATOM     29  C   UNL d   1      28.413 -12.971   8.457  0.00  0.00     0.010 A 
ATOM     30  C   UNL d   1      28.221 -13.475   9.742  0.00  0.00     0.002 A 
ATOM     31  C   UNL d   1      29.107 -14.412  10.275  0.00  0.00     0.017 A 
ATOM     32  C   UNL d   1      30.220 -14.824   9.539  0.00  0.00     0.032 A 
ATOM     33  C   UNL d   1      30.424 -14.282   8.264  0.00  0.00     0.027 A 
BRANCH  32  34
ATOM     34  C   UNL d   1      31.243 -15.775  10.063  0.00  0.00     0.249 C 
ATOM     35  N   UNL d   1      32.533 -15.635   9.642  0.00  0.00    -0.366 N 
ATOM     36  H   UNL d   1      32.854 -14.936   8.994  0.00  0.00     0.159 HD
ATOM     37  H   UNL d   1      33.196 -16.321   9.976  0.00  0.00     0.159 HD
ATOM     38  O   UNL d   1      30.955 -16.691  10.829  0.00  0.00    -0.268 OA
ENDBRANCH  32  34
ENDBRANCH   2  28
TORSDOF 7
ENDMDL
MODEL 6
REMARK VINA RESULT:    -8.953      2.621      4.163
REMARK INTER + INTRA:         -12.944
REMARK INTER:                 -11.041
REMARK INTRA:                  -1.904
REMARK CONF_INDEPENDENT:        2.088
REMARK UNBOUND:                -1.904
REMARK  7 active torsions:
REMARK  status: ('A' for Active; 'I' for Inactive)
REMARK    1  A    between atoms: C_2  and  C_3 
REMARK    2  A    between atoms: C_7  and  C_8 
REMARK       I    between atoms: C_8  and  N_9 
REMARK    3  A    between atoms: N_15  and  C_16 
REMARK    4  A    between atoms: C_16  and  C_17 
REMARK       I    between atoms: C_17  and  N_19 
REMARK    5  A    between atoms: N_19  and  C_20 
REMARK    6  A    between atoms: C_24  and  O_25 
REMARK    7  A    between atoms: O_25  and  C_26 
ROOT
ATOM      1  C   UNL d   1      31.130 -14.593  -5.407  0.00  0.00     0.054 C 
ATOM      2  C   UNL d   1      30.184 -15.335  -6.362  0.00  0.00     0.140 C 
ATOM      3  N   UNL d   1      29.572 -14.442  -7.313  0.00  0.00    -0.321 N 
ATOM      4  C   UNL d   1      28.378 -13.950  -6.814  0.00  0.00     0.326 C 
ATOM      5  O   UNL d   1      27.897 -12.873  -7.136  0.00  0.00    -0.247 OA
ATOM      6  N   UNL d   1      27.895 -14.855  -5.912  0.00  0.00    -0.259 N 
ATOM      7  C   UNL d   1      28.951 -15.633  -5.518  0.00  0.00     0.261 C 
ATOM      8  O   UNL d   1      29.044 -16.379  -4.539  0.00  0.00    -0.270 OA
ATOM      9  H   UNL d   1      30.016 -14.065  -8.139  0.00  0.00     0.165 HD
ENDROOT
BRANCH   6  10
ATOM     10  C   UNL d   1      26.512 -14.848  -5.369  0.00  0.00     0.240 C 
BRANCH  10  11
ATOM     11  C   UNL d   1      26.401 -15.120  -3.850  0.00  0.00     0.240 C 
ATOM     12  O   UNL d   1      25.306 -15.182  -3.292  0.00  0.00    -0.271 OA
ATOM     13  N   UNL d   1      27.543 -15.191  -3.060  0.00  0.00    -0.326 N 
ATOM     14  H   UNL d   1      28.385 -14.702  -3.328  0.00  0.00     0.169 HD
BRANCH  13  15
ATOM     15  C   UNL d   1      27.385 -15.575  -1.691  0.00  0.00     0.037 A 
ATOM     16  C   UNL d   1      28.066 -14.953  -0.651  0.00  0.00     0.029 A 
ATOM     17  C   UNL d   1      27.922 -15.437   0.662  0.00  0.00     0.005 A 
ATOM     18  C   UNL d   1      27.071 -16.517   0.944  0.00  0.00     0.037 A 
ATOM     19  C   UNL d   1      26.364 -17.125  -0.089  0.00  0.00     0.078 A 
ATOM     20  C   UNL d   1      26.513 -16.624  -1.382  0.00  0.00     0.066 A 
BRANCH  19  21
ATOM     21  O   UNL d   1      25.540 -18.186   0.227  0.00  0.00    -0.311 OA
BRANCH  21  22
ATOM     22  C   UNL d   1      24.209 -18.127  -0.139  0.00  0.00     0.076 A 
ATOM     23  C   UNL d   1      23.564 -19.331  -0.422  0.00  0.00     0.037 A 
ATOM     24  C   UNL d   1      22.231 -19.323  -0.842  0.00  0.00     0.003 A 
ATOM     25  C   UNL d   1      21.518 -18.124  -0.895  0.00  0.00     0.000 A 
ATOM     26  C   UNL d   1      22.155 -16.921  -0.601  0.00  0.00     0.003 A 
ATOM     27  C   UNL d   1      23.511 -16.919  -0.270  0.00  0.00     0.037 A 
ENDBRANCH  21  22
ENDBRANCH  19  21
ENDBRANCH  13  15
ENDBRANCH  10  11
ENDBRANCH   6  10
BRANCH   2  28
ATOM     28  C   UNL d   1      30.876 -16.535  -6.988  0.00  0.00    -0.020 A 
ATOM     29  C   UNL d   1      31.874 -16.343  -7.957  0.00  0.00     0.010 A 
ATOM     30  C   UNL d   1      32.486 -17.434  -8.574  0.00  0.00     0.002 A 
ATOM     31  C   UNL d   1      32.180 -18.735  -8.176  0.00  0.00     0.017 A 
ATOM     32  C   UNL d   1      31.226 -18.960  -7.182  0.00  0.00     0.032 A 
ATOM     33  C   UNL d   1      30.589 -17.859  -6.596  0.00  0.00     0.027 A 
BRANCH  32  34
ATOM     34  C   UNL d   1      30.802 -20.322  -6.745  0.00  0.00     0.249 C 
ATOM     35  N   UNL d   1      31.155 -21.389  -7.518  0.00  0.00    -0.366 N 
ATOM     36  H   UNL d   1      31.680 -21.332  -8.374  0.00  0.00     0.159 HD
ATOM     37  H   UNL d   1      30.815 -22.294  -7.223  0.00  0.00     0.159 HD
ATOM     38  O   UNL d   1      30.124 -20.505  -5.737  0.00  0.00    -0.268 OA
ENDBRANCH  32  34
ENDBRANCH   2  28
TORSDOF 7
ENDMDL
MODEL 7
REMARK VINA RESULT:    -8.656      5.639      9.442
REMARK INTER + INTRA:         -13.075
REMARK INTER:                 -10.744
REMARK INTRA:                  -2.331
REMARK CONF_INDEPENDENT:        2.088
REMARK UNBOUND:                -2.331
REMARK  7 active torsions:
REMARK  status: ('A' for Active; 'I' for Inactive)
REMARK    1  A    between atoms: C_2  and  C_3 
REMARK    2  A    between atoms: C_7  and  C_8 
REMARK       I    between atoms: C_8  and  N_9 
REMARK    3  A    between atoms: N_15  and  C_16 
REMARK    4  A    between atoms: C_16  and  C_17 
REMARK       I    between atoms: C_17  and  N_19 
REMARK    5  A    between atoms: N_19  and  C_20 
REMARK    6  A    between atoms: C_24  and  O_25 
REMARK    7  A    between atoms: O_25  and  C_26 
ROOT
ATOM      1  C   UNL d   1      31.186 -12.722   2.167  0.00  0.00     0.054 C 
ATOM      2  C   UNL d   1      30.763 -14.100   2.697  0.00  0.00     0.140 C 
ATOM      3  N   UNL d   1      31.891 -14.982   2.858  0.00  0.00    -0.321 N 
ATOM      4  C   UNL d   1      32.109 -15.704   1.697  0.00  0.00     0.326 C 
ATOM      5  O   UNL d   1      33.199 -16.141   1.361  0.00  0.00    -0.247 OA
ATOM      6  N   UNL d   1      30.921 -15.791   1.028  0.00  0.00    -0.259 N 
ATOM      7  C   UNL d   1      30.120 -14.785   1.498  0.00  0.00     0.261 C 
ATOM      8  O   UNL d   1      29.089 -14.318   1.006  0.00  0.00    -0.270 OA
ATOM      9  H   UNL d   1      32.556 -14.958   3.619  0.00  0.00     0.165 HD
ENDROOT
BRANCH   6  10
ATOM     10  C   UNL d   1      30.658 -16.715  -0.106  0.00  0.00     0.240 C 
BRANCH  10  11
ATOM     11  C   UNL d   1      29.173 -16.835  -0.525  0.00  0.00     0.240 C 
ATOM     12  O   UNL d   1      28.847 -16.862  -1.712  0.00  0.00    -0.271 OA
ATOM     13  N   UNL d   1      28.164 -16.802   0.430  0.00  0.00    -0.326 N 
ATOM     14  H   UNL d   1      28.304 -16.325   1.310  0.00  0.00     0.169 HD
BRANCH  13  15
ATOM     15  C   UNL d   1      26.824 -17.049  -0.004  0.00  0.00     0.037 A 
ATOM     16  C   UNL d   1      26.094 -18.160   0.401  0.00  0.00     0.029 A 
ATOM     17  C   UNL d   1      24.810 -18.381  -0.130  0.00  0.00     0.005 A 
ATOM     18  C   UNL d   1      24.239 -17.474  -1.036  0.00  0.00     0.037 A 
ATOM     19  C   UNL d   1      24.954 -16.344  -1.423  0.00  0.00     0.078 A 
ATOM     20  C   UNL d   1      26.220 -16.139  -0.879  0.00  0.00     0.066 A 
BRANCH  19  21
ATOM     21  O   UNL d   1      24.359 -15.478  -2.319  0.00  0.00    -0.311 OA
BRANCH  21  22
ATOM     22  C   UNL d   1      25.155 -14.825  -3.241  0.00  0.00     0.076 A 
ATOM     23  C   UNL d   1      25.161 -13.431  -3.214  0.00  0.00     0.037 A 
ATOM     24  C   UNL d   1      25.911 -12.721  -4.155  0.00  0.00     0.003 A 
ATOM     25  C   UNL d   1      26.723 -13.401  -5.065  0.00  0.00     0.000 A 
ATOM     26  C   UNL d   1      26.730 -14.794  -5.086  0.00  0.00     0.003 A 
ATOM     27  C   UNL d   1      25.910 -15.504  -4.208  0.00  0.00     0.037 A 
ENDBRANCH  21  22
ENDBRANCH  19  21
ENDBRANCH  13  15
ENDBRANCH  10  11
ENDBRANCH   6  10
BRANCH   2  28
ATOM     28  C   UNL d   1      29.896 -13.961   3.938  0.00  0.00    -0.020 A 
ATOM     29  C   UNL d   1      28.580 -14.450   3.933  0.00  0.00     0.010 A 
ATOM     30  C   UNL d   1      27.757 -14.289   5.046  0.00  0.00     0.002 A 
ATOM     31  C   UNL d   1      28.254 -13.718   6.218  0.00  0.00     0.017 A 
ATOM     32  C   UNL d   1      29.573 -13.264   6.273  0.00  0.00     0.032 A 
ATOM     33  C   UNL d   1      30.380 -13.395   5.135  0.00  0.00     0.027 A 
BRANCH  32  34
ATOM     34  C   UNL d   1      30.160 -12.589   7.467  0.00  0.00     0.249 C 
ATOM     35  N   UNL d   1      31.518 -12.550   7.587  0.00  0.00    -0.366 N 
ATOM     36  H   UNL d   1      32.166 -12.950   6.929  0.00  0.00     0.159 HD
ATOM     37  H   UNL d   1      31.887 -12.128   8.428  0.00  0.00     0.159 HD
ATOM     38  O   UNL d   1      29.462 -12.101   8.352  0.00  0.00    -0.268 OA
ENDBRANCH  32  34
ENDBRANCH   2  28
TORSDOF 7
ENDMDL
MODEL 8
REMARK VINA RESULT:    -8.483      5.435      9.306
REMARK INTER + INTRA:         -12.910
REMARK INTER:                 -10.571
REMARK INTRA:                  -2.339
REMARK CONF_INDEPENDENT:        2.088
REMARK UNBOUND:                -2.339
REMARK  7 active torsions:
REMARK  status: ('A' for Active; 'I' for Inactive)
REMARK    1  A    between atoms: C_2  and  C_3 
REMARK    2  A    between atoms: C_7  and  C_8 
REMARK       I    between atoms: C_8  and  N_9 
REMARK    3  A    between atoms: N_15  and  C_16 
REMARK    4  A    between atoms: C_16  and  C_17 
REMARK       I    between atoms: C_17  and  N_19 
REMARK    5  A    between atoms: N_19  and  C_20 
REMARK    6  A    between atoms: C_24  and  O_25 
REMARK    7  A    between atoms: O_25  and  C_26 
ROOT
ATOM      1  C   UNL d   1      31.477 -12.677   2.389  0.00  0.00     0.054 C 
ATOM      2  C   UNL d   1      30.880 -14.015   2.850  0.00  0.00     0.140 C 
ATOM      3  N   UNL d   1      31.901 -15.001   3.097  0.00  0.00    -0.321 N 
ATOM      4  C   UNL d   1      32.159 -15.728   1.947  0.00  0.00     0.326 C 
ATOM      5  O   UNL d   1      33.231 -16.262   1.704  0.00  0.00    -0.247 OA
ATOM      6  N   UNL d   1      31.036 -15.695   1.170  0.00  0.00    -0.259 N 
ATOM      7  C   UNL d   1      30.291 -14.623   1.583  0.00  0.00     0.261 C 
ATOM      8  O   UNL d   1      29.359 -14.056   1.008  0.00  0.00    -0.270 OA
ATOM      9  H   UNL d   1      32.491 -15.048   3.917  0.00  0.00     0.165 HD
ENDROOT
BRANCH   6  10
ATOM     10  C   UNL d   1      30.796 -16.578  -0.001  0.00  0.00     0.240 C 
BRANCH  10  11
ATOM     11  C   UNL d   1      29.311 -16.748  -0.402  0.00  0.00     0.240 C 
ATOM     12  O   UNL d   1      28.985 -16.923  -1.576  0.00  0.00    -0.271 OA
ATOM     13  N   UNL d   1      28.302 -16.595   0.542  0.00  0.00    -0.326 N 
ATOM     14  H   UNL d   1      28.442 -16.013   1.355  0.00  0.00     0.169 HD
BRANCH  13  15
ATOM     15  C   UNL d   1      26.962 -16.894   0.142  0.00  0.00     0.037 A 
ATOM     16  C   UNL d   1      26.268 -18.006   0.605  0.00  0.00     0.029 A 
ATOM     17  C   UNL d   1      24.982 -18.280   0.106  0.00  0.00     0.005 A 
ATOM     18  C   UNL d   1      24.372 -17.427  -0.826  0.00  0.00     0.037 A 
ATOM     19  C   UNL d   1      25.051 -16.296  -1.272  0.00  0.00     0.078 A 
ATOM     20  C   UNL d   1      26.320 -16.037  -0.758  0.00  0.00     0.066 A 
BRANCH  19  21
ATOM     21  O   UNL d   1      24.419 -15.483  -2.191  0.00  0.00    -0.311 OA
BRANCH  21  22
ATOM     22  C   UNL d   1      25.183 -14.838  -3.145  0.00  0.00     0.076 A 
ATOM     23  C   UNL d   1      25.187 -13.444  -3.133  0.00  0.00     0.037 A 
ATOM     24  C   UNL d   1      25.906 -12.742  -4.104  0.00  0.00     0.003 A 
ATOM     25  C   UNL d   1      26.689 -13.430  -5.033  0.00  0.00     0.000 A 
ATOM     26  C   UNL d   1      26.698 -14.823  -5.040  0.00  0.00     0.003 A 
ATOM     27  C   UNL d   1      25.908 -15.525  -4.129  0.00  0.00     0.037 A 
ENDBRANCH  21  22
ENDBRANCH  19  21
ENDBRANCH  13  15
ENDBRANCH  10  11
ENDBRANCH   6  10
BRANCH   2  28
ATOM     28  C   UNL d   1      29.918 -13.809   4.008  0.00  0.00    -0.020 A 
ATOM     29  C   UNL d   1      29.461 -14.912   4.746  0.00  0.00     0.010 A 
ATOM     30  C   UNL d   1      28.541 -14.746   5.781  0.00  0.00     0.002 A 
ATOM     31  C   UNL d   1      28.126 -13.469   6.160  0.00  0.00     0.017 A 
ATOM     32  C   UNL d   1      28.597 -12.346   5.477  0.00  0.00     0.032 A 
ATOM     33  C   UNL d   1      29.491 -12.528   4.414  0.00  0.00     0.027 A 
BRANCH  32  34
ATOM     34  C   UNL d   1      28.155 -10.954   5.783  0.00  0.00     0.249 C 
ATOM     35  N   UNL d   1      27.333 -10.326   4.894  0.00  0.00    -0.366 N 
ATOM     36  H   UNL d   1      27.001 -10.727   4.034  0.00  0.00     0.159 HD
ATOM     37  H   UNL d   1      27.087  -9.368   5.104  0.00  0.00     0.159 HD
ATOM     38  O   UNL d   1      28.530 -10.353   6.787  0.00  0.00    -0.268 OA
ENDBRANCH  32  34
ENDBRANCH   2  28
TORSDOF 7
ENDMDL
MODEL 9
REMARK VINA RESULT:    -8.386      2.307     10.069
REMARK INTER + INTRA:         -12.697
REMARK INTER:                 -10.474
REMARK INTRA:                  -2.222
REMARK CONF_INDEPENDENT:        2.088
REMARK UNBOUND:                -2.222
REMARK  7 active torsions:
REMARK  status: ('A' for Active; 'I' for Inactive)
REMARK    1  A    between atoms: C_2  and  C_3 
REMARK    2  A    between atoms: C_7  and  C_8 
REMARK       I    between atoms: C_8  and  N_9 
REMARK    3  A    between atoms: N_15  and  C_16 
REMARK    4  A    between atoms: C_16  and  C_17 
REMARK       I    between atoms: C_17  and  N_19 
REMARK    5  A    between atoms: N_19  and  C_20 
REMARK    6  A    between atoms: C_24  and  O_25 
REMARK    7  A    between atoms: O_25  and  C_26 
ROOT
ATOM      1  C   UNL d   1      26.280 -13.763  -0.619  0.00  0.00     0.054 C 
ATOM      2  C   UNL d   1      26.513 -14.981  -1.524  0.00  0.00     0.140 C 
ATOM      3  N   UNL d   1      27.897 -15.114  -1.900  0.00  0.00    -0.321 N 
ATOM      4  C   UNL d   1      28.147 -14.429  -3.077  0.00  0.00     0.326 C 
ATOM      5  O   UNL d   1      29.236 -13.967  -3.379  0.00  0.00    -0.247 OA
ATOM      6  N   UNL d   1      26.974 -14.355  -3.775  0.00  0.00    -0.259 N 
ATOM      7  C   UNL d   1      25.959 -14.558  -2.879  0.00  0.00     0.261 C 
ATOM      8  O   UNL d   1      24.755 -14.314  -2.999  0.00  0.00    -0.270 OA
ATOM      9  H   UNL d   1      28.636 -15.481  -1.315  0.00  0.00     0.165 HD
ENDROOT
BRANCH   6  10
ATOM     10  C   UNL d   1      26.867 -13.958  -5.203  0.00  0.00     0.240 C 
BRANCH  10  11
ATOM     11  C   UNL d   1      28.104 -14.289  -6.071  0.00  0.00     0.240 C 
ATOM     12  O   UNL d   1      28.156 -15.322  -6.738  0.00  0.00    -0.271 OA
ATOM     13  N   UNL d   1      29.233 -13.479  -6.031  0.00  0.00    -0.326 N 
ATOM     14  H   UNL d   1      29.445 -12.932  -5.208  0.00  0.00     0.169 HD
BRANCH  13  15
ATOM     15  C   UNL d   1      30.290 -13.760  -6.952  0.00  0.00     0.037 A 
ATOM     16  C   UNL d   1      30.660 -12.882  -7.963  0.00  0.00     0.029 A 
ATOM     17  C   UNL d   1      31.657 -13.260  -8.882  0.00  0.00     0.005 A 
ATOM     18  C   UNL d   1      32.309 -14.497  -8.770  0.00  0.00     0.037 A 
ATOM     19  C   UNL d   1      31.963 -15.368  -7.741  0.00  0.00     0.078 A 
ATOM     20  C   UNL d   1      30.981 -14.971  -6.836  0.00  0.00     0.066 A 
BRANCH  19  21
ATOM     21  O   UNL d   1      32.626 -16.577  -7.667  0.00  0.00    -0.311 OA
BRANCH  21  22
ATOM     22  C   UNL d   1      31.890 -17.727  -7.455  0.00  0.00     0.076 A 
ATOM     23  C   UNL d   1      31.629 -18.538  -8.559  0.00  0.00     0.037 A 
ATOM     24  C   UNL d   1      30.850 -19.688  -8.409  0.00  0.00     0.003 A 
ATOM     25  C   UNL d   1      30.405 -20.075  -7.143  0.00  0.00     0.000 A 
ATOM     26  C   UNL d   1      30.674 -19.274  -6.035  0.00  0.00     0.003 A 
ATOM     27  C   UNL d   1      31.374 -18.077  -6.200  0.00  0.00     0.037 A 
ENDBRANCH  21  22
ENDBRANCH  19  21
ENDBRANCH  13  15
ENDBRANCH  10  11
ENDBRANCH   6  10
BRANCH   2  28
ATOM     28  C   UNL d   1      25.909 -16.235  -0.912  0.00  0.00    -0.020 A 
ATOM     29  C   UNL d   1      26.735 -17.175  -0.277  0.00  0.00     0.010 A 
ATOM     30  C   UNL d   1      26.203 -18.351   0.248  0.00  0.00     0.002 A 
ATOM     31  C   UNL d   1      24.826 -18.575   0.230  0.00  0.00     0.017 A 
ATOM     32  C   UNL d   1      23.970 -17.639  -0.352  0.00  0.00     0.032 A 
ATOM     33  C   UNL d   1      24.520 -16.478  -0.911  0.00  0.00     0.027 A 
BRANCH  32  34
ATOM     34  C   UNL d   1      22.495 -17.833  -0.463  0.00  0.00     0.249 C 
ATOM     35  N   UNL d   1      21.972 -19.040  -0.103  0.00  0.00    -0.366 N 
ATOM     36  H   UNL d   1      22.508 -19.824   0.230  0.00  0.00     0.159 HD
ATOM     37  H   UNL d   1      20.977 -19.160  -0.232  0.00  0.00     0.159 HD
ATOM     38  O   UNL d   1      21.749 -16.957  -0.895  0.00  0.00    -0.268 OA
ENDBRANCH  32  34
ENDBRANCH   2  28
TORSDOF 7
ENDMDL
