MODEL 1
REMARK VINA RESULT:    -8.930      0.000      0.000
REMARK INTER + INTRA:         -13.617
REMARK INTER:                 -12.211
REMARK INTRA:                  -1.406
REMARK CONF_INDEPENDENT:        3.281
REMARK UNBOUND:                -1.406
REMARK  11 active torsions:
REMARK  status: ('A' for Active; 'I' for Inactive)
REMARK    1  A    between atoms: O_2  and  C_3 
REMARK    2  A    between atoms: C_6  and  C_7 
REMARK    3  A    between atoms: C_7  and  C_8 
REMARK    4  A    between atoms: C_8  and  N_9 
REMARK       I    between atoms: N_9  and  C_10 
REMARK       I    between atoms: C_10  and  N_12 
REMARK    5  A    between atoms: N_12  and  C_13 
REMARK    6  A    between atoms: C_14  and  C_13 
REMARK    7  A    between atoms: C_14  and  C_16 
REMARK    8  A    between atoms: C_14  and  O_15 
REMARK    9  A    between atoms: C_16  and  O_17 
REMARK   10  A    between atoms: O_17  and  C_18 
REMARK   11  A    between atoms: C_21  and  N_22 
ROOT
ATOM      1  N   UNL d   1      27.992 -16.680   0.230  0.00  0.00    -0.343 N 
ATOM      2  C   UNL d   1      28.204 -15.347   0.484  0.00  0.00     0.316 C 
ATOM      3  O   UNL d   1      27.466 -14.446   0.089  0.00  0.00    -0.247 OA
ATOM      4  N   UNL d   1      29.321 -15.135   1.221  0.00  0.00    -0.341 N 
ATOM      5  H   UNL d   1      28.672 -17.369   0.512  0.00  0.00     0.164 HD
ATOM      6  H   UNL d   1      29.868 -15.931   1.513  0.00  0.00     0.164 HD
ENDROOT
BRANCH   4   7
ATOM      7  C   UNL d   1      29.857 -13.816   1.524  0.00  0.00     0.158 C 
BRANCH   7   8
ATOM      8  C   UNL d   1      30.315 -13.852   2.985  0.00  0.00     0.160 C 
BRANCH   8   9
ATOM      9  C   UNL d   1      29.201 -14.035   4.008  0.00  0.00     0.209 C 
BRANCH   9  10
ATOM     10  O   UNL d   1      27.946 -13.824   3.367  0.00  0.00    -0.349 OA
BRANCH  10  11
ATOM     11  C   UNL d   1      27.588 -12.527   3.145  0.00  0.00     0.069 A 
ATOM     12  C   UNL d   1      27.915 -11.631   4.167  0.00  0.00     0.039 A 
ATOM     13  C   UNL d   1      27.480 -10.305   4.111  0.00  0.00     0.039 A 
ATOM     14  C   UNL d   1      26.774  -9.863   2.986  0.00  0.00     0.103 A 
ATOM     15  C   UNL d   1      26.442 -10.756   1.960  0.00  0.00     0.039 A 
ATOM     16  C   UNL d   1      26.845 -12.090   2.049  0.00  0.00     0.039 A 
BRANCH  14  17
ATOM     17  N   UNL d   1      26.426  -8.444   2.853  0.00  0.00    -0.116 N 
ATOM     18  O   UNL d   1      25.536  -8.141   2.046  0.00  0.00    -0.532 OA
ATOM     19  O   UNL d   1      27.024  -7.635   3.577  0.00  0.00    -0.532 OA
ENDBRANCH  14  17
ENDBRANCH  10  11
ENDBRANCH   9  10
ENDBRANCH   8   9
BRANCH   8  20
ATOM     20  O   UNL d   1      31.321 -14.859   3.150  0.00  0.00    -0.392 OA
ATOM     21  H   UNL d   1      30.871 -15.721   3.230  0.00  0.00     0.210 HD
ENDBRANCH   8  20
ENDBRANCH   7   8
ENDBRANCH   4   7
BRANCH   1  22
ATOM     22  C   UNL d   1      26.817 -17.067  -0.507  0.00  0.00     0.129 C 
BRANCH  22  23
ATOM     23  C   UNL d   1      25.971 -18.184   0.115  0.00  0.00     0.058 C 
BRANCH  23  24
ATOM     24  C   UNL d   1      24.488 -18.044  -0.178  0.00  0.00    -0.057 A 
ATOM     25  C   UNL d   1      23.698 -19.184  -0.369  0.00  0.00     0.010 A 
ATOM     26  C   UNL d   1      22.358 -19.061  -0.765  0.00  0.00     0.037 A 
ATOM     27  C   UNL d   1      21.766 -17.803  -0.900  0.00  0.00     0.068 A 
ATOM     28  C   UNL d   1      22.531 -16.669  -0.666  0.00  0.00     0.037 A 
ATOM     29  C   UNL d   1      23.873 -16.790  -0.311  0.00  0.00     0.010 A 
BRANCH  27  30
ATOM     30  O   UNL d   1      20.424 -17.786  -1.164  0.00  0.00    -0.356 OA
ATOM     31  C   UNL d   1      19.701 -18.951  -0.780  0.00  0.00     0.210 C 
ENDBRANCH  27  30
ENDBRANCH  23  24
ENDBRANCH  22  23
ENDBRANCH   1  22
TORSDOF 11
ENDMDL
MODEL 2
REMARK VINA RESULT:    -8.664      0.858      1.401
REMARK INTER + INTRA:         -13.616
REMARK INTER:                 -11.945
REMARK INTRA:                  -1.671
REMARK CONF_INDEPENDENT:        3.281
REMARK UNBOUND:                -1.671
REMARK  11 active torsions:
REMARK  status: ('A' for Active; 'I' for Inactive)
REMARK    1  A    between atoms: O_2  and  C_3 
REMARK    2  A    between atoms: C_6  and  C_7 
REMARK    3  A    between atoms: C_7  and  C_8 
REMARK    4  A    between atoms: C_8  and  N_9 
REMARK       I    between atoms: N_9  and  C_10 
REMARK       I    between atoms: C_10  and  N_12 
REMARK    5  A    between atoms: N_12  and  C_13 
REMARK    6  A    between atoms: C_14  and  C_13 
REMARK    7  A    between atoms: C_14  and  C_16 
REMARK    8  A    between atoms: C_14  and  O_15 
REMARK    9  A    between atoms: C_16  and  O_17 
REMARK   10  A    between atoms: O_17  and  C_18 
REMARK   11  A    between atoms: C_21  and  N_22 
ROOT
ATOM      1  N   UNL d   1      28.246 -16.237   0.580  0.00  0.00    -0.343 N 
ATOM      2  C   UNL d   1      28.367 -14.930   0.982  0.00  0.00     0.316 C 
ATOM      3  O   UNL d   1      27.626 -14.024   0.607  0.00  0.00    -0.247 OA
ATOM      4  N   UNL d   1      29.399 -14.751   1.842  0.00  0.00    -0.341 N 
ATOM      5  H   UNL d   1      28.928 -16.924   0.859  0.00  0.00     0.164 HD
ATOM      6  H   UNL d   1      29.955 -15.550   2.108  0.00  0.00     0.164 HD
ENDROOT
BRANCH   4   7
ATOM      7  C   UNL d   1      29.839 -13.449   2.323  0.00  0.00     0.158 C 
BRANCH   7   8
ATOM      8  C   UNL d   1      30.251 -13.637   3.787  0.00  0.00     0.160 C 
BRANCH   8   9
ATOM      9  C   UNL d   1      29.592 -12.679   4.772  0.00  0.00     0.209 C 
BRANCH   9  10
ATOM     10  O   UNL d   1      28.188 -12.666   4.535  0.00  0.00    -0.349 OA
BRANCH  10  11
ATOM     11  C   UNL d   1      27.655 -11.486   4.105  0.00  0.00     0.069 A 
ATOM     12  C   UNL d   1      26.988 -11.542   2.878  0.00  0.00     0.039 A 
ATOM     13  C   UNL d   1      26.519 -10.373   2.275  0.00  0.00     0.039 A 
ATOM     14  C   UNL d   1      26.661  -9.152   2.945  0.00  0.00     0.103 A 
ATOM     15  C   UNL d   1      27.330  -9.090   4.174  0.00  0.00     0.039 A 
ATOM     16  C   UNL d   1      27.832 -10.261   4.746  0.00  0.00     0.039 A 
BRANCH  14  17
ATOM     17  N   UNL d   1      26.058  -7.937   2.386  0.00  0.00    -0.116 N 
ATOM     18  O   UNL d   1      26.282  -6.864   2.962  0.00  0.00    -0.532 OA
ATOM     19  O   UNL d   1      25.383  -8.054   1.353  0.00  0.00    -0.532 OA
ENDBRANCH  14  17
ENDBRANCH  10  11
ENDBRANCH   9  10
ENDBRANCH   8   9
BRANCH   8  20
ATOM     20  O   UNL d   1      30.028 -14.997   4.180  0.00  0.00    -0.392 OA
ATOM     21  H   UNL d   1      30.392 -15.573   3.482  0.00  0.00     0.210 HD
ENDBRANCH   8  20
ENDBRANCH   7   8
ENDBRANCH   4   7
BRANCH   1  22
ATOM     22  C   UNL d   1      27.165 -16.594  -0.302  0.00  0.00     0.129 C 
BRANCH  22  23
ATOM     23  C   UNL d   1      26.426 -17.895   0.031  0.00  0.00     0.058 C 
BRANCH  23  24
ATOM     24  C   UNL d   1      24.926 -17.800  -0.182  0.00  0.00    -0.057 A 
ATOM     25  C   UNL d   1      24.134 -18.955  -0.139  0.00  0.00     0.010 A 
ATOM     26  C   UNL d   1      22.771 -18.895  -0.459  0.00  0.00     0.037 A 
ATOM     27  C   UNL d   1      22.160 -17.673  -0.752  0.00  0.00     0.068 A 
ATOM     28  C   UNL d   1      22.928 -16.518  -0.751  0.00  0.00     0.037 A 
ATOM     29  C   UNL d   1      24.291 -16.582  -0.470  0.00  0.00     0.010 A 
BRANCH  27  30
ATOM     30  O   UNL d   1      20.804 -17.696  -0.926  0.00  0.00    -0.356 OA
ATOM     31  C   UNL d   1      20.211 -18.988  -1.022  0.00  0.00     0.210 C 
ENDBRANCH  27  30
ENDBRANCH  23  24
ENDBRANCH  22  23
ENDBRANCH   1  22
TORSDOF 11
ENDMDL
MODEL 3
REMARK VINA RESULT:    -8.181      0.940      1.204
REMARK INTER + INTRA:         -13.344
REMARK INTER:                 -11.462
REMARK INTRA:                  -1.882
REMARK CONF_INDEPENDENT:        3.281
REMARK UNBOUND:                -1.882
REMARK  11 active torsions:
REMARK  status: ('A' for Active; 'I' for Inactive)
REMARK    1  A    between atoms: O_2  and  C_3 
REMARK    2  A    between atoms: C_6  and  C_7 
REMARK    3  A    between atoms: C_7  and  C_8 
REMARK    4  A    between atoms: C_8  and  N_9 
REMARK       I    between atoms: N_9  and  C_10 
REMARK       I    between atoms: C_10  and  N_12 
REMARK    5  A    between atoms: N_12  and  C_13 
REMARK    6  A    between atoms: C_14  and  C_13 
REMARK    7  A    between atoms: C_14  and  C_16 
REMARK    8  A    between atoms: C_14  and  O_15 
REMARK    9  A    between atoms: C_16  and  O_17 
REMARK   10  A    between atoms: O_17  and  C_18 
REMARK   11  A    between atoms: C_21  and  N_22 
ROOT
ATOM      1  N   UNL d   1      28.727 -16.122   0.565  0.00  0.00    -0.343 N 
ATOM      2  C   UNL d   1      28.887 -14.828   0.995  0.00  0.00     0.316 C 
ATOM      3  O   UNL d   1      28.324 -13.860   0.487  0.00  0.00    -0.247 OA
ATOM      4  N   UNL d   1      29.737 -14.736   2.046  0.00  0.00    -0.341 N 
ATOM      5  H   UNL d   1      29.274 -16.867   0.970  0.00  0.00     0.164 HD
ATOM      6  H   UNL d   1      30.152 -15.581   2.411  0.00  0.00     0.164 HD
ENDROOT
BRANCH   4   7
ATOM      7  C   UNL d   1      30.191 -13.476   2.617  0.00  0.00     0.158 C 
BRANCH   7   8
ATOM      8  C   UNL d   1      30.524 -13.754   4.087  0.00  0.00     0.160 C 
BRANCH   8   9
ATOM      9  C   UNL d   1      29.532 -13.185   5.093  0.00  0.00     0.209 C 
BRANCH   9  10
ATOM     10  O   UNL d   1      28.223 -13.239   4.533  0.00  0.00    -0.349 OA
BRANCH  10  11
ATOM     11  C   UNL d   1      27.746 -12.083   3.990  0.00  0.00     0.069 A 
ATOM     12  C   UNL d   1      27.916 -10.938   4.775  0.00  0.00     0.039 A 
ATOM     13  C   UNL d   1      27.350  -9.723   4.383  0.00  0.00     0.039 A 
ATOM     14  C   UNL d   1      26.670  -9.645   3.162  0.00  0.00     0.103 A 
ATOM     15  C   UNL d   1      26.496 -10.789   2.373  0.00  0.00     0.039 A 
ATOM     16  C   UNL d   1      27.029 -12.007   2.796  0.00  0.00     0.039 A 
BRANCH  14  17
ATOM     17  N   UNL d   1      26.186  -8.349   2.677  0.00  0.00    -0.116 N 
ATOM     18  O   UNL d   1      26.660  -7.326   3.190  0.00  0.00    -0.532 OA
ATOM     19  O   UNL d   1      25.349  -8.353   1.762  0.00  0.00    -0.532 OA
ENDBRANCH  14  17
ENDBRANCH  10  11
ENDBRANCH   9  10
ENDBRANCH   8   9
BRANCH   8  20
ATOM     20  O   UNL d   1      30.692 -15.164   4.285  0.00  0.00    -0.392 OA
ATOM     21  H   UNL d   1      29.805 -15.565   4.341  0.00  0.00     0.210 HD
ENDBRANCH   8  20
ENDBRANCH   7   8
ENDBRANCH   4   7
BRANCH   1  22
ATOM     22  C   UNL d   1      27.817 -16.385  -0.519  0.00  0.00     0.129 C 
BRANCH  22  23
ATOM     23  C   UNL d   1      27.076 -17.726  -0.465  0.00  0.00     0.058 C 
BRANCH  23  24
ATOM     24  C   UNL d   1      25.568 -17.579  -0.558  0.00  0.00    -0.057 A 
ATOM     25  C   UNL d   1      24.730 -18.573  -0.037  0.00  0.00     0.010 A 
ATOM     26  C   UNL d   1      23.343 -18.507  -0.232  0.00  0.00     0.037 A 
ATOM     27  C   UNL d   1      22.764 -17.412  -0.880  0.00  0.00     0.068 A 
ATOM     28  C   UNL d   1      23.585 -16.401  -1.358  0.00  0.00     0.037 A 
ATOM     29  C   UNL d   1      24.966 -16.485  -1.198  0.00  0.00     0.010 A 
BRANCH  27  30
ATOM     30  O   UNL d   1      21.398 -17.374  -0.909  0.00  0.00    -0.356 OA
ATOM     31  C   UNL d   1      20.740 -18.637  -0.857  0.00  0.00     0.210 C 
ENDBRANCH  27  30
ENDBRANCH  23  24
ENDBRANCH  22  23
ENDBRANCH   1  22
TORSDOF 11
ENDMDL
MODEL 4
REMARK VINA RESULT:    -7.872      3.012      8.794
REMARK INTER + INTRA:         -13.178
REMARK INTER:                 -11.153
REMARK INTRA:                  -2.024
REMARK CONF_INDEPENDENT:        3.281
REMARK UNBOUND:                -2.024
REMARK  11 active torsions:
REMARK  status: ('A' for Active; 'I' for Inactive)
REMARK    1  A    between atoms: O_2  and  C_3 
REMARK    2  A    between atoms: C_6  and  C_7 
REMARK    3  A    between atoms: C_7  and  C_8 
REMARK    4  A    between atoms: C_8  and  N_9 
REMARK       I    between atoms: N_9  and  C_10 
REMARK       I    between atoms: C_10  and  N_12 
REMARK    5  A    between atoms: N_12  and  C_13 
REMARK    6  A    between atoms: C_14  and  C_13 
REMARK    7  A    between atoms: C_14  and  C_16 
REMARK    8  A    between atoms: C_14  and  O_15 
REMARK    9  A    between atoms: C_16  and  O_17 
REMARK   10  A    between atoms: O_17  and  C_18 
REMARK   11  A    between atoms: C_21  and  N_22 
ROOT
ATOM      1  N   UNL d   1      29.351 -14.824   1.810  0.00  0.00    -0.343 N 
ATOM      2  C   UNL d   1      29.156 -15.149   0.490  0.00  0.00     0.316 C 
ATOM      3  O   UNL d   1      28.777 -14.353  -0.366  0.00  0.00    -0.247 OA
ATOM      4  N   UNL d   1      29.431 -16.452   0.236  0.00  0.00    -0.341 N 
ATOM      5  H   UNL d   1      29.589 -15.536   2.483  0.00  0.00     0.164 HD
ATOM      6  H   UNL d   1      29.747 -17.039   0.993  0.00  0.00     0.164 HD
ENDROOT
BRANCH   4   7
ATOM      7  C   UNL d   1      29.186 -17.099  -1.045  0.00  0.00     0.158 C 
BRANCH   7   8
ATOM      8  C   UNL d   1      27.667 -17.117  -1.245  0.00  0.00     0.160 C 
BRANCH   8   9
ATOM      9  C   UNL d   1      26.859 -17.549  -0.028  0.00  0.00     0.209 C 
BRANCH   9  10
ATOM     10  O   UNL d   1      25.721 -16.701   0.097  0.00  0.00    -0.349 OA
BRANCH  10  11
ATOM     11  C   UNL d   1      24.518 -17.245  -0.244  0.00  0.00     0.069 A 
ATOM     12  C   UNL d   1      23.494 -16.326  -0.493  0.00  0.00     0.039 A 
ATOM     13  C   UNL d   1      22.188 -16.768  -0.719  0.00  0.00     0.039 A 
ATOM     14  C   UNL d   1      21.928 -18.142  -0.766  0.00  0.00     0.103 A 
ATOM     15  C   UNL d   1      22.950 -19.067  -0.517  0.00  0.00     0.039 A 
ATOM     16  C   UNL d   1      24.242 -18.612  -0.249  0.00  0.00     0.039 A 
BRANCH  14  17
ATOM     17  N   UNL d   1      20.591 -18.621  -1.133  0.00  0.00    -0.116 N 
ATOM     18  O   UNL d   1      20.499 -19.751  -1.633  0.00  0.00    -0.532 OA
ATOM     19  O   UNL d   1      19.629 -17.876  -0.895  0.00  0.00    -0.532 OA
ENDBRANCH  14  17
ENDBRANCH  10  11
ENDBRANCH   9  10
ENDBRANCH   8   9
BRANCH   8  20
ATOM     20  O   UNL d   1      27.227 -15.835  -1.713  0.00  0.00    -0.392 OA
ATOM     21  H   UNL d   1      27.280 -15.211  -0.966  0.00  0.00     0.210 HD
ENDBRANCH   8  20
ENDBRANCH   7   8
ENDBRANCH   4   7
BRANCH   1  22
ATOM     22  C   UNL d   1      29.142 -13.461   2.226  0.00  0.00     0.129 C 
BRANCH  22  23
ATOM     23  C   UNL d   1      27.879 -13.197   3.053  0.00  0.00     0.058 C 
BRANCH  23  24
ATOM     24  C   UNL d   1      28.117 -13.284   4.550  0.00  0.00    -0.057 A 
ATOM     25  C   UNL d   1      27.782 -12.207   5.379  0.00  0.00     0.010 A 
ATOM     26  C   UNL d   1      28.115 -12.228   6.741  0.00  0.00     0.037 A 
ATOM     27  C   UNL d   1      28.715 -13.354   7.312  0.00  0.00     0.068 A 
ATOM     28  C   UNL d   1      29.007 -14.444   6.505  0.00  0.00     0.037 A 
ATOM     29  C   UNL d   1      28.711 -14.408   5.144  0.00  0.00     0.010 A 
BRANCH  27  30
ATOM     30  O   UNL d   1      28.885 -13.332   8.668  0.00  0.00    -0.356 OA
ATOM     31  C   UNL d   1      29.065 -14.600   9.293  0.00  0.00     0.210 C 
ENDBRANCH  27  30
ENDBRANCH  23  24
ENDBRANCH  22  23
ENDBRANCH   1  22
TORSDOF 11
ENDMDL
MODEL 5
REMARK VINA RESULT:    -7.655      1.754      2.808
REMARK INTER + INTRA:         -13.113
REMARK INTER:                 -10.937
REMARK INTRA:                  -2.176
REMARK CONF_INDEPENDENT:        3.281
REMARK UNBOUND:                -2.176
REMARK  11 active torsions:
REMARK  status: ('A' for Active; 'I' for Inactive)
REMARK    1  A    between atoms: O_2  and  C_3 
REMARK    2  A    between atoms: C_6  and  C_7 
REMARK    3  A    between atoms: C_7  and  C_8 
REMARK    4  A    between atoms: C_8  and  N_9 
REMARK       I    between atoms: N_9  and  C_10 
REMARK       I    between atoms: C_10  and  N_12 
REMARK    5  A    between atoms: N_12  and  C_13 
REMARK    6  A    between atoms: C_14  and  C_13 
REMARK    7  A    between atoms: C_14  and  C_16 
REMARK    8  A    between atoms: C_14  and  O_15 
REMARK    9  A    between atoms: C_16  and  O_17 
REMARK   10  A    between atoms: O_17  and  C_18 
REMARK   11  A    between atoms: C_21  and  N_22 
ROOT
ATOM      1  N   UNL d   1      28.227 -14.839   2.320  0.00  0.00    -0.343 N 
ATOM      2  C   UNL d   1      27.853 -14.612   3.621  0.00  0.00     0.316 C 
ATOM      3  O   UNL d   1      26.797 -14.075   3.949  0.00  0.00    -0.247 OA
ATOM      4  N   UNL d   1      28.780 -15.049   4.507  0.00  0.00    -0.341 N 
ATOM      5  H   UNL d   1      29.139 -15.213   2.108  0.00  0.00     0.164 HD
ATOM      6  H   UNL d   1      29.619 -15.487   4.156  0.00  0.00     0.164 HD
ENDROOT
BRANCH   4   7
ATOM      7  C   UNL d   1      28.705 -14.819   5.943  0.00  0.00     0.158 C 
BRANCH   7   8
ATOM      8  C   UNL d   1      28.716 -13.300   6.146  0.00  0.00     0.160 C 
BRANCH   8   9
ATOM      9  C   UNL d   1      29.741 -12.543   5.311  0.00  0.00     0.209 C 
BRANCH   9  10
ATOM     10  O   UNL d   1      29.258 -12.432   3.976  0.00  0.00    -0.349 OA
BRANCH  10  11
ATOM     11  C   UNL d   1      28.457 -11.361   3.707  0.00  0.00     0.069 A 
ATOM     12  C   UNL d   1      27.872 -11.354   2.437  0.00  0.00     0.039 A 
ATOM     13  C   UNL d   1      27.142 -10.246   2.002  0.00  0.00     0.039 A 
ATOM     14  C   UNL d   1      26.942  -9.171   2.876  0.00  0.00     0.103 A 
ATOM     15  C   UNL d   1      27.526  -9.172   4.148  0.00  0.00     0.039 A 
ATOM     16  C   UNL d   1      28.290 -10.267   4.556  0.00  0.00     0.039 A 
BRANCH  14  17
ATOM     17  N   UNL d   1      26.069  -8.060   2.480  0.00  0.00    -0.116 N 
ATOM     18  O   UNL d   1      25.156  -8.301   1.677  0.00  0.00    -0.532 OA
ATOM     19  O   UNL d   1      26.279  -6.952   2.994  0.00  0.00    -0.532 OA
ENDBRANCH  14  17
ENDBRANCH  10  11
ENDBRANCH   9  10
ENDBRANCH   8   9
BRANCH   8  20
ATOM     20  O   UNL d   1      27.400 -12.775   5.928  0.00  0.00    -0.392 OA
ATOM     21  H   UNL d   1      27.308 -12.589   4.975  0.00  0.00     0.210 HD
ENDBRANCH   8  20
ENDBRANCH   7   8
ENDBRANCH   4   7
BRANCH   1  22
ATOM     22  C   UNL d   1      27.322 -14.468   1.264  0.00  0.00     0.129 C 
BRANCH  22  23
ATOM     23  C   UNL d   1      27.404 -15.307  -0.017  0.00  0.00     0.058 C 
BRANCH  23  24
ATOM     24  C   UNL d   1      26.250 -16.281  -0.169  0.00  0.00    -0.057 A 
ATOM     25  C   UNL d   1      26.339 -17.568   0.375  0.00  0.00     0.010 A 
ATOM     26  C   UNL d   1      25.333 -18.514   0.131  0.00  0.00     0.037 A 
ATOM     27  C   UNL d   1      24.189 -18.169  -0.592  0.00  0.00     0.068 A 
ATOM     28  C   UNL d   1      24.072 -16.880  -1.094  0.00  0.00     0.037 A 
ATOM     29  C   UNL d   1      25.089 -15.952  -0.885  0.00  0.00     0.010 A 
BRANCH  27  30
ATOM     30  O   UNL d   1      23.207 -19.118  -0.669  0.00  0.00    -0.356 OA
ATOM     31  C   UNL d   1      21.875 -18.626  -0.784  0.00  0.00     0.210 C 
ENDBRANCH  27  30
ENDBRANCH  23  24
ENDBRANCH  22  23
ENDBRANCH   1  22
TORSDOF 11
ENDMDL
MODEL 6
REMARK VINA RESULT:    -7.382      2.736      4.825
REMARK INTER + INTRA:         -12.894
REMARK INTER:                 -10.663
REMARK INTRA:                  -2.231
REMARK CONF_INDEPENDENT:        3.281
REMARK UNBOUND:                -2.231
REMARK  11 active torsions:
REMARK  status: ('A' for Active; 'I' for Inactive)
REMARK    1  A    between atoms: O_2  and  C_3 
REMARK    2  A    between atoms: C_6  and  C_7 
REMARK    3  A    between atoms: C_7  and  C_8 
REMARK    4  A    between atoms: C_8  and  N_9 
REMARK       I    between atoms: N_9  and  C_10 
REMARK       I    between atoms: C_10  and  N_12 
REMARK    5  A    between atoms: N_12  and  C_13 
REMARK    6  A    between atoms: C_14  and  C_13 
REMARK    7  A    between atoms: C_14  and  C_16 
REMARK    8  A    between atoms: C_14  and  O_15 
REMARK    9  A    between atoms: C_16  and  O_17 
REMARK   10  A    between atoms: O_17  and  C_18 
REMARK   11  A    between atoms: C_21  and  N_22 
ROOT
ATOM      1  N   UNL d   1      27.884 -16.168   0.627  0.00  0.00    -0.343 N 
ATOM      2  C   UNL d   1      27.734 -14.890   1.107  0.00  0.00     0.316 C 
ATOM      3  O   UNL d   1      26.839 -14.125   0.756  0.00  0.00    -0.247 OA
ATOM      4  N   UNL d   1      28.687 -14.566   2.014  0.00  0.00    -0.341 N 
ATOM      5  H   UNL d   1      28.682 -16.724   0.893  0.00  0.00     0.164 HD
ATOM      6  H   UNL d   1      29.383 -15.256   2.255  0.00  0.00     0.164 HD
ENDROOT
BRANCH   4   7
ATOM      7  C   UNL d   1      28.848 -13.236   2.584  0.00  0.00     0.158 C 
BRANCH   7   8
ATOM      8  C   UNL d   1      29.761 -12.457   1.632  0.00  0.00     0.160 C 
BRANCH   8   9
ATOM      9  C   UNL d   1      29.787 -12.970   0.197  0.00  0.00     0.209 C 
BRANCH   9  10
ATOM     10  O   UNL d   1      28.854 -12.222  -0.578  0.00  0.00    -0.349 OA
BRANCH  10  11
ATOM     11  C   UNL d   1      28.249 -12.885  -1.605  0.00  0.00     0.069 A 
ATOM     12  C   UNL d   1      26.898 -12.582  -1.801  0.00  0.00     0.039 A 
ATOM     13  C   UNL d   1      26.143 -13.295  -2.735  0.00  0.00     0.039 A 
ATOM     14  C   UNL d   1      26.769 -14.267  -3.524  0.00  0.00     0.103 A 
ATOM     15  C   UNL d   1      28.122 -14.574  -3.332  0.00  0.00     0.039 A 
ATOM     16  C   UNL d   1      28.855 -13.884  -2.365  0.00  0.00     0.039 A 
BRANCH  14  17
ATOM     17  N   UNL d   1      26.021 -14.929  -4.598  0.00  0.00    -0.116 N 
ATOM     18  O   UNL d   1      26.663 -15.580  -5.433  0.00  0.00    -0.532 OA
ATOM     19  O   UNL d   1      24.786 -14.821  -4.589  0.00  0.00    -0.532 OA
ENDBRANCH  14  17
ENDBRANCH  10  11
ENDBRANCH   9  10
ENDBRANCH   8   9
BRANCH   8  20
ATOM     20  O   UNL d   1      29.417 -11.066   1.664  0.00  0.00    -0.392 OA
ATOM     21  H   UNL d   1      29.559 -10.702   0.771  0.00  0.00     0.210 HD
ENDBRANCH   8  20
ENDBRANCH   7   8
ENDBRANCH   4   7
BRANCH   1  22
ATOM     22  C   UNL d   1      26.919 -16.673  -0.314  0.00  0.00     0.129 C 
BRANCH  22  23
ATOM     23  C   UNL d   1      26.165 -17.939   0.110  0.00  0.00     0.058 C 
BRANCH  23  24
ATOM     24  C   UNL d   1      24.675 -17.868  -0.170  0.00  0.00    -0.057 A 
ATOM     25  C   UNL d   1      23.897 -19.032  -0.142  0.00  0.00     0.010 A 
ATOM     26  C   UNL d   1      22.548 -18.995  -0.523  0.00  0.00     0.037 A 
ATOM     27  C   UNL d   1      21.935 -17.787  -0.862  0.00  0.00     0.068 A 
ATOM     28  C   UNL d   1      22.688 -16.621  -0.847  0.00  0.00     0.037 A 
ATOM     29  C   UNL d   1      24.038 -16.664  -0.506  0.00  0.00     0.010 A 
BRANCH  27  30
ATOM     30  O   UNL d   1      20.588 -17.831  -1.095  0.00  0.00    -0.356 OA
ATOM     31  C   UNL d   1      19.919 -19.006  -0.649  0.00  0.00     0.210 C 
ENDBRANCH  27  30
ENDBRANCH  23  24
ENDBRANCH  22  23
ENDBRANCH   1  22
TORSDOF 11
ENDMDL
MODEL 7
REMARK VINA RESULT:    -7.381      3.433      4.553
REMARK INTER + INTRA:         -13.229
REMARK INTER:                 -10.662
REMARK INTRA:                  -2.566
REMARK CONF_INDEPENDENT:        3.281
REMARK UNBOUND:                -2.566
REMARK  11 active torsions:
REMARK  status: ('A' for Active; 'I' for Inactive)
REMARK    1  A    between atoms: O_2  and  C_3 
REMARK    2  A    between atoms: C_6  and  C_7 
REMARK    3  A    between atoms: C_7  and  C_8 
REMARK    4  A    between atoms: C_8  and  N_9 
REMARK       I    between atoms: N_9  and  C_10 
REMARK       I    between atoms: C_10  and  N_12 
REMARK    5  A    between atoms: N_12  and  C_13 
REMARK    6  A    between atoms: C_14  and  C_13 
REMARK    7  A    between atoms: C_14  and  C_16 
REMARK    8  A    between atoms: C_14  and  O_15 
REMARK    9  A    between atoms: C_16  and  O_17 
REMARK   10  A    between atoms: O_17  and  C_18 
REMARK   11  A    between atoms: C_21  and  N_22 
ROOT
ATOM      1  N   UNL d   1      26.785 -15.512  -1.519  0.00  0.00    -0.343 N 
ATOM      2  C   UNL d   1      25.944 -14.953  -2.448  0.00  0.00     0.316 C 
ATOM      3  O   UNL d   1      25.144 -15.594  -3.127  0.00  0.00    -0.247 OA
ATOM      4  N   UNL d   1      26.094 -13.609  -2.535  0.00  0.00    -0.341 N 
ATOM      5  H   UNL d   1      27.474 -14.948  -1.047  0.00  0.00     0.164 HD
ATOM      6  H   UNL d   1      26.768 -13.155  -1.936  0.00  0.00     0.164 HD
ENDROOT
BRANCH   4   7
ATOM      7  C   UNL d   1      25.427 -12.778  -3.528  0.00  0.00     0.158 C 
BRANCH   7   8
ATOM      8  C   UNL d   1      26.509 -11.899  -4.165  0.00  0.00     0.160 C 
BRANCH   8   9
ATOM      9  C   UNL d   1      26.221 -10.404  -4.146  0.00  0.00     0.209 C 
BRANCH   9  10
ATOM     10  O   UNL d   1      27.239  -9.746  -3.398  0.00  0.00    -0.349 OA
BRANCH  10  11
ATOM     11  C   UNL d   1      26.911  -9.367  -2.129  0.00  0.00     0.069 A 
ATOM     12  C   UNL d   1      26.084  -8.243  -2.034  0.00  0.00     0.039 A 
ATOM     13  C   UNL d   1      25.793  -7.684  -0.788  0.00  0.00     0.039 A 
ATOM     14  C   UNL d   1      26.279  -8.301   0.370  0.00  0.00     0.103 A 
ATOM     15  C   UNL d   1      27.108  -9.426   0.281  0.00  0.00     0.039 A 
ATOM     16  C   UNL d   1      27.428  -9.950  -0.973  0.00  0.00     0.039 A 
BRANCH  14  17
ATOM     17  N   UNL d   1      25.873  -7.803   1.689  0.00  0.00    -0.116 N 
ATOM     18  O   UNL d   1      25.157  -6.792   1.729  0.00  0.00    -0.532 OA
ATOM     19  O   UNL d   1      26.248  -8.439   2.685  0.00  0.00    -0.532 OA
ENDBRANCH  14  17
ENDBRANCH  10  11
ENDBRANCH   9  10
ENDBRANCH   8   9
BRANCH   8  20
ATOM     20  O   UNL d   1      27.776 -12.177  -3.554  0.00  0.00    -0.392 OA
ATOM     21  H   UNL d   1      28.005 -11.419  -2.986  0.00  0.00     0.210 HD
ENDBRANCH   8  20
ENDBRANCH   7   8
ENDBRANCH   4   7
BRANCH   1  22
ATOM     22  C   UNL d   1      26.710 -16.930  -1.281  0.00  0.00     0.129 C 
BRANCH  22  23
ATOM     23  C   UNL d   1      25.869 -17.367  -0.076  0.00  0.00     0.058 C 
BRANCH  23  24
ATOM     24  C   UNL d   1      24.414 -17.623  -0.426  0.00  0.00    -0.057 A 
ATOM     25  C   UNL d   1      23.554 -16.550  -0.690  0.00  0.00     0.010 A 
ATOM     26  C   UNL d   1      22.183 -16.771  -0.888  0.00  0.00     0.037 A 
ATOM     27  C   UNL d   1      21.663 -18.068  -0.902  0.00  0.00     0.068 A 
ATOM     28  C   UNL d   1      22.519 -19.139  -0.688  0.00  0.00     0.037 A 
ATOM     29  C   UNL d   1      23.874 -18.918  -0.453  0.00  0.00     0.010 A 
BRANCH  27  30
ATOM     30  O   UNL d   1      20.341 -18.190  -1.229  0.00  0.00    -0.356 OA
ATOM     31  C   UNL d   1      19.681 -19.347  -0.725  0.00  0.00     0.210 C 
ENDBRANCH  27  30
ENDBRANCH  23  24
ENDBRANCH  22  23
ENDBRANCH   1  22
TORSDOF 11
ENDMDL
MODEL 8
REMARK VINA RESULT:    -6.949      1.804      2.908
REMARK INTER + INTRA:         -12.551
REMARK INTER:                 -10.230
REMARK INTRA:                  -2.322
REMARK CONF_INDEPENDENT:        3.281
REMARK UNBOUND:                -2.322
REMARK  11 active torsions:
REMARK  status: ('A' for Active; 'I' for Inactive)
REMARK    1  A    between atoms: O_2  and  C_3 
REMARK    2  A    between atoms: C_6  and  C_7 
REMARK    3  A    between atoms: C_7  and  C_8 
REMARK    4  A    between atoms: C_8  and  N_9 
REMARK       I    between atoms: N_9  and  C_10 
REMARK       I    between atoms: C_10  and  N_12 
REMARK    5  A    between atoms: N_12  and  C_13 
REMARK    6  A    between atoms: C_14  and  C_13 
REMARK    7  A    between atoms: C_14  and  C_16 
REMARK    8  A    between atoms: C_14  and  O_15 
REMARK    9  A    between atoms: C_16  and  O_17 
REMARK   10  A    between atoms: O_17  and  C_18 
REMARK   11  A    between atoms: C_21  and  N_22 
ROOT
ATOM      1  N   UNL d   1      25.296 -17.171  -0.160  0.00  0.00    -0.343 N 
ATOM      2  C   UNL d   1      26.018 -16.254  -0.883  0.00  0.00     0.316 C 
ATOM      3  O   UNL d   1      25.514 -15.393  -1.602  0.00  0.00    -0.247 OA
ATOM      4  N   UNL d   1      27.354 -16.404  -0.714  0.00  0.00    -0.341 N 
ATOM      5  H   UNL d   1      25.764 -17.902   0.351  0.00  0.00     0.164 HD
ATOM      6  H   UNL d   1      27.688 -17.130  -0.099  0.00  0.00     0.164 HD
ENDROOT
BRANCH   4   7
ATOM      7  C   UNL d   1      28.357 -15.657  -1.460  0.00  0.00     0.158 C 
BRANCH   7   8
ATOM      8  C   UNL d   1      29.448 -15.263  -0.459  0.00  0.00     0.160 C 
BRANCH   8   9
ATOM      9  C   UNL d   1      29.313 -13.864   0.128  0.00  0.00     0.209 C 
BRANCH   9  10
ATOM     10  O   UNL d   1      28.562 -13.940   1.336  0.00  0.00    -0.349 OA
BRANCH  10  11
ATOM     11  C   UNL d   1      27.951 -12.791   1.745  0.00  0.00     0.069 A 
ATOM     12  C   UNL d   1      27.510 -11.949   0.720  0.00  0.00     0.039 A 
ATOM     13  C   UNL d   1      26.992 -10.686   1.017  0.00  0.00     0.039 A 
ATOM     14  C   UNL d   1      26.853 -10.301   2.355  0.00  0.00     0.103 A 
ATOM     15  C   UNL d   1      27.294 -11.140   3.386  0.00  0.00     0.039 A 
ATOM     16  C   UNL d   1      27.850 -12.382   3.074  0.00  0.00     0.039 A 
BRANCH  14  17
ATOM     17  N   UNL d   1      26.191  -9.034   2.686  0.00  0.00    -0.116 N 
ATOM     18  O   UNL d   1      25.177  -8.728   2.042  0.00  0.00    -0.532 OA
ATOM     19  O   UNL d   1      26.669  -8.358   3.608  0.00  0.00    -0.532 OA
ENDBRANCH  14  17
ENDBRANCH  10  11
ENDBRANCH   9  10
ENDBRANCH   8   9
BRANCH   8  20
ATOM     20  O   UNL d   1      29.521 -16.244   0.584  0.00  0.00    -0.392 OA
ATOM     21  H   UNL d   1      29.678 -15.774   1.424  0.00  0.00     0.210 HD
ENDBRANCH   8  20
ENDBRANCH   7   8
ENDBRANCH   4   7
BRANCH   1  22
ATOM     22  C   UNL d   1      23.858 -17.109  -0.203  0.00  0.00     0.129 C 
BRANCH  22  23
ATOM     23  C   UNL d   1      23.165 -18.158  -1.080  0.00  0.00     0.058 C 
BRANCH  23  24
ATOM     24  C   UNL d   1      21.866 -18.671  -0.485  0.00  0.00    -0.057 A 
ATOM     25  C   UNL d   1      21.709 -18.742   0.905  0.00  0.00     0.010 A 
ATOM     26  C   UNL d   1      20.565 -19.331   1.461  0.00  0.00     0.037 A 
ATOM     27  C   UNL d   1      19.528 -19.788   0.644  0.00  0.00     0.068 A 
ATOM     28  C   UNL d   1      19.657 -19.678  -0.733  0.00  0.00     0.037 A 
ATOM     29  C   UNL d   1      20.810 -19.128  -1.288  0.00  0.00     0.010 A 
BRANCH  27  30
ATOM     30  O   UNL d   1      18.400 -20.229   1.280  0.00  0.00    -0.356 OA
ATOM     31  C   UNL d   1      18.007 -21.568   0.991  0.00  0.00     0.210 C 
ENDBRANCH  27  30
ENDBRANCH  23  24
ENDBRANCH  22  23
ENDBRANCH   1  22
TORSDOF 11
ENDMDL
MODEL 9
REMARK VINA RESULT:    -6.606      4.611      7.537
REMARK INTER + INTRA:         -12.724
REMARK INTER:                  -9.888
REMARK INTRA:                  -2.836
REMARK CONF_INDEPENDENT:        3.281
REMARK UNBOUND:                -2.836
REMARK  11 active torsions:
REMARK  status: ('A' for Active; 'I' for Inactive)
REMARK    1  A    between atoms: O_2  and  C_3 
REMARK    2  A    between atoms: C_6  and  C_7 
REMARK    3  A    between atoms: C_7  and  C_8 
REMARK    4  A    between atoms: C_8  and  N_9 
REMARK       I    between atoms: N_9  and  C_10 
REMARK       I    between atoms: C_10  and  N_12 
REMARK    5  A    between atoms: N_12  and  C_13 
REMARK    6  A    between atoms: C_14  and  C_13 
REMARK    7  A    between atoms: C_14  and  C_16 
REMARK    8  A    between atoms: C_14  and  O_15 
REMARK    9  A    between atoms: C_16  and  O_17 
REMARK   10  A    between atoms: O_17  and  C_18 
REMARK   11  A    between atoms: C_21  and  N_22 
ROOT
ATOM      1  N   UNL d   1      26.498 -16.750  -1.705  0.00  0.00    -0.343 N 
ATOM      2  C   UNL d   1      26.405 -15.411  -1.418  0.00  0.00     0.316 C 
ATOM      3  O   UNL d   1      26.627 -14.928  -0.309  0.00  0.00    -0.247 OA
ATOM      4  N   UNL d   1      26.038 -14.678  -2.497  0.00  0.00    -0.341 N 
ATOM      5  H   UNL d   1      26.228 -17.099  -2.611  0.00  0.00     0.164 HD
ATOM      6  H   UNL d   1      25.882 -15.150  -3.375  0.00  0.00     0.164 HD
ENDROOT
BRANCH   4   7
ATOM      7  C   UNL d   1      25.735 -13.255  -2.448  0.00  0.00     0.158 C 
BRANCH   7   8
ATOM      8  C   UNL d   1      25.155 -12.881  -3.816  0.00  0.00     0.160 C 
BRANCH   8   9
ATOM      9  C   UNL d   1      26.145 -12.929  -4.973  0.00  0.00     0.209 C 
BRANCH   9  10
ATOM     10  O   UNL d   1      26.306 -14.282  -5.389  0.00  0.00    -0.349 OA
BRANCH  10  11
ATOM     11  C   UNL d   1      27.586 -14.745  -5.467  0.00  0.00     0.069 A 
ATOM     12  C   UNL d   1      28.268 -14.426  -6.646  0.00  0.00     0.039 A 
ATOM     13  C   UNL d   1      29.535 -14.958  -6.895  0.00  0.00     0.039 A 
ATOM     14  C   UNL d   1      30.146 -15.758  -5.922  0.00  0.00     0.103 A 
ATOM     15  C   UNL d   1      29.467 -16.082  -4.741  0.00  0.00     0.039 A 
ATOM     16  C   UNL d   1      28.183 -15.578  -4.522  0.00  0.00     0.039 A 
BRANCH  14  17
ATOM     17  N   UNL d   1      31.527 -16.215  -6.114  0.00  0.00    -0.116 N 
ATOM     18  O   UNL d   1      32.353 -15.941  -5.232  0.00  0.00    -0.532 OA
ATOM     19  O   UNL d   1      31.778 -16.872  -7.134  0.00  0.00    -0.532 OA
ENDBRANCH  14  17
ENDBRANCH  10  11
ENDBRANCH   9  10
ENDBRANCH   8   9
BRANCH   8  20
ATOM     20  O   UNL d   1      24.013 -13.701  -4.096  0.00  0.00    -0.392 OA
ATOM     21  H   UNL d   1      24.081 -14.001  -5.021  0.00  0.00     0.210 HD
ENDBRANCH   8  20
ENDBRANCH   7   8
ENDBRANCH   4   7
BRANCH   1  22
ATOM     22  C   UNL d   1      26.922 -17.654  -0.667  0.00  0.00     0.129 C 
BRANCH  22  23
ATOM     23  C   UNL d   1      25.950 -17.834   0.505  0.00  0.00     0.058 C 
BRANCH  23  24
ATOM     24  C   UNL d   1      24.493 -17.827   0.080  0.00  0.00    -0.057 A 
ATOM     25  C   UNL d   1      23.820 -19.034  -0.145  0.00  0.00     0.010 A 
ATOM     26  C   UNL d   1      22.516 -19.035  -0.661  0.00  0.00     0.037 A 
ATOM     27  C   UNL d   1      21.836 -17.835  -0.886  0.00  0.00     0.068 A 
ATOM     28  C   UNL d   1      22.481 -16.635  -0.621  0.00  0.00     0.037 A 
ATOM     29  C   UNL d   1      23.790 -16.633  -0.146  0.00  0.00     0.010 A 
BRANCH  27  30
ATOM     30  O   UNL d   1      20.527 -17.938  -1.267  0.00  0.00    -0.356 OA
ATOM     31  C   UNL d   1      19.865 -19.144  -0.896  0.00  0.00     0.210 C 
ENDBRANCH  27  30
ENDBRANCH  23  24
ENDBRANCH  22  23
ENDBRANCH   1  22
TORSDOF 11
ENDMDL
