MODEL 1
REMARK VINA RESULT:   -29.937      0.000      0.000
REMARK INTER + INTRA:         -33.003
REMARK INTER:                 -31.726
REMARK INTRA:                  -1.276
REMARK CONF_INDEPENDENT:        1.790
REMARK UNBOUND:                -1.276
REMARK  6 active torsions:
REMARK  status: ('A' for Active; 'I' for Inactive)
REMARK    1  A    between atoms: C_2  and  C_3 
REMARK    2  A    between atoms: C_3  and  C_4 
REMARK    3  A    between atoms: C_4  and  N_5 
REMARK    4  A    between atoms: C_4  and  C_9 
REMARK       I    between atoms: N_5  and  C_6 
REMARK       I    between atoms: C_6  and  N_7 
REMARK       I    between atoms: C_9  and  N_11 
REMARK    5  A    between atoms: N_11  and  N_12 
REMARK       I    between atoms: N_12  and  C_13 
REMARK    6  A    between atoms: C_13  and  C_15 
ROOT
ATOM      1  C   UNL d   1      25.222 -16.178  -1.790  0.00  0.00     0.259 C 
ATOM      2  O   UNL d   1      24.107 -15.840  -2.205  0.00  0.00    -0.269 OA
ATOM      3  N   UNL d   1      25.354 -17.350  -1.057  0.00  0.00    -0.265 N 
ATOM      4  H   UNL d   1      26.243 -17.737  -0.744  0.00  0.00     0.190 HD
ENDROOT
BRANCH   1   5
ATOM      5  C   UNL d   1      26.539 -15.375  -2.164  0.00  0.00     0.180 C 
BRANCH   5   6
ATOM      6  C   UNL d   1      27.650 -15.793  -1.136  0.00  0.00     0.035 C 
BRANCH   6   7
ATOM      7  C   UNL d   1      27.565 -15.092   0.214  0.00  0.00    -0.002 C 
ATOM      8  C   UNL d   1      26.461 -14.095   0.437  0.00  0.00     0.005 C 
ENDBRANCH   6   7
ENDBRANCH   5   6
BRANCH   5   9
ATOM      9  N   UNL d   1      26.942 -15.569  -3.578  0.00  0.00    -0.330 N 
ATOM     10  C   UNL d   1      26.409 -15.091  -4.732  0.00  0.00     0.314 C 
ATOM     11  N   UNL d   1      25.141 -14.643  -4.731  0.00  0.00    -0.352 N 
ATOM     12  O   UNL d   1      27.079 -15.037  -5.763  0.00  0.00    -0.248 OA
ATOM     13  H   UNL d   1      24.610 -14.573  -3.883  0.00  0.00     0.160 HD
ATOM     14  H   UNL d   1      24.940 -13.927  -5.425  0.00  0.00     0.160 HD
ATOM     15  H   UNL d   1      27.889 -15.889  -3.739  0.00  0.00     0.165 HD
ENDBRANCH   5   9
ENDBRANCH   1   5
BRANCH   3  16
ATOM     16  N   UNL d   1      24.176 -18.141  -0.805  0.00  0.00    -0.263 N 
ATOM     17  C   UNL d   1      23.010 -17.525  -0.362  0.00  0.00     0.271 C 
ATOM     18  O   UNL d   1      22.943 -16.324  -0.119  0.00  0.00    -0.266 OA
ATOM     19  H   UNL d   1      24.218 -19.111  -1.117  0.00  0.00     0.190 HD
BRANCH  17  20
ATOM     20  C   UNL d   1      21.793 -18.379  -0.197  0.00  0.00     0.051 A 
ATOM     21  C   UNL d   1      21.424 -18.950   1.024  0.00  0.00     0.022 A 
ATOM     22  C   UNL d   1      20.245 -19.704   1.112  0.00  0.00     0.045 A 
ATOM     23  C   UNL d   1      19.477 -19.866  -0.029  0.00  0.00     0.125 A 
ATOM     24 CL   UNL d   1      18.038 -20.801  -0.002  0.00  0.00    -0.062 Cl
ATOM     25  N   UNL d   1      19.786 -19.320  -1.222  0.00  0.00    -0.248 NA
ATOM     26  C   UNL d   1      20.928 -18.576  -1.274  0.00  0.00     0.135 A 
ENDBRANCH  17  20
ENDBRANCH   3  16
TORSDOF 6
ENDMDL
MODEL 2
REMARK VINA RESULT:   -29.572      2.346      3.378
REMARK INTER + INTRA:         -33.058
REMARK INTER:                 -31.362
REMARK INTRA:                  -1.696
REMARK CONF_INDEPENDENT:        1.790
REMARK UNBOUND:                -1.696
REMARK  6 active torsions:
REMARK  status: ('A' for Active; 'I' for Inactive)
REMARK    1  A    between atoms: C_2  and  C_3 
REMARK    2  A    between atoms: C_3  and  C_4 
REMARK    3  A    between atoms: C_4  and  N_5 
REMARK    4  A    between atoms: C_4  and  C_9 
REMARK       I    between atoms: N_5  and  C_6 
REMARK       I    between atoms: C_6  and  N_7 
REMARK       I    between atoms: C_9  and  N_11 
REMARK    5  A    between atoms: N_11  and  N_12 
REMARK       I    between atoms: N_12  and  C_13 
REMARK    6  A    between atoms: C_13  and  C_15 
ROOT
ATOM      1  C   UNL d   1      26.501 -17.450   0.469  0.00  0.00     0.259 C 
ATOM      2  O   UNL d   1      26.519 -18.465   1.176  0.00  0.00    -0.269 OA
ATOM      3  N   UNL d   1      25.307 -17.038  -0.108  0.00  0.00    -0.265 N 
ATOM      4  H   UNL d   1      25.191 -16.177  -0.639  0.00  0.00     0.190 HD
ENDROOT
BRANCH   1   5
ATOM      5  C   UNL d   1      27.779 -16.526   0.288  0.00  0.00     0.180 C 
BRANCH   5   6
ATOM      6  C   UNL d   1      28.338 -16.780  -1.157  0.00  0.00     0.035 C 
BRANCH   6   7
ATOM      7  C   UNL d   1      28.135 -15.627  -2.132  0.00  0.00    -0.002 C 
ATOM      8  C   UNL d   1      26.857 -15.572  -2.923  0.00  0.00     0.005 C 
ENDBRANCH   6   7
ENDBRANCH   5   6
BRANCH   5   9
ATOM      9  N   UNL d   1      27.494 -15.098   0.567  0.00  0.00    -0.330 N 
ATOM     10  C   UNL d   1      28.177 -14.176   1.292  0.00  0.00     0.314 C 
ATOM     11  N   UNL d   1      29.076 -14.593   2.202  0.00  0.00    -0.352 N 
ATOM     12  O   UNL d   1      28.005 -12.971   1.106  0.00  0.00    -0.248 OA
ATOM     13  H   UNL d   1      29.315 -15.563   2.297  0.00  0.00     0.160 HD
ATOM     14  H   UNL d   1      29.837 -13.943   2.380  0.00  0.00     0.160 HD
ATOM     15  H   UNL d   1      26.841 -14.637  -0.056  0.00  0.00     0.165 HD
ENDBRANCH   5   9
ENDBRANCH   1   5
BRANCH   3  16
ATOM     16  N   UNL d   1      24.118 -17.815   0.140  0.00  0.00    -0.263 N 
ATOM     17  C   UNL d   1      22.917 -17.454  -0.461  0.00  0.00     0.271 C 
ATOM     18  O   UNL d   1      22.799 -16.456  -1.165  0.00  0.00    -0.266 OA
ATOM     19  H   UNL d   1      24.261 -18.696   0.633  0.00  0.00     0.190 HD
BRANCH  17  20
ATOM     20  C   UNL d   1      21.735 -18.342  -0.237  0.00  0.00     0.051 A 
ATOM     21  C   UNL d   1      21.452 -18.938   0.995  0.00  0.00     0.022 A 
ATOM     22  C   UNL d   1      20.300 -19.724   1.141  0.00  0.00     0.045 A 
ATOM     23  C   UNL d   1      19.472 -19.893   0.043  0.00  0.00     0.125 A 
ATOM     24 CL   UNL d   1      18.062 -20.867   0.141  0.00  0.00    -0.062 Cl
ATOM     25  N   UNL d   1      19.697 -19.325  -1.158  0.00  0.00    -0.248 NA
ATOM     26  C   UNL d   1      20.814 -18.550  -1.265  0.00  0.00     0.135 A 
ENDBRANCH  17  20
ENDBRANCH   3  16
TORSDOF 6
ENDMDL
MODEL 3
REMARK VINA RESULT:   -29.549      2.463      3.007
REMARK INTER + INTRA:         -33.150
REMARK INTER:                 -31.339
REMARK INTRA:                  -1.812
REMARK CONF_INDEPENDENT:        1.790
REMARK UNBOUND:                -1.812
REMARK  6 active torsions:
REMARK  status: ('A' for Active; 'I' for Inactive)
REMARK    1  A    between atoms: C_2  and  C_3 
REMARK    2  A    between atoms: C_3  and  C_4 
REMARK    3  A    between atoms: C_4  and  N_5 
REMARK    4  A    between atoms: C_4  and  C_9 
REMARK       I    between atoms: N_5  and  C_6 
REMARK       I    between atoms: C_6  and  N_7 
REMARK       I    between atoms: C_9  and  N_11 
REMARK    5  A    between atoms: N_11  and  N_12 
REMARK       I    between atoms: N_12  and  C_13 
REMARK    6  A    between atoms: C_13  and  C_15 
ROOT
ATOM      1  C   UNL d   1      26.634 -17.809  -0.208  0.00  0.00     0.259 C 
ATOM      2  O   UNL d   1      26.691 -18.927   0.317  0.00  0.00    -0.269 OA
ATOM      3  N   UNL d   1      25.397 -17.259  -0.517  0.00  0.00    -0.265 N 
ATOM      4  H   UNL d   1      25.259 -16.318  -0.880  0.00  0.00     0.190 HD
ENDROOT
BRANCH   1   5
ATOM      5  C   UNL d   1      27.929 -16.920  -0.443  0.00  0.00     0.180 C 
BRANCH   5   6
ATOM      6  C   UNL d   1      27.946 -15.815   0.672  0.00  0.00     0.035 C 
BRANCH   6   7
ATOM      7  C   UNL d   1      26.867 -14.749   0.530  0.00  0.00    -0.002 C 
ATOM      8  C   UNL d   1      26.621 -14.154  -0.830  0.00  0.00     0.005 C 
ENDBRANCH   6   7
ENDBRANCH   5   6
BRANCH   5   9
ATOM      9  N   UNL d   1      29.172 -17.728  -0.492  0.00  0.00    -0.330 N 
ATOM     10  C   UNL d   1      30.363 -17.498  -1.102  0.00  0.00     0.314 C 
ATOM     11  N   UNL d   1      30.423 -16.603  -2.105  0.00  0.00    -0.352 N 
ATOM     12  O   UNL d   1      31.385 -18.074  -0.731  0.00  0.00    -0.248 OA
ATOM     13  H   UNL d   1      29.630 -16.041  -2.354  0.00  0.00     0.160 HD
ATOM     14  H   UNL d   1      31.325 -16.149  -2.219  0.00  0.00     0.160 HD
ATOM     15  H   UNL d   1      29.278 -18.439   0.222  0.00  0.00     0.165 HD
ENDBRANCH   5   9
ENDBRANCH   1   5
BRANCH   3  16
ATOM     16  N   UNL d   1      24.211 -18.017  -0.209  0.00  0.00    -0.263 N 
ATOM     17  C   UNL d   1      22.958 -17.508  -0.535  0.00  0.00     0.271 C 
ATOM     18  O   UNL d   1      22.801 -16.397  -1.034  0.00  0.00    -0.266 OA
ATOM     19  H   UNL d   1      24.367 -18.976   0.101  0.00  0.00     0.190 HD
BRANCH  17  20
ATOM     20  C   UNL d   1      21.767 -18.372  -0.270  0.00  0.00     0.051 A 
ATOM     21  C   UNL d   1      21.507 -18.950   0.976  0.00  0.00     0.022 A 
ATOM     22  C   UNL d   1      20.345 -19.713   1.160  0.00  0.00     0.045 A 
ATOM     23  C   UNL d   1      19.485 -19.877   0.088  0.00  0.00     0.125 A 
ATOM     24 CL   UNL d   1      18.060 -20.824   0.233  0.00  0.00    -0.062 Cl
ATOM     25  N   UNL d   1      19.687 -19.325  -1.125  0.00  0.00    -0.248 NA
ATOM     26  C   UNL d   1      20.815 -18.572  -1.270  0.00  0.00     0.135 A 
ENDBRANCH  17  20
ENDBRANCH   3  16
TORSDOF 6
ENDMDL
MODEL 4
REMARK VINA RESULT:   -29.282      2.351      3.312
REMARK INTER + INTRA:         -32.709
REMARK INTER:                 -31.071
REMARK INTRA:                  -1.637
REMARK CONF_INDEPENDENT:        1.790
REMARK UNBOUND:                -1.637
REMARK  6 active torsions:
REMARK  status: ('A' for Active; 'I' for Inactive)
REMARK    1  A    between atoms: C_2  and  C_3 
REMARK    2  A    between atoms: C_3  and  C_4 
REMARK    3  A    between atoms: C_4  and  N_5 
REMARK    4  A    between atoms: C_4  and  C_9 
REMARK       I    between atoms: N_5  and  C_6 
REMARK       I    between atoms: C_6  and  N_7 
REMARK       I    between atoms: C_9  and  N_11 
REMARK    5  A    between atoms: N_11  and  N_12 
REMARK       I    between atoms: N_12  and  C_13 
REMARK    6  A    between atoms: C_13  and  C_15 
ROOT
ATOM      1  C   UNL d   1      26.650 -17.868  -0.054  0.00  0.00     0.259 C 
ATOM      2  O   UNL d   1      26.680 -18.959   0.527  0.00  0.00    -0.269 OA
ATOM      3  N   UNL d   1      25.431 -17.339  -0.456  0.00  0.00    -0.265 N 
ATOM      4  H   UNL d   1      25.313 -16.416  -0.872  0.00  0.00     0.190 HD
ENDROOT
BRANCH   1   5
ATOM      5  C   UNL d   1      27.955 -16.986  -0.258  0.00  0.00     0.180 C 
BRANCH   5   6
ATOM      6  C   UNL d   1      27.857 -16.329  -1.681  0.00  0.00     0.035 C 
BRANCH   6   7
ATOM      7  C   UNL d   1      28.974 -15.346  -2.007  0.00  0.00    -0.002 C 
ATOM      8  C   UNL d   1      29.913 -15.676  -3.136  0.00  0.00     0.005 C 
ENDBRANCH   6   7
ENDBRANCH   5   6
BRANCH   5   9
ATOM      9  N   UNL d   1      28.154 -16.002   0.833  0.00  0.00    -0.330 N 
ATOM     10  C   UNL d   1      27.366 -14.990   1.278  0.00  0.00     0.314 C 
ATOM     11  N   UNL d   1      26.399 -14.511   0.474  0.00  0.00    -0.352 N 
ATOM     12  O   UNL d   1      27.507 -14.530   2.411  0.00  0.00    -0.248 OA
ATOM     13  H   UNL d   1      26.191 -14.940  -0.409  0.00  0.00     0.160 HD
ATOM     14  H   UNL d   1      25.599 -14.113   0.958  0.00  0.00     0.160 HD
ATOM     15  H   UNL d   1      28.846 -16.238   1.534  0.00  0.00     0.165 HD
ENDBRANCH   5   9
ENDBRANCH   1   5
BRANCH   3  16
ATOM     16  N   UNL d   1      24.231 -18.086  -0.179  0.00  0.00    -0.263 N 
ATOM     17  C   UNL d   1      22.988 -17.533  -0.467  0.00  0.00     0.271 C 
ATOM     18  O   UNL d   1      22.852 -16.395  -0.906  0.00  0.00    -0.266 OA
ATOM     19  H   UNL d   1      24.368 -19.064   0.078  0.00  0.00     0.190 HD
BRANCH  17  20
ATOM     20  C   UNL d   1      21.779 -18.384  -0.238  0.00  0.00     0.051 A 
ATOM     21  C   UNL d   1      21.471 -18.950   1.002  0.00  0.00     0.022 A 
ATOM     22  C   UNL d   1      20.296 -19.701   1.151  0.00  0.00     0.045 A 
ATOM     23  C   UNL d   1      19.472 -19.865   0.050  0.00  0.00     0.125 A 
ATOM     24 CL   UNL d   1      18.034 -20.797   0.152  0.00  0.00    -0.062 Cl
ATOM     25  N   UNL d   1      19.722 -19.324  -1.159  0.00  0.00    -0.248 NA
ATOM     26  C   UNL d   1      20.861 -18.583  -1.270  0.00  0.00     0.135 A 
ENDBRANCH  17  20
ENDBRANCH   3  16
TORSDOF 6
ENDMDL
MODEL 5
REMARK VINA RESULT:   -29.138      1.993      3.026
REMARK INTER + INTRA:         -32.330
REMARK INTER:                 -30.928
REMARK INTRA:                  -1.402
REMARK CONF_INDEPENDENT:        1.790
REMARK UNBOUND:                -1.402
REMARK  6 active torsions:
REMARK  status: ('A' for Active; 'I' for Inactive)
REMARK    1  A    between atoms: C_2  and  C_3 
REMARK    2  A    between atoms: C_3  and  C_4 
REMARK    3  A    between atoms: C_4  and  N_5 
REMARK    4  A    between atoms: C_4  and  C_9 
REMARK       I    between atoms: N_5  and  C_6 
REMARK       I    between atoms: C_6  and  N_7 
REMARK       I    between atoms: C_9  and  N_11 
REMARK    5  A    between atoms: N_11  and  N_12 
REMARK       I    between atoms: N_12  and  C_13 
REMARK    6  A    between atoms: C_13  and  C_15 
ROOT
ATOM      1  C   UNL d   1      25.787 -16.453  -1.100  0.00  0.00     0.259 C 
ATOM      2  O   UNL d   1      25.552 -16.515   0.112  0.00  0.00    -0.269 OA
ATOM      3  N   UNL d   1      25.019 -17.196  -1.986  0.00  0.00    -0.265 N 
ATOM      4  H   UNL d   1      25.098 -17.145  -3.000  0.00  0.00     0.190 HD
ENDROOT
BRANCH   1   5
ATOM      5  C   UNL d   1      26.871 -15.458  -1.699  0.00  0.00     0.180 C 
BRANCH   5   6
ATOM      6  C   UNL d   1      26.102 -14.205  -2.248  0.00  0.00     0.035 C 
BRANCH   6   7
ATOM      7  C   UNL d   1      25.333 -14.445  -3.542  0.00  0.00    -0.002 C 
ATOM      8  C   UNL d   1      25.133 -13.288  -4.483  0.00  0.00     0.005 C 
ENDBRANCH   6   7
ENDBRANCH   5   6
BRANCH   5   9
ATOM      9  N   UNL d   1      27.932 -15.116  -0.720  0.00  0.00    -0.330 N 
ATOM     10  C   UNL d   1      28.708 -15.905   0.066  0.00  0.00     0.314 C 
ATOM     11  N   UNL d   1      28.316 -17.166   0.321  0.00  0.00    -0.352 N 
ATOM     12  O   UNL d   1      29.774 -15.489   0.521  0.00  0.00    -0.248 OA
ATOM     13  H   UNL d   1      27.510 -17.564  -0.125  0.00  0.00     0.160 HD
ATOM     14  H   UNL d   1      29.072 -17.819   0.507  0.00  0.00     0.160 HD
ATOM     15  H   UNL d   1      28.342 -14.194  -0.802  0.00  0.00     0.165 HD
ENDBRANCH   5   9
ENDBRANCH   1   5
BRANCH   3  16
ATOM     16  N   UNL d   1      23.963 -18.022  -1.457  0.00  0.00    -0.263 N 
ATOM     17  C   UNL d   1      22.827 -17.430  -0.915  0.00  0.00     0.271 C 
ATOM     18  O   UNL d   1      22.695 -16.214  -0.812  0.00  0.00    -0.266 OA
ATOM     19  H   UNL d   1      24.042 -19.020  -1.652  0.00  0.00     0.190 HD
BRANCH  17  20
ATOM     20  C   UNL d   1      21.726 -18.333  -0.458  0.00  0.00     0.051 A 
ATOM     21  C   UNL d   1      21.715 -18.944   0.799  0.00  0.00     0.022 A 
ATOM     22  C   UNL d   1      20.625 -19.743   1.175  0.00  0.00     0.045 A 
ATOM     23  C   UNL d   1      19.585 -19.908   0.276  0.00  0.00     0.125 A 
ATOM     24 CL   UNL d   1      18.235 -20.897   0.657  0.00  0.00    -0.062 Cl
ATOM     25  N   UNL d   1      19.547 -19.325  -0.938  0.00  0.00    -0.248 NA
ATOM     26  C   UNL d   1      20.610 -18.538  -1.270  0.00  0.00     0.135 A 
ENDBRANCH  17  20
ENDBRANCH   3  16
TORSDOF 6
ENDMDL
MODEL 6
REMARK VINA RESULT:   -29.071      2.167      3.233
REMARK INTER + INTRA:         -33.018
REMARK INTER:                 -30.861
REMARK INTRA:                  -2.157
REMARK CONF_INDEPENDENT:        1.790
REMARK UNBOUND:                -2.157
REMARK  6 active torsions:
REMARK  status: ('A' for Active; 'I' for Inactive)
REMARK    1  A    between atoms: C_2  and  C_3 
REMARK    2  A    between atoms: C_3  and  C_4 
REMARK    3  A    between atoms: C_4  and  N_5 
REMARK    4  A    between atoms: C_4  and  C_9 
REMARK       I    between atoms: N_5  and  C_6 
REMARK       I    between atoms: C_6  and  N_7 
REMARK       I    between atoms: C_9  and  N_11 
REMARK    5  A    between atoms: N_11  and  N_12 
REMARK       I    between atoms: N_12  and  C_13 
REMARK    6  A    between atoms: C_13  and  C_15 
ROOT
ATOM      1  C   UNL d   1      26.513 -16.957  -0.560  0.00  0.00     0.259 C 
ATOM      2  O   UNL d   1      26.693 -17.835   0.292  0.00  0.00    -0.269 OA
ATOM      3  N   UNL d   1      25.246 -16.778  -1.102  0.00  0.00    -0.265 N 
ATOM      4  H   UNL d   1      24.998 -16.032  -1.750  0.00  0.00     0.190 HD
ENDROOT
BRANCH   1   5
ATOM      5  C   UNL d   1      27.659 -15.943  -0.981  0.00  0.00     0.180 C 
BRANCH   5   6
ATOM      6  C   UNL d   1      27.486 -15.650  -2.514  0.00  0.00     0.035 C 
BRANCH   6   7
ATOM      7  C   UNL d   1      26.722 -14.372  -2.837  0.00  0.00    -0.002 C 
ATOM      8  C   UNL d   1      25.424 -14.482  -3.589  0.00  0.00     0.005 C 
ENDBRANCH   6   7
ENDBRANCH   5   6
BRANCH   5   9
ATOM      9  N   UNL d   1      27.671 -14.718  -0.145  0.00  0.00    -0.330 N 
ATOM     10  C   UNL d   1      27.900 -14.545   1.182  0.00  0.00     0.314 C 
ATOM     11  N   UNL d   1      27.780 -15.598   2.010  0.00  0.00    -0.352 N 
ATOM     12  O   UNL d   1      28.242 -13.449   1.627  0.00  0.00    -0.248 OA
ATOM     13  H   UNL d   1      27.611 -16.523   1.661  0.00  0.00     0.160 HD
ATOM     14  H   UNL d   1      28.358 -15.553   2.846  0.00  0.00     0.160 HD
ATOM     15  H   UNL d   1      27.775 -13.837  -0.634  0.00  0.00     0.165 HD
ENDBRANCH   5   9
ENDBRANCH   1   5
BRANCH   3  16
ATOM     16  N   UNL d   1      24.176 -17.627  -0.645  0.00  0.00    -0.263 N 
ATOM     17  C   UNL d   1      22.854 -17.221  -0.802  0.00  0.00     0.271 C 
ATOM     18  O   UNL d   1      22.545 -16.130  -1.270  0.00  0.00    -0.266 OA
ATOM     19  H   UNL d   1      24.447 -18.569  -0.364  0.00  0.00     0.190 HD
BRANCH  17  20
ATOM     20  C   UNL d   1      21.781 -18.177  -0.388  0.00  0.00     0.051 A 
ATOM     21  C   UNL d   1      21.717 -18.744   0.887  0.00  0.00     0.022 A 
ATOM     22  C   UNL d   1      20.655 -19.600   1.216  0.00  0.00     0.045 A 
ATOM     23  C   UNL d   1      19.695 -19.863   0.253  0.00  0.00     0.125 A 
ATOM     24 CL   UNL d   1      18.386 -20.923   0.577  0.00  0.00    -0.062 Cl
ATOM     25  N   UNL d   1      19.709 -19.325  -0.982  0.00  0.00    -0.248 NA
ATOM     26  C   UNL d   1      20.742 -18.482  -1.269  0.00  0.00     0.135 A 
ENDBRANCH  17  20
ENDBRANCH   3  16
TORSDOF 6
ENDMDL
MODEL 7
REMARK VINA RESULT:   -28.310      1.699      2.094
REMARK INTER + INTRA:         -31.633
REMARK INTER:                 -30.100
REMARK INTRA:                  -1.534
REMARK CONF_INDEPENDENT:        1.790
REMARK UNBOUND:                -1.534
REMARK  6 active torsions:
REMARK  status: ('A' for Active; 'I' for Inactive)
REMARK    1  A    between atoms: C_2  and  C_3 
REMARK    2  A    between atoms: C_3  and  C_4 
REMARK    3  A    between atoms: C_4  and  N_5 
REMARK    4  A    between atoms: C_4  and  C_9 
REMARK       I    between atoms: N_5  and  C_6 
REMARK       I    between atoms: C_6  and  N_7 
REMARK       I    between atoms: C_9  and  N_11 
REMARK    5  A    between atoms: N_11  and  N_12 
REMARK       I    between atoms: N_12  and  C_13 
REMARK    6  A    between atoms: C_13  and  C_15 
ROOT
ATOM      1  C   UNL d   1      25.171 -15.785  -1.955  0.00  0.00     0.259 C 
ATOM      2  O   UNL d   1      24.882 -16.610  -2.829  0.00  0.00    -0.269 OA
ATOM      3  N   UNL d   1      24.327 -15.617  -0.865  0.00  0.00    -0.265 N 
ATOM      4  H   UNL d   1      24.529 -15.016  -0.068  0.00  0.00     0.190 HD
ENDROOT
BRANCH   1   5
ATOM      5  C   UNL d   1      26.542 -14.984  -1.972  0.00  0.00     0.180 C 
BRANCH   5   6
ATOM      6  C   UNL d   1      27.622 -15.918  -2.623  0.00  0.00     0.035 C 
BRANCH   6   7
ATOM      7  C   UNL d   1      28.484 -15.252  -3.688  0.00  0.00    -0.002 C 
ATOM      8  C   UNL d   1      29.922 -15.677  -3.818  0.00  0.00     0.005 C 
ENDBRANCH   6   7
ENDBRANCH   5   6
BRANCH   5   9
ATOM      9  N   UNL d   1      26.422 -13.666  -2.642  0.00  0.00    -0.330 N 
ATOM     10  C   UNL d   1      25.649 -13.259  -3.681  0.00  0.00     0.314 C 
ATOM     11  N   UNL d   1      25.127 -14.182  -4.509  0.00  0.00    -0.352 N 
ATOM     12  O   UNL d   1      25.398 -12.066  -3.854  0.00  0.00    -0.248 OA
ATOM     13  H   UNL d   1      25.224 -15.164  -4.329  0.00  0.00     0.160 HD
ATOM     14  H   UNL d   1      24.255 -13.911  -4.956  0.00  0.00     0.160 HD
ATOM     15  H   UNL d   1      26.760 -12.863  -2.125  0.00  0.00     0.165 HD
ENDBRANCH   5   9
ENDBRANCH   1   5
BRANCH   3  16
ATOM     16  N   UNL d   1      23.133 -16.420  -0.789  0.00  0.00    -0.263 N 
ATOM     17  C   UNL d   1      23.200 -17.718  -0.296  0.00  0.00     0.271 C 
ATOM     18  O   UNL d   1      24.255 -18.250   0.037  0.00  0.00    -0.266 OA
ATOM     19  H   UNL d   1      22.257 -15.926  -0.963  0.00  0.00     0.190 HD
BRANCH  17  20
ATOM     20  C   UNL d   1      21.918 -18.477  -0.160  0.00  0.00     0.051 A 
ATOM     21  C   UNL d   1      21.446 -18.961   1.064  0.00  0.00     0.022 A 
ATOM     22  C   UNL d   1      20.213 -19.626   1.120  0.00  0.00     0.045 A 
ATOM     23  C   UNL d   1      19.496 -19.789  -0.054  0.00  0.00     0.125 A 
ATOM     24 CL   UNL d   1      17.994 -20.620  -0.064  0.00  0.00    -0.062 Cl
ATOM     25  N   UNL d   1      19.905 -19.325  -1.251  0.00  0.00    -0.248 NA
ATOM     26  C   UNL d   1      21.098 -18.665  -1.273  0.00  0.00     0.135 A 
ENDBRANCH  17  20
ENDBRANCH   3  16
TORSDOF 6
ENDMDL
MODEL 8
REMARK VINA RESULT:   -28.278      1.284      1.523
REMARK INTER + INTRA:         -32.201
REMARK INTER:                 -30.068
REMARK INTRA:                  -2.134
REMARK CONF_INDEPENDENT:        1.790
REMARK UNBOUND:                -2.134
REMARK  6 active torsions:
REMARK  status: ('A' for Active; 'I' for Inactive)
REMARK    1  A    between atoms: C_2  and  C_3 
REMARK    2  A    between atoms: C_3  and  C_4 
REMARK    3  A    between atoms: C_4  and  N_5 
REMARK    4  A    between atoms: C_4  and  C_9 
REMARK       I    between atoms: N_5  and  C_6 
REMARK       I    between atoms: C_6  and  N_7 
REMARK       I    between atoms: C_9  and  N_11 
REMARK    5  A    between atoms: N_11  and  N_12 
REMARK       I    between atoms: N_12  and  C_13 
REMARK    6  A    between atoms: C_13  and  C_15 
ROOT
ATOM      1  C   UNL d   1      24.600 -14.933  -2.089  0.00  0.00     0.259 C 
ATOM      2  O   UNL d   1      23.667 -14.760  -2.881  0.00  0.00    -0.269 OA
ATOM      3  N   UNL d   1      24.484 -15.895  -1.093  0.00  0.00    -0.265 N 
ATOM      4  H   UNL d   1      25.231 -16.151  -0.450  0.00  0.00     0.190 HD
ENDROOT
BRANCH   1   5
ATOM      5  C   UNL d   1      25.984 -14.170  -2.236  0.00  0.00     0.180 C 
BRANCH   5   6
ATOM      6  C   UNL d   1      26.986 -14.815  -1.214  0.00  0.00     0.035 C 
BRANCH   6   7
ATOM      7  C   UNL d   1      27.993 -15.778  -1.830  0.00  0.00    -0.002 C 
ATOM      8  C   UNL d   1      28.530 -16.896  -0.978  0.00  0.00     0.005 C 
ENDBRANCH   6   7
ENDBRANCH   5   6
BRANCH   5   9
ATOM      9  N   UNL d   1      26.486 -14.166  -3.632  0.00  0.00    -0.330 N 
ATOM     10  C   UNL d   1      26.074 -13.479  -4.727  0.00  0.00     0.314 C 
ATOM     11  N   UNL d   1      24.837 -12.951  -4.743  0.00  0.00    -0.352 N 
ATOM     12  O   UNL d   1      26.825 -13.310  -5.688  0.00  0.00    -0.248 OA
ATOM     13  H   UNL d   1      24.245 -12.979  -3.933  0.00  0.00     0.160 HD
ATOM     14  H   UNL d   1      24.732 -12.123  -5.324  0.00  0.00     0.160 HD
ATOM     15  H   UNL d   1      27.423 -14.522  -3.776  0.00  0.00     0.165 HD
ENDBRANCH   5   9
ENDBRANCH   1   5
BRANCH   3  16
ATOM     16  N   UNL d   1      23.269 -16.666  -1.019  0.00  0.00    -0.263 N 
ATOM     17  C   UNL d   1      23.228 -17.822  -0.246  0.00  0.00     0.271 C 
ATOM     18  O   UNL d   1      24.209 -18.260   0.348  0.00  0.00    -0.266 OA
ATOM     19  H   UNL d   1      22.442 -16.229  -1.426  0.00  0.00     0.190 HD
BRANCH  17  20
ATOM     20  C   UNL d   1      21.919 -18.537  -0.137  0.00  0.00     0.051 A 
ATOM     21  C   UNL d   1      21.404 -19.000   1.078  0.00  0.00     0.022 A 
ATOM     22  C   UNL d   1      20.148 -19.624   1.108  0.00  0.00     0.045 A 
ATOM     23  C   UNL d   1      19.454 -19.770  -0.081  0.00  0.00     0.125 A 
ATOM     24 CL   UNL d   1      17.926 -20.552  -0.122  0.00  0.00    -0.062 Cl
ATOM     25  N   UNL d   1      19.905 -19.325  -1.270  0.00  0.00    -0.248 NA
ATOM     26  C   UNL d   1      21.119 -18.705  -1.267  0.00  0.00     0.135 A 
ENDBRANCH  17  20
ENDBRANCH   3  16
TORSDOF 6
ENDMDL
MODEL 9
REMARK VINA RESULT:   -28.102      2.155      2.866
REMARK INTER + INTRA:         -31.433
REMARK INTER:                 -29.892
REMARK INTRA:                  -1.542
REMARK CONF_INDEPENDENT:        1.790
REMARK UNBOUND:                -1.542
REMARK  6 active torsions:
REMARK  status: ('A' for Active; 'I' for Inactive)
REMARK    1  A    between atoms: C_2  and  C_3 
REMARK    2  A    between atoms: C_3  and  C_4 
REMARK    3  A    between atoms: C_4  and  N_5 
REMARK    4  A    between atoms: C_4  and  C_9 
REMARK       I    between atoms: N_5  and  C_6 
REMARK       I    between atoms: C_6  and  N_7 
REMARK       I    between atoms: C_9  and  N_11 
REMARK    5  A    between atoms: N_11  and  N_12 
REMARK       I    between atoms: N_12  and  C_13 
REMARK    6  A    between atoms: C_13  and  C_15 
ROOT
ATOM      1  C   UNL d   1      24.459 -14.795  -2.572  0.00  0.00     0.259 C 
ATOM      2  O   UNL d   1      23.378 -14.501  -3.094  0.00  0.00    -0.269 OA
ATOM      3  N   UNL d   1      24.521 -15.848  -1.669  0.00  0.00    -0.265 N 
ATOM      4  H   UNL d   1      25.381 -16.201  -1.253  0.00  0.00     0.190 HD
ENDROOT
BRANCH   1   5
ATOM      5  C   UNL d   1      25.816 -14.080  -2.983  0.00  0.00     0.180 C 
BRANCH   5   6
ATOM      6  C   UNL d   1      26.533 -15.004  -4.030  0.00  0.00     0.035 C 
BRANCH   6   7
ATOM      7  C   UNL d   1      26.897 -14.320  -5.342  0.00  0.00    -0.002 C 
ATOM      8  C   UNL d   1      28.230 -13.631  -5.447  0.00  0.00     0.005 C 
ENDBRANCH   6   7
ENDBRANCH   5   6
BRANCH   5   9
ATOM      9  N   UNL d   1      25.605 -12.694  -3.467  0.00  0.00    -0.330 N 
ATOM     10  C   UNL d   1      26.346 -11.568  -3.303  0.00  0.00     0.314 C 
ATOM     11  N   UNL d   1      27.241 -11.514  -2.300  0.00  0.00    -0.352 N 
ATOM     12  O   UNL d   1      26.228 -10.616  -4.074  0.00  0.00    -0.248 OA
ATOM     13  H   UNL d   1      27.436 -12.314  -1.727  0.00  0.00     0.160 HD
ATOM     14  H   UNL d   1      28.036 -10.903  -2.470  0.00  0.00     0.160 HD
ATOM     15  H   UNL d   1      24.962 -12.578  -4.241  0.00  0.00     0.165 HD
ENDBRANCH   5   9
ENDBRANCH   1   5
BRANCH   3  16
ATOM     16  N   UNL d   1      23.310 -16.571  -1.370  0.00  0.00    -0.263 N 
ATOM     17  C   UNL d   1      23.382 -17.867  -0.870  0.00  0.00     0.271 C 
ATOM     18  O   UNL d   1      24.444 -18.462  -0.716  0.00  0.00    -0.266 OA
ATOM     19  H   UNL d   1      22.450 -16.024  -1.399  0.00  0.00     0.190 HD
BRANCH  17  20
ATOM     20  C   UNL d   1      22.099 -18.539  -0.498  0.00  0.00     0.051 A 
ATOM     21  C   UNL d   1      21.795 -18.928   0.809  0.00  0.00     0.022 A 
ATOM     22  C   UNL d   1      20.552 -19.515   1.089  0.00  0.00     0.045 A 
ATOM     23  C   UNL d   1      19.658 -19.699   0.048  0.00  0.00     0.125 A 
ATOM     24 CL   UNL d   1      18.132 -20.438   0.313  0.00  0.00    -0.062 Cl
ATOM     25  N   UNL d   1      19.903 -19.324  -1.223  0.00  0.00    -0.248 NA
ATOM     26  C   UNL d   1      21.111 -18.738  -1.463  0.00  0.00     0.135 A 
ENDBRANCH  17  20
ENDBRANCH   3  16
TORSDOF 6
ENDMDL
