MODEL 1
REMARK VINA RESULT:   -10.361      0.000      0.000
REMARK INTER + INTRA:         -14.224
REMARK INTER:                 -12.150
REMARK INTRA:                  -2.074
REMARK CONF_INDEPENDENT:        1.790
REMARK UNBOUND:                -2.074
REMARK  6 active torsions:
REMARK  status: ('A' for Active; 'I' for Inactive)
REMARK    1  A    between atoms: O_2  and  C_3 
REMARK    2  A    between atoms: C_6  and  N_7 
REMARK    3  A    between atoms: N_10  and  C_11 
REMARK    4  A    between atoms: C_11  and  C_12 
REMARK    5  A    between atoms: C_11  and  C_26 
REMARK    6  A    between atoms: N_30  and  C_31 
ROOT
ATOM      1  C   UNL d   1      29.035 -15.969  -2.795  0.00  0.00     0.298 C 
ENDROOT
BRANCH   1   2
ATOM      2  N   UNL d   1      27.809 -16.071  -1.456  0.00  0.00    -0.052 N 
ATOM      3  C   UNL d   1      26.460 -15.406  -1.796  0.00  0.00     0.256 C 
ATOM      4  C   UNL d   1      25.423 -15.510  -0.655  0.00  0.00     0.150 C 
ATOM      5  N   UNL d   1      25.178 -16.867  -0.222  0.00  0.00    -0.378 N 
ATOM      6  C   UNL d   1      26.335 -17.526   0.274  0.00  0.00     0.150 C 
ATOM      7  C   UNL d   1      27.312 -17.433  -0.854  0.00  0.00     0.256 C 
ATOM      8  H   UNL d   1      28.282 -15.548  -0.715  0.00  0.00     0.281 HD
BRANCH   5   9
ATOM      9  C   UNL d   1      24.011 -17.567  -0.352  0.00  0.00     0.030 A 
ATOM     10  C   UNL d   1      22.836 -16.866  -0.654  0.00  0.00     0.032 A 
ATOM     11  C   UNL d   1      21.639 -17.526  -0.895  0.00  0.00     0.039 A 
ATOM     12  C   UNL d   1      21.597 -18.914  -0.857  0.00  0.00     0.068 A 
ATOM     13  C   UNL d   1      22.740 -19.629  -0.503  0.00  0.00     0.039 A 
ATOM     14  C   UNL d   1      23.937 -18.956  -0.236  0.00  0.00     0.032 A 
BRANCH  12  15
ATOM     15  O   UNL d   1      20.435 -19.473  -1.300  0.00  0.00    -0.356 OA
ATOM     16  C   UNL d   1      19.613 -20.057  -0.299  0.00  0.00     0.210 C 
ENDBRANCH  12  15
ENDBRANCH   5   9
ENDBRANCH   1   2
BRANCH   1  17
ATOM     17  C   UNL d   1      30.079 -17.135  -2.624  0.00  0.00     0.043 C 
ATOM     18  C   UNL d   1      30.458 -18.071  -3.545  0.00  0.00     0.028 C 
ATOM     19  C   UNL d   1      31.449 -19.133  -3.273  0.00  0.00    -0.014 C 
ATOM     20  C   UNL d   1      32.361 -19.784  -4.144  0.00  0.00     0.035 C 
ATOM     21  C   UNL d   1      31.466 -19.508  -1.946  0.00  0.00     0.028 C 
ATOM     22  C   UNL d   1      33.376 -20.592  -3.562  0.00  0.00     0.171 C 
ATOM     23  C   UNL d   1      33.663 -20.352  -2.253  0.00  0.00     0.093 C 
ATOM     24  O   UNL d   1      33.376 -22.069  -3.514  0.00  0.00    -0.341 OA
ATOM     25  C   UNL d   1      32.536 -20.212  -1.458  0.00  0.00     0.060 C 
ATOM     26  O   UNL d   1      34.711 -21.132  -1.827  0.00  0.00    -0.327 OA
ATOM     27  C   UNL d   1      34.091 -22.340  -2.229  0.00  0.00     0.346 C 
ATOM     28  N   UNL d   1      30.583 -18.889  -1.047  0.00  0.00    -0.224 NA
ATOM     29  C   UNL d   1      30.564 -17.503  -1.236  0.00  0.00     0.234 C 
ATOM     30  H   UNL d   1      30.707 -19.165  -0.080  0.00  0.00     0.137 HD
ATOM     31  O   UNL d   1      30.999 -16.746  -0.435  0.00  0.00    -0.274 OA
ENDBRANCH   1  17
BRANCH   1  32
ATOM     32  C   UNL d   1      28.527 -15.595  -4.392  0.00  0.00     0.184 C 
ATOM     33  N   UNL d   1      27.264 -15.491  -4.783  0.00  0.00    -0.111 NA
ATOM     34  N   UNL d   1      27.211 -15.198  -6.119  0.00  0.00    -0.023 NA
ATOM     35  N   UNL d   1      28.416 -15.201  -6.638  0.00  0.00    -0.043 NA
ATOM     36  N   UNL d   1      29.226 -15.560  -5.638  0.00  0.00    -0.223 N 
BRANCH  36  37
ATOM     37  C   UNL d   1      30.639 -15.701  -5.965  0.00  0.00     0.048 C 
ATOM     38  C   UNL d   1      31.687 -15.226  -4.989  0.00  0.00     0.040 C 
ATOM     39  C   UNL d   1      30.926 -17.070  -6.647  0.00  0.00     0.040 C 
ATOM     40  C   UNL d   1      30.862 -14.623  -6.925  0.00  0.00     0.040 C 
ENDBRANCH  36  37
ENDBRANCH   1  32
TORSDOF 6
ENDMDL
MODEL 2
REMARK VINA RESULT:   -10.279      5.189      8.808
REMARK INTER + INTRA:         -14.205
REMARK INTER:                 -12.068
REMARK INTRA:                  -2.136
REMARK CONF_INDEPENDENT:        1.790
REMARK UNBOUND:                -2.136
REMARK  6 active torsions:
REMARK  status: ('A' for Active; 'I' for Inactive)
REMARK    1  A    between atoms: O_2  and  C_3 
REMARK    2  A    between atoms: C_6  and  N_7 
REMARK    3  A    between atoms: N_10  and  C_11 
REMARK    4  A    between atoms: C_11  and  C_12 
REMARK    5  A    between atoms: C_11  and  C_26 
REMARK    6  A    between atoms: N_30  and  C_31 
ROOT
ATOM      1  C   UNL d   1      28.332 -14.952  -0.017  0.00  0.00     0.298 C 
ENDROOT
BRANCH   1   2
ATOM      2  N   UNL d   1      28.910 -14.997   1.707  0.00  0.00    -0.052 N 
ATOM      3  C   UNL d   1      29.990 -13.945   2.029  0.00  0.00     0.256 C 
ATOM      4  C   UNL d   1      30.463 -13.986   3.500  0.00  0.00     0.150 C 
ATOM      5  N   UNL d   1      29.385 -13.856   4.455  0.00  0.00    -0.378 N 
ATOM      6  C   UNL d   1      28.408 -14.883   4.356  0.00  0.00     0.150 C 
ATOM      7  C   UNL d   1      27.950 -14.806   2.934  0.00  0.00     0.256 C 
ATOM      8  H   UNL d   1      29.309 -15.938   1.757  0.00  0.00     0.281 HD
BRANCH   5   9
ATOM      9  C   UNL d   1      29.183 -12.817   5.320  0.00  0.00     0.030 A 
ATOM     10  C   UNL d   1      28.664 -13.093   6.592  0.00  0.00     0.032 A 
ATOM     11  C   UNL d   1      28.528 -12.099   7.551  0.00  0.00     0.039 A 
ATOM     12  C   UNL d   1      28.928 -10.801   7.261  0.00  0.00     0.068 A 
ATOM     13  C   UNL d   1      29.394 -10.493   5.984  0.00  0.00     0.039 A 
ATOM     14  C   UNL d   1      29.505 -11.495   5.014  0.00  0.00     0.032 A 
BRANCH  12  15
ATOM     15  O   UNL d   1      28.941  -9.946   8.322  0.00  0.00    -0.356 OA
ATOM     16  C   UNL d   1      30.030 -10.100   9.222  0.00  0.00     0.210 C 
ENDBRANCH  12  15
ENDBRANCH   5   9
ENDBRANCH   1   2
BRANCH   1  17
ATOM     17  C   UNL d   1      27.062 -15.870  -0.157  0.00  0.00     0.043 C 
ATOM     18  C   UNL d   1      25.748 -15.495  -0.184  0.00  0.00     0.028 C 
ATOM     19  C   UNL d   1      24.626 -16.449  -0.313  0.00  0.00    -0.014 C 
ATOM     20  C   UNL d   1      23.348 -16.290  -0.906  0.00  0.00     0.035 C 
ATOM     21  C   UNL d   1      24.921 -17.682   0.230  0.00  0.00     0.028 C 
ATOM     22  C   UNL d   1      22.559 -17.455  -1.112  0.00  0.00     0.171 C 
ATOM     23  C   UNL d   1      23.227 -18.642  -1.126  0.00  0.00     0.093 C 
ATOM     24  O   UNL d   1      21.405 -17.868  -0.287  0.00  0.00    -0.341 OA
ATOM     25  C   UNL d   1      24.151 -18.767  -0.100  0.00  0.00     0.060 C 
ATOM     26  O   UNL d   1      22.376 -19.683  -1.414  0.00  0.00    -0.327 OA
ATOM     27  C   UNL d   1      21.483 -19.360  -0.363  0.00  0.00     0.346 C 
ATOM     28  N   UNL d   1      26.176 -17.887   0.826  0.00  0.00    -0.224 NA
ATOM     29  C   UNL d   1      27.201 -17.369   0.028  0.00  0.00     0.234 C 
ATOM     30  H   UNL d   1      26.344 -18.837   1.136  0.00  0.00     0.137 HD
ATOM     31  O   UNL d   1      27.991 -18.060  -0.521  0.00  0.00    -0.274 OA
ENDBRANCH   1  17
BRANCH   1  32
ATOM     32  C   UNL d   1      28.329 -13.466  -0.878  0.00  0.00     0.184 C 
ATOM     33  N   UNL d   1      28.748 -12.305  -0.392  0.00  0.00    -0.111 NA
ATOM     34  N   UNL d   1      28.593 -11.322  -1.332  0.00  0.00    -0.023 NA
ATOM     35  N   UNL d   1      27.991 -11.795  -2.397  0.00  0.00    -0.043 NA
ATOM     36  N   UNL d   1      27.708 -13.067  -2.101  0.00  0.00    -0.223 N 
BRANCH  36  37
ATOM     37  C   UNL d   1      26.971 -13.820  -3.109  0.00  0.00     0.048 C 
ATOM     38  C   UNL d   1      27.411 -15.216  -3.473  0.00  0.00     0.040 C 
ATOM     39  C   UNL d   1      25.436 -13.617  -2.955  0.00  0.00     0.040 C 
ATOM     40  C   UNL d   1      27.418 -13.215  -4.361  0.00  0.00     0.040 C 
ENDBRANCH  36  37
ENDBRANCH   1  32
TORSDOF 6
ENDMDL
MODEL 3
REMARK VINA RESULT:   -10.263      2.540      3.932
REMARK INTER + INTRA:         -14.151
REMARK INTER:                 -12.053
REMARK INTRA:                  -2.099
REMARK CONF_INDEPENDENT:        1.790
REMARK UNBOUND:                -2.099
REMARK  6 active torsions:
REMARK  status: ('A' for Active; 'I' for Inactive)
REMARK    1  A    between atoms: O_2  and  C_3 
REMARK    2  A    between atoms: C_6  and  N_7 
REMARK    3  A    between atoms: N_10  and  C_11 
REMARK    4  A    between atoms: C_11  and  C_12 
REMARK    5  A    between atoms: C_11  and  C_26 
REMARK    6  A    between atoms: N_30  and  C_31 
ROOT
ATOM      1  C   UNL d   1      29.307 -14.861  -2.906  0.00  0.00     0.298 C 
ENDROOT
BRANCH   1   2
ATOM      2  N   UNL d   1      28.456 -15.672  -1.518  0.00  0.00    -0.052 N 
ATOM      3  C   UNL d   1      27.294 -14.845  -0.932  0.00  0.00     0.256 C 
ATOM      4  C   UNL d   1      26.573 -15.551   0.238  0.00  0.00     0.150 C 
ATOM      5  N   UNL d   1      26.084 -16.869  -0.098  0.00  0.00    -0.378 N 
ATOM      6  C   UNL d   1      27.107 -17.773  -0.495  0.00  0.00     0.150 C 
ATOM      7  C   UNL d   1      27.772 -17.080  -1.641  0.00  0.00     0.256 C 
ATOM      8  H   UNL d   1      29.216 -15.744  -0.836  0.00  0.00     0.281 HD
BRANCH   5   9
ATOM      9  C   UNL d   1      24.776 -17.261  -0.171  0.00  0.00     0.030 A 
ATOM     10  C   UNL d   1      23.809 -16.312  -0.523  0.00  0.00     0.032 A 
ATOM     11  C   UNL d   1      22.479 -16.665  -0.711  0.00  0.00     0.039 A 
ATOM     12  C   UNL d   1      22.092 -17.992  -0.566  0.00  0.00     0.068 A 
ATOM     13  C   UNL d   1      23.027 -18.943  -0.161  0.00  0.00     0.039 A 
ATOM     14  C   UNL d   1      24.360 -18.574   0.051  0.00  0.00     0.032 A 
BRANCH  12  15
ATOM     15  O   UNL d   1      20.818 -18.271  -0.962  0.00  0.00    -0.356 OA
ATOM     16  C   UNL d   1      20.325 -19.551  -0.589  0.00  0.00     0.210 C 
ENDBRANCH  12  15
ENDBRANCH   5   9
ENDBRANCH   1   2
BRANCH   1  17
ATOM     17  C   UNL d   1      29.697 -15.949  -3.975  0.00  0.00     0.043 C 
ATOM     18  C   UNL d   1      30.409 -17.100  -3.787  0.00  0.00     0.028 C 
ATOM     19  C   UNL d   1      30.726 -18.053  -4.871  0.00  0.00    -0.014 C 
ATOM     20  C   UNL d   1      30.909 -19.460  -4.833  0.00  0.00     0.035 C 
ATOM     21  C   UNL d   1      30.835 -17.435  -6.099  0.00  0.00     0.028 C 
ATOM     22  C   UNL d   1      30.956 -20.158  -6.071  0.00  0.00     0.171 C 
ATOM     23  C   UNL d   1      30.411 -19.522  -7.145  0.00  0.00     0.093 C 
ATOM     24  O   UNL d   1      32.179 -20.671  -6.722  0.00  0.00    -0.341 OA
ATOM     25  C   UNL d   1      30.780 -18.189  -7.242  0.00  0.00     0.060 C 
ATOM     26  O   UNL d   1      30.441 -20.326  -8.260  0.00  0.00    -0.327 OA
ATOM     27  C   UNL d   1      31.837 -20.547  -8.173  0.00  0.00     0.346 C 
ATOM     28  N   UNL d   1      30.659 -16.045  -6.184  0.00  0.00    -0.224 NA
ATOM     29  C   UNL d   1      29.542 -15.633  -5.450  0.00  0.00     0.234 C 
ATOM     30  H   UNL d   1      30.682 -15.676  -7.128  0.00  0.00     0.137 HD
ATOM     31  O   UNL d   1      28.563 -15.210  -5.965  0.00  0.00    -0.274 OA
ENDBRANCH   1  17
BRANCH   1  32
ATOM     32  C   UNL d   1      28.738 -13.350  -3.491  0.00  0.00     0.184 C 
ATOM     33  N   UNL d   1      29.442 -12.226  -3.505  0.00  0.00    -0.111 NA
ATOM     34  N   UNL d   1      28.687 -11.208  -4.021  0.00  0.00    -0.023 NA
ATOM     35  N   UNL d   1      27.465 -11.618  -4.260  0.00  0.00    -0.043 NA
ATOM     36  N   UNL d   1      27.432 -12.884  -3.834  0.00  0.00    -0.223 N 
BRANCH  36  37
ATOM     37  C   UNL d   1      26.149 -13.569  -3.930  0.00  0.00     0.048 C 
ATOM     38  C   UNL d   1      26.069 -14.924  -4.589  0.00  0.00     0.040 C 
ATOM     39  C   UNL d   1      25.324 -13.409  -2.621  0.00  0.00     0.040 C 
ATOM     40  C   UNL d   1      25.479 -12.859  -5.017  0.00  0.00     0.040 C 
ENDBRANCH  36  37
ENDBRANCH   1  32
TORSDOF 6
ENDMDL
MODEL 4
REMARK VINA RESULT:   -10.235      5.723      9.570
REMARK INTER + INTRA:         -14.065
REMARK INTER:                 -12.025
REMARK INTRA:                  -2.040
REMARK CONF_INDEPENDENT:        1.790
REMARK UNBOUND:                -2.040
REMARK  6 active torsions:
REMARK  status: ('A' for Active; 'I' for Inactive)
REMARK    1  A    between atoms: O_2  and  C_3 
REMARK    2  A    between atoms: C_6  and  N_7 
REMARK    3  A    between atoms: N_10  and  C_11 
REMARK    4  A    between atoms: C_11  and  C_12 
REMARK    5  A    between atoms: C_11  and  C_26 
REMARK    6  A    between atoms: N_30  and  C_31 
ROOT
ATOM      1  C   UNL d   1      28.443 -13.852   2.048  0.00  0.00     0.298 C 
ENDROOT
BRANCH   1   2
ATOM      2  N   UNL d   1      27.843 -15.017   0.786  0.00  0.00    -0.052 N 
ATOM      3  C   UNL d   1      27.411 -16.383   1.354  0.00  0.00     0.256 C 
ATOM      4  C   UNL d   1      26.892 -17.358   0.274  0.00  0.00     0.150 C 
ATOM      5  N   UNL d   1      25.808 -16.818  -0.516  0.00  0.00    -0.378 N 
ATOM      6  C   UNL d   1      26.153 -15.636  -1.225  0.00  0.00     0.150 C 
ATOM      7  C   UNL d   1      26.627 -14.702  -0.157  0.00  0.00     0.256 C 
ATOM      8  H   UNL d   1      28.678 -15.125   0.204  0.00  0.00     0.281 HD
BRANCH   5   9
ATOM      9  C   UNL d   1      24.517 -17.265  -0.543  0.00  0.00     0.030 A 
ATOM     10  C   UNL d   1      23.482 -16.325  -0.631  0.00  0.00     0.032 A 
ATOM     11  C   UNL d   1      22.156 -16.716  -0.762  0.00  0.00     0.039 A 
ATOM     12  C   UNL d   1      21.838 -18.066  -0.824  0.00  0.00     0.068 A 
ATOM     13  C   UNL d   1      22.846 -19.019  -0.681  0.00  0.00     0.039 A 
ATOM     14  C   UNL d   1      24.176 -18.618  -0.525  0.00  0.00     0.032 A 
BRANCH  12  15
ATOM     15  O   UNL d   1      20.544 -18.344  -1.151  0.00  0.00    -0.356 OA
ATOM     16  C   UNL d   1      19.977 -19.477  -0.507  0.00  0.00     0.210 C 
ENDBRANCH  12  15
ENDBRANCH   5   9
ENDBRANCH   1   2
BRANCH   1  17
ATOM     17  C   UNL d   1      27.996 -12.395   1.655  0.00  0.00     0.043 C 
ATOM     18  C   UNL d   1      26.886 -11.712   2.070  0.00  0.00     0.028 C 
ATOM     19  C   UNL d   1      26.558 -10.340   1.630  0.00  0.00    -0.014 C 
ATOM     20  C   UNL d   1      25.866  -9.300   2.302  0.00  0.00     0.035 C 
ATOM     21  C   UNL d   1      27.033 -10.067   0.364  0.00  0.00     0.028 C 
ATOM     22  C   UNL d   1      25.913  -7.996   1.738  0.00  0.00     0.171 C 
ATOM     23  C   UNL d   1      26.932  -7.750   0.868  0.00  0.00     0.093 C 
ATOM     24  O   UNL d   1      24.823  -7.347   0.981  0.00  0.00    -0.341 OA
ATOM     25  C   UNL d   1      27.124  -8.766  -0.056  0.00  0.00     0.060 C 
ATOM     26  O   UNL d   1      26.922  -6.439   0.455  0.00  0.00    -0.327 OA
ATOM     27  C   UNL d   1      25.579  -6.497   0.010  0.00  0.00     0.346 C 
ATOM     28  N   UNL d   1      27.727 -11.066  -0.339  0.00  0.00    -0.224 NA
ATOM     29  C   UNL d   1      28.663 -11.701   0.484  0.00  0.00     0.234 C 
ATOM     30  H   UNL d   1      28.107 -10.766  -1.229  0.00  0.00     0.137 HD
ATOM     31  O   UNL d   1      29.831 -11.585   0.327  0.00  0.00    -0.274 OA
ENDBRANCH   1  17
BRANCH   1  32
ATOM     32  C   UNL d   1      28.366 -14.280   3.709  0.00  0.00     0.184 C 
ATOM     33  N   UNL d   1      27.780 -15.369   4.188  0.00  0.00    -0.111 NA
ATOM     34  N   UNL d   1      27.887 -15.397   5.552  0.00  0.00    -0.023 NA
ATOM     35  N   UNL d   1      28.450 -14.297   5.990  0.00  0.00    -0.043 NA
ATOM     36  N   UNL d   1      28.641 -13.545   4.903  0.00  0.00    -0.223 N 
BRANCH  36  37
ATOM     37  C   UNL d   1      29.209 -12.220   5.121  0.00  0.00     0.048 C 
ATOM     38  C   UNL d   1      30.546 -11.868   4.517  0.00  0.00     0.040 C 
ATOM     39  C   UNL d   1      28.116 -11.116   5.025  0.00  0.00     0.040 C 
ATOM     40  C   UNL d   1      29.704 -12.297   6.492  0.00  0.00     0.040 C 
ENDBRANCH  36  37
ENDBRANCH   1  32
TORSDOF 6
ENDMDL
MODEL 5
REMARK VINA RESULT:   -10.166      4.206      8.238
REMARK INTER + INTRA:         -13.738
REMARK INTER:                 -11.956
REMARK INTRA:                  -1.782
REMARK CONF_INDEPENDENT:        1.790
REMARK UNBOUND:                -1.782
REMARK  6 active torsions:
REMARK  status: ('A' for Active; 'I' for Inactive)
REMARK    1  A    between atoms: O_2  and  C_3 
REMARK    2  A    between atoms: C_6  and  N_7 
REMARK    3  A    between atoms: N_10  and  C_11 
REMARK    4  A    between atoms: C_11  and  C_12 
REMARK    5  A    between atoms: C_11  and  C_26 
REMARK    6  A    between atoms: N_30  and  C_31 
ROOT
ATOM      1  C   UNL d   1      28.630 -16.361   0.001  0.00  0.00     0.298 C 
ENDROOT
BRANCH   1   2
ATOM      2  N   UNL d   1      28.729 -15.132   1.338  0.00  0.00    -0.052 N 
ATOM      3  C   UNL d   1      29.523 -13.865   0.962  0.00  0.00     0.256 C 
ATOM      4  C   UNL d   1      29.588 -12.825   2.103  0.00  0.00     0.150 C 
ATOM      5  N   UNL d   1      28.288 -12.430   2.597  0.00  0.00    -0.378 N 
ATOM      6  C   UNL d   1      27.529 -13.507   3.128  0.00  0.00     0.150 C 
ATOM      7  C   UNL d   1      27.459 -14.487   2.000  0.00  0.00     0.256 C 
ATOM      8  H   UNL d   1      29.229 -15.661   2.057  0.00  0.00     0.281 HD
BRANCH   5   9
ATOM      9  C   UNL d   1      27.718 -11.192   2.494  0.00  0.00     0.030 A 
ATOM     10  C   UNL d   1      27.414 -10.695   1.221  0.00  0.00     0.032 A 
ATOM     11  C   UNL d   1      26.745  -9.490   1.053  0.00  0.00     0.039 A 
ATOM     12  C   UNL d   1      26.348  -8.761   2.166  0.00  0.00     0.068 A 
ATOM     13  C   UNL d   1      26.690  -9.208   3.442  0.00  0.00     0.039 A 
ATOM     14  C   UNL d   1      27.386 -10.411   3.602  0.00  0.00     0.032 A 
BRANCH  12  15
ATOM     15  O   UNL d   1      25.530  -7.701   1.906  0.00  0.00    -0.356 OA
ATOM     16  C   UNL d   1      25.434  -7.320   0.540  0.00  0.00     0.210 C 
ENDBRANCH  12  15
ENDBRANCH   5   9
ENDBRANCH   1   2
BRANCH   1  17
ATOM     17  C   UNL d   1      27.120 -16.728  -0.249  0.00  0.00     0.043 C 
ATOM     18  C   UNL d   1      26.399 -17.752   0.298  0.00  0.00     0.028 C 
ATOM     19  C   UNL d   1      24.978 -18.010  -0.014  0.00  0.00    -0.014 C 
ATOM     20  C   UNL d   1      23.949 -18.575   0.783  0.00  0.00     0.035 C 
ATOM     21  C   UNL d   1      24.639 -17.608  -1.289  0.00  0.00     0.028 C 
ATOM     22  C   UNL d   1      22.611 -18.473   0.314  0.00  0.00     0.171 C 
ATOM     23  C   UNL d   1      22.367 -17.505  -0.612  0.00  0.00     0.093 C 
ATOM     24  O   UNL d   1      21.833 -19.565  -0.308  0.00  0.00    -0.341 OA
ATOM     25  C   UNL d   1      23.318 -17.453  -1.620  0.00  0.00     0.060 C 
ATOM     26  O   UNL d   1      21.030 -17.448  -0.926  0.00  0.00    -0.327 OA
ATOM     27  C   UNL d   1      20.962 -18.820  -1.270  0.00  0.00     0.346 C 
ATOM     28  N   UNL d   1      25.624 -17.041  -2.114  0.00  0.00    -0.224 NA
ATOM     29  C   UNL d   1      26.383 -16.098  -1.414  0.00  0.00     0.234 C 
ATOM     30  H   UNL d   1      25.282 -16.704  -3.007  0.00  0.00     0.137 HD
ATOM     31  O   UNL d   1      26.334 -14.938  -1.652  0.00  0.00    -0.274 OA
ENDBRANCH   1  17
BRANCH   1  32
ATOM     32  C   UNL d   1      29.642 -16.205  -1.378  0.00  0.00     0.184 C 
ATOM     33  N   UNL d   1      29.245 -15.768  -2.566  0.00  0.00    -0.111 NA
ATOM     34  N   UNL d   1      30.296 -15.783  -3.444  0.00  0.00    -0.023 NA
ATOM     35  N   UNL d   1      31.356 -16.312  -2.882  0.00  0.00    -0.043 NA
ATOM     36  N   UNL d   1      30.954 -16.690  -1.665  0.00  0.00    -0.223 N 
BRANCH  36  37
ATOM     37  C   UNL d   1      31.942 -17.373  -0.838  0.00  0.00     0.048 C 
ATOM     38  C   UNL d   1      33.379 -17.446  -1.291  0.00  0.00     0.040 C 
ATOM     39  C   UNL d   1      31.728 -17.060   0.671  0.00  0.00     0.040 C 
ATOM     40  C   UNL d   1      31.658 -18.784  -1.087  0.00  0.00     0.040 C 
ENDBRANCH  36  37
ENDBRANCH   1  32
TORSDOF 6
ENDMDL
MODEL 6
REMARK VINA RESULT:   -10.155      4.370      8.212
REMARK INTER + INTRA:         -14.162
REMARK INTER:                 -11.945
REMARK INTRA:                  -2.217
REMARK CONF_INDEPENDENT:        1.790
REMARK UNBOUND:                -2.217
REMARK  6 active torsions:
REMARK  status: ('A' for Active; 'I' for Inactive)
REMARK    1  A    between atoms: O_2  and  C_3 
REMARK    2  A    between atoms: C_6  and  N_7 
REMARK    3  A    between atoms: N_10  and  C_11 
REMARK    4  A    between atoms: C_11  and  C_12 
REMARK    5  A    between atoms: C_11  and  C_26 
REMARK    6  A    between atoms: N_30  and  C_31 
ROOT
ATOM      1  C   UNL d   1      28.786 -16.140  -0.016  0.00  0.00     0.298 C 
ENDROOT
BRANCH   1   2
ATOM      2  N   UNL d   1      28.855 -15.015   1.412  0.00  0.00    -0.052 N 
ATOM      3  C   UNL d   1      29.587 -13.688   1.124  0.00  0.00     0.256 C 
ATOM      4  C   UNL d   1      29.627 -12.737   2.342  0.00  0.00     0.150 C 
ATOM      5  N   UNL d   1      28.321 -12.440   2.884  0.00  0.00    -0.378 N 
ATOM      6  C   UNL d   1      27.618 -13.589   3.340  0.00  0.00     0.150 C 
ATOM      7  C   UNL d   1      27.571 -14.481   2.141  0.00  0.00     0.256 C 
ATOM      8  H   UNL d   1      29.391 -15.575   2.079  0.00  0.00     0.281 HD
BRANCH   5   9
ATOM      9  C   UNL d   1      27.695 -11.225   2.887  0.00  0.00     0.030 A 
ATOM     10  C   UNL d   1      28.026 -10.301   3.886  0.00  0.00     0.032 A 
ATOM     11  C   UNL d   1      27.501  -9.016   3.889  0.00  0.00     0.039 A 
ATOM     12  C   UNL d   1      26.641  -8.621   2.873  0.00  0.00     0.068 A 
ATOM     13  C   UNL d   1      26.254  -9.541   1.900  0.00  0.00     0.039 A 
ATOM     14  C   UNL d   1      26.767 -10.842   1.919  0.00  0.00     0.032 A 
BRANCH  12  15
ATOM     15  O   UNL d   1      26.339  -7.291   2.852  0.00  0.00    -0.356 OA
ATOM     16  C   UNL d   1      26.553  -6.632   1.611  0.00  0.00     0.210 C 
ENDBRANCH  12  15
ENDBRANCH   5   9
ENDBRANCH   1   2
BRANCH   1  17
ATOM     17  C   UNL d   1      27.347 -16.770  -0.103  0.00  0.00     0.043 C 
ATOM     18  C   UNL d   1      26.170 -16.148  -0.412  0.00  0.00     0.028 C 
ATOM     19  C   UNL d   1      24.865 -16.841  -0.459  0.00  0.00    -0.014 C 
ATOM     20  C   UNL d   1      23.717 -16.585  -1.251  0.00  0.00     0.035 C 
ATOM     21  C   UNL d   1      24.806 -17.909   0.412  0.00  0.00     0.028 C 
ATOM     22  C   UNL d   1      22.689 -17.567  -1.270  0.00  0.00     0.171 C 
ATOM     23  C   UNL d   1      23.047 -18.825  -0.890  0.00  0.00     0.093 C 
ATOM     24  O   UNL d   1      21.405 -17.481  -0.543  0.00  0.00    -0.341 OA
ATOM     25  C   UNL d   1      23.826 -18.853   0.256  0.00  0.00     0.060 C 
ATOM     26  O   UNL d   1      21.996 -19.700  -1.028  0.00  0.00    -0.327 OA
ATOM     27  C   UNL d   1      21.124 -18.917  -0.232  0.00  0.00     0.346 C 
ATOM     28  N   UNL d   1      25.921 -18.201   1.215  0.00  0.00    -0.224 NA
ATOM     29  C   UNL d   1      27.103 -18.153   0.470  0.00  0.00     0.234 C 
ATOM     30  H   UNL d   1      25.827 -19.042   1.773  0.00  0.00     0.137 HD
ATOM     31  O   UNL d   1      27.744 -19.120   0.230  0.00  0.00    -0.274 OA
ENDBRANCH   1  17
BRANCH   1  32
ATOM     32  C   UNL d   1      29.542 -15.694  -1.492  0.00  0.00     0.184 C 
ATOM     33  N   UNL d   1      30.841 -15.788  -1.740  0.00  0.00    -0.111 NA
ATOM     34  N   UNL d   1      31.110 -15.335  -3.003  0.00  0.00    -0.023 NA
ATOM     35  N   UNL d   1      30.024 -14.853  -3.559  0.00  0.00    -0.043 NA
ATOM     36  N   UNL d   1      29.080 -14.946  -2.618  0.00  0.00    -0.223 N 
BRANCH  36  37
ATOM     37  C   UNL d   1      27.767 -14.415  -2.962  0.00  0.00     0.048 C 
ATOM     38  C   UNL d   1      26.698 -15.340  -3.489  0.00  0.00     0.040 C 
ATOM     39  C   UNL d   1      27.291 -13.365  -1.915  0.00  0.00     0.040 C 
ATOM     40  C   UNL d   1      28.005 -13.753  -4.241  0.00  0.00     0.040 C 
ENDBRANCH  36  37
ENDBRANCH   1  32
TORSDOF 6
ENDMDL
MODEL 7
REMARK VINA RESULT:   -10.094      2.624      3.657
REMARK INTER + INTRA:         -13.796
REMARK INTER:                 -11.884
REMARK INTRA:                  -1.912
REMARK CONF_INDEPENDENT:        1.790
REMARK UNBOUND:                -1.912
REMARK  6 active torsions:
REMARK  status: ('A' for Active; 'I' for Inactive)
REMARK    1  A    between atoms: O_2  and  C_3 
REMARK    2  A    between atoms: C_6  and  N_7 
REMARK    3  A    between atoms: N_10  and  C_11 
REMARK    4  A    between atoms: C_11  and  C_12 
REMARK    5  A    between atoms: C_11  and  C_26 
REMARK    6  A    between atoms: N_30  and  C_31 
ROOT
ATOM      1  C   UNL d   1      28.327 -14.426  -3.699  0.00  0.00     0.298 C 
ENDROOT
BRANCH   1   2
ATOM      2  N   UNL d   1      27.642 -15.160  -2.181  0.00  0.00    -0.052 N 
ATOM      3  C   UNL d   1      26.310 -14.529  -1.731  0.00  0.00     0.256 C 
ATOM      4  C   UNL d   1      25.733 -15.170  -0.448  0.00  0.00     0.150 C 
ATOM      5  N   UNL d   1      25.561 -16.602  -0.548  0.00  0.00    -0.378 N 
ATOM      6  C   UNL d   1      26.770 -17.306  -0.798  0.00  0.00     0.150 C 
ATOM      7  C   UNL d   1      27.294 -16.685  -2.054  0.00  0.00     0.256 C 
ATOM      8  H   UNL d   1      28.380 -14.943  -1.507  0.00  0.00     0.281 HD
BRANCH   5   9
ATOM      9  C   UNL d   1      24.376 -17.284  -0.537  0.00  0.00     0.030 A 
ATOM     10  C   UNL d   1      23.193 -16.580  -0.793  0.00  0.00     0.032 A 
ATOM     11  C   UNL d   1      21.969 -17.229  -0.893  0.00  0.00     0.039 A 
ATOM     12  C   UNL d   1      21.909 -18.610  -0.756  0.00  0.00     0.068 A 
ATOM     13  C   UNL d   1      23.065 -19.324  -0.445  0.00  0.00     0.039 A 
ATOM     14  C   UNL d   1      24.290 -18.659  -0.320  0.00  0.00     0.032 A 
BRANCH  12  15
ATOM     15  O   UNL d   1      20.706 -19.172  -1.066  0.00  0.00    -0.356 OA
ATOM     16  C   UNL d   1      20.101 -19.939  -0.034  0.00  0.00     0.210 C 
ENDBRANCH  12  15
ENDBRANCH   5   9
ENDBRANCH   1   2
BRANCH   1  17
ATOM     17  C   UNL d   1      28.987 -15.561  -4.565  0.00  0.00     0.043 C 
ATOM     18  C   UNL d   1      29.796 -16.580  -4.147  0.00  0.00     0.028 C 
ATOM     19  C   UNL d   1      30.371 -17.595  -5.054  0.00  0.00    -0.014 C 
ATOM     20  C   UNL d   1      30.711 -18.952  -4.819  0.00  0.00     0.035 C 
ATOM     21  C   UNL d   1      30.579 -17.104  -6.326  0.00  0.00     0.028 C 
ATOM     22  C   UNL d   1      31.013 -19.768  -5.943  0.00  0.00     0.171 C 
ATOM     23  C   UNL d   1      30.554 -19.330  -7.148  0.00  0.00     0.093 C 
ATOM     24  O   UNL d   1      32.367 -20.181  -6.366  0.00  0.00    -0.341 OA
ATOM     25  C   UNL d   1      30.774 -17.978  -7.364  0.00  0.00     0.060 C 
ATOM     26  O   UNL d   1      30.833 -20.238  -8.142  0.00  0.00    -0.327 OA
ATOM     27  C   UNL d   1      32.220 -20.261  -7.853  0.00  0.00     0.346 C 
ATOM     28  N   UNL d   1      30.255 -15.766  -6.607  0.00  0.00    -0.224 NA
ATOM     29  C   UNL d   1      29.005 -15.430  -6.076  0.00  0.00     0.234 C 
ATOM     30  H   UNL d   1      30.367 -15.502  -7.579  0.00  0.00     0.137 HD
ATOM     31  O   UNL d   1      28.065 -15.199  -6.758  0.00  0.00    -0.274 OA
ENDBRANCH   1  17
BRANCH   1  32
ATOM     32  C   UNL d   1      27.445 -13.210  -4.532  0.00  0.00     0.184 C 
ATOM     33  N   UNL d   1      26.128 -13.058  -4.483  0.00  0.00    -0.111 NA
ATOM     34  N   UNL d   1      25.750 -12.006  -5.273  0.00  0.00    -0.023 NA
ATOM     35  N   UNL d   1      26.784 -11.521  -5.918  0.00  0.00    -0.043 NA
ATOM     36  N   UNL d   1      27.807 -12.311  -5.581  0.00  0.00    -0.223 N 
BRANCH  36  37
ATOM     37  C   UNL d   1      29.087 -12.024  -6.218  0.00  0.00     0.048 C 
ATOM     38  C   UNL d   1      30.366 -12.520  -5.590  0.00  0.00     0.040 C 
ATOM     39  C   UNL d   1      28.994 -12.175  -7.764  0.00  0.00     0.040 C 
ATOM     40  C   UNL d   1      29.314 -10.622  -5.879  0.00  0.00     0.040 C 
ENDBRANCH  36  37
ENDBRANCH   1  32
TORSDOF 6
ENDMDL
MODEL 8
REMARK VINA RESULT:   -10.054      3.740      6.370
REMARK INTER + INTRA:         -14.031
REMARK INTER:                 -11.844
REMARK INTRA:                  -2.188
REMARK CONF_INDEPENDENT:        1.790
REMARK UNBOUND:                -2.188
REMARK  6 active torsions:
REMARK  status: ('A' for Active; 'I' for Inactive)
REMARK    1  A    between atoms: O_2  and  C_3 
REMARK    2  A    between atoms: C_6  and  N_7 
REMARK    3  A    between atoms: N_10  and  C_11 
REMARK    4  A    between atoms: C_11  and  C_12 
REMARK    5  A    between atoms: C_11  and  C_26 
REMARK    6  A    between atoms: N_30  and  C_31 
ROOT
ATOM      1  C   UNL d   1      28.236 -14.536  -3.569  0.00  0.00     0.298 C 
ENDROOT
BRANCH   1   2
ATOM      2  N   UNL d   1      29.239 -14.253  -2.079  0.00  0.00    -0.052 N 
ATOM      3  C   UNL d   1      28.804 -13.022  -1.259  0.00  0.00     0.256 C 
ATOM      4  C   UNL d   1      29.656 -12.801   0.011  0.00  0.00     0.150 C 
ATOM      5  N   UNL d   1      29.696 -13.952   0.884  0.00  0.00    -0.378 N 
ATOM      6  C   UNL d   1      30.244 -15.113   0.274  0.00  0.00     0.150 C 
ATOM      7  C   UNL d   1      29.388 -15.319  -0.936  0.00  0.00     0.256 C 
ATOM      8  H   UNL d   1      30.163 -14.094  -2.489  0.00  0.00     0.281 HD
BRANCH   5   9
ATOM      9  C   UNL d   1      29.173 -14.039   2.144  0.00  0.00     0.030 A 
ATOM     10  C   UNL d   1      30.011 -14.436   3.194  0.00  0.00     0.032 A 
ATOM     11  C   UNL d   1      29.569 -14.450   4.510  0.00  0.00     0.039 A 
ATOM     12  C   UNL d   1      28.273 -14.045   4.806  0.00  0.00     0.068 A 
ATOM     13  C   UNL d   1      27.405 -13.700   3.771  0.00  0.00     0.039 A 
ATOM     14  C   UNL d   1      27.850 -13.713   2.446  0.00  0.00     0.032 A 
BRANCH  12  15
ATOM     15  O   UNL d   1      27.998 -13.904   6.134  0.00  0.00    -0.356 OA
ATOM     16  C   UNL d   1      29.108 -14.042   7.010  0.00  0.00     0.210 C 
ENDBRANCH  12  15
ENDBRANCH   5   9
ENDBRANCH   1   2
BRANCH   1  17
ATOM     17  C   UNL d   1      28.910 -15.664  -4.435  0.00  0.00     0.043 C 
ATOM     18  C   UNL d   1      29.660 -16.723  -4.006  0.00  0.00     0.028 C 
ATOM     19  C   UNL d   1      30.255 -17.726  -4.914  0.00  0.00    -0.014 C 
ATOM     20  C   UNL d   1      30.537 -19.101  -4.706  0.00  0.00     0.035 C 
ATOM     21  C   UNL d   1      30.553 -17.201  -6.154  0.00  0.00     0.028 C 
ATOM     22  C   UNL d   1      30.878 -19.889  -5.838  0.00  0.00     0.171 C 
ATOM     23  C   UNL d   1      30.505 -19.397  -7.052  0.00  0.00     0.093 C 
ATOM     24  O   UNL d   1      32.241 -20.334  -6.197  0.00  0.00    -0.341 OA
ATOM     25  C   UNL d   1      30.780 -18.047  -7.208  0.00  0.00     0.060 C 
ATOM     26  O   UNL d   1      30.813 -20.281  -8.059  0.00  0.00    -0.327 OA
ATOM     27  C   UNL d   1      32.178 -20.361  -7.691  0.00  0.00     0.346 C 
ATOM     28  N   UNL d   1      30.288 -15.845  -6.406  0.00  0.00    -0.224 NA
ATOM     29  C   UNL d   1      29.021 -15.485  -5.937  0.00  0.00     0.234 C 
ATOM     30  H   UNL d   1      30.466 -15.553  -7.360  0.00  0.00     0.137 HD
ATOM     31  O   UNL d   1      28.130 -15.200  -6.664  0.00  0.00    -0.274 OA
ENDBRANCH   1  17
BRANCH   1  32
ATOM     32  C   UNL d   1      26.523 -14.547  -3.456  0.00  0.00     0.184 C 
ATOM     33  N   UNL d   1      25.704 -13.867  -4.248  0.00  0.00    -0.111 NA
ATOM     34  N   UNL d   1      24.405 -14.087  -3.876  0.00  0.00    -0.023 NA
ATOM     35  N   UNL d   1      24.356 -14.825  -2.793  0.00  0.00    -0.043 NA
ATOM     36  N   UNL d   1      25.631 -15.018  -2.444  0.00  0.00    -0.223 N 
BRANCH  36  37
ATOM     37  C   UNL d   1      25.862 -15.770  -1.217  0.00  0.00     0.048 C 
ATOM     38  C   UNL d   1      26.617 -17.075  -1.268  0.00  0.00     0.040 C 
ATOM     39  C   UNL d   1      26.232 -14.825  -0.037  0.00  0.00     0.040 C 
ATOM     40  C   UNL d   1      24.562 -16.384  -0.959  0.00  0.00     0.040 C 
ENDBRANCH  36  37
ENDBRANCH   1  32
TORSDOF 6
ENDMDL
MODEL 9
REMARK VINA RESULT:    -9.849      5.748      9.329
REMARK INTER + INTRA:         -14.007
REMARK INTER:                 -11.639
REMARK INTRA:                  -2.368
REMARK CONF_INDEPENDENT:        1.790
REMARK UNBOUND:                -2.368
REMARK  6 active torsions:
REMARK  status: ('A' for Active; 'I' for Inactive)
REMARK    1  A    between atoms: O_2  and  C_3 
REMARK    2  A    between atoms: C_6  and  N_7 
REMARK    3  A    between atoms: N_10  and  C_11 
REMARK    4  A    between atoms: C_11  and  C_12 
REMARK    5  A    between atoms: C_11  and  C_26 
REMARK    6  A    between atoms: N_30  and  C_31 
ROOT
ATOM      1  C   UNL d   1      28.582 -14.607   0.307  0.00  0.00     0.298 C 
ENDROOT
BRANCH   1   2
ATOM      2  N   UNL d   1      28.963 -14.825   2.072  0.00  0.00    -0.052 N 
ATOM      3  C   UNL d   1      30.103 -13.919   2.579  0.00  0.00     0.256 C 
ATOM      4  C   UNL d   1      30.407 -14.106   4.083  0.00  0.00     0.150 C 
ATOM      5  N   UNL d   1      29.252 -13.921   4.932  0.00  0.00    -0.378 N 
ATOM      6  C   UNL d   1      28.193 -14.828   4.658  0.00  0.00     0.150 C 
ATOM      7  C   UNL d   1      27.900 -14.611   3.207  0.00  0.00     0.256 C 
ATOM      8  H   UNL d   1      29.257 -15.805   2.091  0.00  0.00     0.281 HD
BRANCH   5   9
ATOM      9  C   UNL d   1      29.063 -12.925   5.848  0.00  0.00     0.030 A 
ATOM     10  C   UNL d   1      29.079 -13.253   7.210  0.00  0.00     0.032 A 
ATOM     11  C   UNL d   1      28.992 -12.276   8.193  0.00  0.00     0.039 A 
ATOM     12  C   UNL d   1      28.905 -10.938   7.829  0.00  0.00     0.068 A 
ATOM     13  C   UNL d   1      28.831 -10.594   6.480  0.00  0.00     0.039 A 
ATOM     14  C   UNL d   1      28.894 -11.586   5.496  0.00  0.00     0.032 A 
BRANCH  12  15
ATOM     15  O   UNL d   1      29.025 -10.048   8.855  0.00  0.00    -0.356 OA
ATOM     16  C   UNL d   1      30.186  -9.230   8.825  0.00  0.00     0.210 C 
ENDBRANCH  12  15
ENDBRANCH   5   9
ENDBRANCH   1   2
BRANCH   1  17
ATOM     17  C   UNL d   1      27.235 -15.352  -0.024  0.00  0.00     0.043 C 
ATOM     18  C   UNL d   1      26.867 -16.622   0.322  0.00  0.00     0.028 C 
ATOM     19  C   UNL d   1      25.571 -17.228  -0.049  0.00  0.00    -0.014 C 
ATOM     20  C   UNL d   1      24.785 -18.200   0.621  0.00  0.00     0.035 C 
ATOM     21  C   UNL d   1      25.078 -16.726  -1.236  0.00  0.00     0.028 C 
ATOM     22  C   UNL d   1      23.457 -18.416   0.161  0.00  0.00     0.171 C 
ATOM     23  C   UNL d   1      22.904 -17.416  -0.579  0.00  0.00     0.093 C 
ATOM     24  O   UNL d   1      23.007 -19.561  -0.656  0.00  0.00    -0.341 OA
ATOM     25  C   UNL d   1      23.757 -16.911  -1.550  0.00  0.00     0.060 C 
ATOM     26  O   UNL d   1      21.597 -17.701  -0.895  0.00  0.00    -0.327 OA
ATOM     27  C   UNL d   1      21.918 -18.950  -1.480  0.00  0.00     0.346 C 
ATOM     28  N   UNL d   1      25.820 -15.760  -1.933  0.00  0.00    -0.224 NA
ATOM     29  C   UNL d   1      26.300 -14.772  -1.066  0.00  0.00     0.234 C 
ATOM     30  H   UNL d   1      25.359 -15.388  -2.756  0.00  0.00     0.137 HD
ATOM     31  O   UNL d   1      25.905 -13.656  -1.093  0.00  0.00    -0.274 OA
ENDBRANCH   1  17
BRANCH   1  32
ATOM     32  C   UNL d   1      28.843 -13.083  -0.441  0.00  0.00     0.184 C 
ATOM     33  N   UNL d   1      29.581 -12.885  -1.525  0.00  0.00    -0.111 NA
ATOM     34  N   UNL d   1      29.592 -11.554  -1.846  0.00  0.00    -0.023 NA
ATOM     35  N   UNL d   1      28.952 -10.857  -0.938  0.00  0.00    -0.043 NA
ATOM     36  N   UNL d   1      28.590 -11.745  -0.008  0.00  0.00    -0.223 N 
BRANCH  36  37
ATOM     37  C   UNL d   1      27.903 -11.216   1.164  0.00  0.00     0.048 C 
ATOM     38  C   UNL d   1      26.676 -11.915   1.694  0.00  0.00     0.040 C 
ATOM     39  C   UNL d   1      28.916 -10.727   2.239  0.00  0.00     0.040 C 
ATOM     40  C   UNL d   1      27.174 -10.070   0.626  0.00  0.00     0.040 C 
ENDBRANCH  36  37
ENDBRANCH   1  32
TORSDOF 6
ENDMDL
