MODEL 1
REMARK VINA RESULT:    -9.436      0.000      0.000
REMARK INTER + INTRA:         -11.868
REMARK INTER:                 -11.226
REMARK INTRA:                  -0.643
REMARK CONF_INDEPENDENT:        1.790
REMARK UNBOUND:                -0.643
REMARK  6 active torsions:
REMARK  status: ('A' for Active; 'I' for Inactive)
REMARK    1  A    between atoms: C_2  and  N_4 
REMARK       I    between atoms: N_4  and  C_5 
REMARK       I    between atoms: C_5  and  N_7 
REMARK    2  A    between atoms: N_7  and  C_8 
REMARK    3  A    between atoms: C_11  and  N_12 
REMARK       I    between atoms: N_12  and  C_13 
REMARK    4  A    between atoms: C_13  and  C_15 
REMARK    5  A    between atoms: C_15  and  N_16 
REMARK    6  A    between atoms: C_21  and  N_22 
ROOT
ATOM      1  N   UNL d   1      28.141 -15.161   2.763  0.00  0.00    -0.326 N 
ATOM      2  C   UNL d   1      28.102 -14.667   1.313  0.00  0.00     0.250 C 
ATOM      3  O   UNL d   1      28.295 -13.475   1.098  0.00  0.00    -0.271 OA
ATOM      4  H   UNL d   1      28.100 -16.153   2.970  0.00  0.00     0.169 HD
ENDROOT
BRANCH   1   5
ATOM      5  C   UNL d   1      28.196 -14.321   4.072  0.00  0.00     0.034 A 
ATOM      6  C   UNL d   1      27.878 -12.916   4.182  0.00  0.00     0.032 A 
ATOM      7  C   UNL d   1      28.109 -12.118   5.399  0.00  0.00     0.032 A 
ATOM      8  C   UNL d   1      28.624 -12.704   6.559  0.00  0.00     0.036 A 
ATOM      9  C   UNL d   1      28.857 -14.078   6.472  0.00  0.00     0.032 A 
ATOM     10  C   UNL d   1      28.633 -14.853   5.285  0.00  0.00     0.032 A 
BRANCH   8  11
ATOM     11  N   UNL d   1      28.857 -12.001   7.800  0.00  0.00    -0.309 N 
ATOM     12  C   UNL d   1      28.812 -12.656   9.030  0.00  0.00     0.321 C 
ATOM     13  N   UNL d   1      28.922 -11.848  10.155  0.00  0.00    -0.339 N 
ATOM     14  O   UNL d   1      28.691 -13.870   9.139  0.00  0.00    -0.247 OA
ATOM     15  H   UNL d   1      29.077 -10.856  10.075  0.00  0.00     0.164 HD
ATOM     16  H   UNL d   1      29.210 -11.055   7.768  0.00  0.00     0.170 HD
BRANCH  13  17
ATOM     17  C   UNL d   1      28.889 -12.454  11.507  0.00  0.00     0.078 C 
ATOM     18  C   UNL d   1      27.776 -13.497  11.673  0.00  0.00     0.032 C 
ATOM     19  C   UNL d   1      30.223 -13.125  11.859  0.00  0.00     0.032 C 
ENDBRANCH  13  17
ENDBRANCH   8  11
ENDBRANCH   1   5
BRANCH   2  20
ATOM     20  C   UNL d   1      27.805 -15.810  -0.067  0.00  0.00     0.377 C 
BRANCH  20  21
ATOM     21  N   UNL d   1      26.291 -16.610  -0.521  0.00  0.00     0.129 NA
ATOM     22  C   UNL d   1      26.054 -17.410   0.610  0.00  0.00     0.286 C 
ATOM     23  C   UNL d   1      25.726 -18.442  -0.214  0.00  0.00     0.021 C 
ATOM     24  C   UNL d   1      24.474 -17.961  -0.543  0.00  0.00    -0.012 A 
ATOM     25  C   UNL d   1      23.306 -18.863  -0.489  0.00  0.00     0.046 A 
ATOM     26  C   UNL d   1      24.667 -16.345  -0.812  0.00  0.00     0.249 A 
ATOM     27  C   UNL d   1      21.986 -18.594  -0.674  0.00  0.00     0.103 A 
ATOM     28  C   UNL d   1      21.810 -17.264  -0.898  0.00  0.00     0.035 A 
ATOM     29  C   UNL d   1      23.065 -16.328  -0.994  0.00  0.00     0.025 A 
BRANCH  27  30
ATOM     30  N   UNL d   1      20.955 -19.681  -0.669  0.00  0.00    -0.116 N 
ATOM     31  O   UNL d   1      20.287 -19.831  -1.736  0.00  0.00    -0.532 OA
ATOM     32  O   UNL d   1      20.773 -20.348   0.336  0.00  0.00    -0.532 OA
ENDBRANCH  27  30
ENDBRANCH  20  21
ENDBRANCH   2  20
TORSDOF 6
ENDMDL
MODEL 2
REMARK VINA RESULT:    -9.006      7.593     11.485
REMARK INTER + INTRA:         -11.638
REMARK INTER:                 -10.796
REMARK INTRA:                  -0.842
REMARK CONF_INDEPENDENT:        1.790
REMARK UNBOUND:                -0.842
REMARK  6 active torsions:
REMARK  status: ('A' for Active; 'I' for Inactive)
REMARK    1  A    between atoms: C_2  and  N_4 
REMARK       I    between atoms: N_4  and  C_5 
REMARK       I    between atoms: C_5  and  N_7 
REMARK    2  A    between atoms: N_7  and  C_8 
REMARK    3  A    between atoms: C_11  and  N_12 
REMARK       I    between atoms: N_12  and  C_13 
REMARK    4  A    between atoms: C_13  and  C_15 
REMARK    5  A    between atoms: C_15  and  N_16 
REMARK    6  A    between atoms: C_21  and  N_22 
ROOT
ATOM      1  N   UNL d   1      26.577 -14.855  -2.797  0.00  0.00    -0.326 N 
ATOM      2  C   UNL d   1      26.253 -14.335  -4.201  0.00  0.00     0.250 C 
ATOM      3  O   UNL d   1      25.126 -14.521  -4.647  0.00  0.00    -0.271 OA
ATOM      4  H   UNL d   1      27.458 -14.622  -2.352  0.00  0.00     0.169 HD
ENDROOT
BRANCH   1   5
ATOM      5  C   UNL d   1      25.726 -15.790  -1.890  0.00  0.00     0.034 A 
ATOM      6  C   UNL d   1      26.218 -16.950  -1.181  0.00  0.00     0.032 A 
ATOM      7  C   UNL d   1      25.348 -17.907  -0.476  0.00  0.00     0.032 A 
ATOM      8  C   UNL d   1      23.965 -17.717  -0.418  0.00  0.00     0.036 A 
ATOM      9  C   UNL d   1      23.503 -16.555  -1.037  0.00  0.00     0.032 A 
ATOM     10  C   UNL d   1      24.351 -15.625  -1.725  0.00  0.00     0.032 A 
BRANCH   8  11
ATOM     11  N   UNL d   1      23.044 -18.592   0.273  0.00  0.00    -0.309 N 
ATOM     12  C   UNL d   1      21.911 -19.105  -0.357  0.00  0.00     0.321 C 
ATOM     13  N   UNL d   1      21.038 -19.825   0.449  0.00  0.00    -0.339 N 
ATOM     14  O   UNL d   1      21.680 -18.950  -1.550  0.00  0.00    -0.247 OA
ATOM     15  H   UNL d   1      21.247 -20.004   1.418  0.00  0.00     0.164 HD
ATOM     16  H   UNL d   1      23.306 -18.962   1.175  0.00  0.00     0.170 HD
BRANCH  13  17
ATOM     17  C   UNL d   1      19.809 -20.412  -0.132  0.00  0.00     0.078 C 
ATOM     18  C   UNL d   1      18.895 -21.059   0.917  0.00  0.00     0.032 C 
ATOM     19  C   UNL d   1      18.987 -19.364  -0.895  0.00  0.00     0.032 C 
ENDBRANCH  13  17
ENDBRANCH   8  11
ENDBRANCH   1   5
BRANCH   2  20
ATOM     20  C   UNL d   1      27.490 -13.439  -5.185  0.00  0.00     0.377 C 
BRANCH  20  21
ATOM     21  N   UNL d   1      29.032 -14.041  -5.820  0.00  0.00     0.129 NA
ATOM     22  C   UNL d   1      28.615 -15.200  -6.497  0.00  0.00     0.286 C 
ATOM     23  C   UNL d   1      29.674 -15.867  -5.965  0.00  0.00     0.021 C 
ATOM     24  C   UNL d   1      30.619 -15.316  -6.808  0.00  0.00    -0.012 A 
ATOM     25  C   UNL d   1      31.602 -16.192  -7.477  0.00  0.00     0.046 A 
ATOM     26  C   UNL d   1      30.256 -13.711  -6.907  0.00  0.00     0.249 A 
ATOM     27  C   UNL d   1      32.549 -15.892  -8.406  0.00  0.00     0.103 A 
ATOM     28  C   UNL d   1      32.477 -14.574  -8.734  0.00  0.00     0.035 A 
ATOM     29  C   UNL d   1      31.456 -13.650  -7.983  0.00  0.00     0.025 A 
BRANCH  27  30
ATOM     30  N   UNL d   1      33.522 -16.921  -8.897  0.00  0.00    -0.116 N 
ATOM     31  O   UNL d   1      33.047 -17.846  -9.621  0.00  0.00    -0.532 OA
ATOM     32  O   UNL d   1      34.696 -16.859  -8.572  0.00  0.00    -0.532 OA
ENDBRANCH  27  30
ENDBRANCH  20  21
ENDBRANCH   2  20
TORSDOF 6
ENDMDL
MODEL 3
REMARK VINA RESULT:    -8.939      2.060      2.312
REMARK INTER + INTRA:         -11.595
REMARK INTER:                 -10.728
REMARK INTRA:                  -0.867
REMARK CONF_INDEPENDENT:        1.790
REMARK UNBOUND:                -0.867
REMARK  6 active torsions:
REMARK  status: ('A' for Active; 'I' for Inactive)
REMARK    1  A    between atoms: C_2  and  N_4 
REMARK       I    between atoms: N_4  and  C_5 
REMARK       I    between atoms: C_5  and  N_7 
REMARK    2  A    between atoms: N_7  and  C_8 
REMARK    3  A    between atoms: C_11  and  N_12 
REMARK       I    between atoms: N_12  and  C_13 
REMARK    4  A    between atoms: C_13  and  C_15 
REMARK    5  A    between atoms: C_15  and  N_16 
REMARK    6  A    between atoms: C_21  and  N_22 
ROOT
ATOM      1  N   UNL d   1      28.129 -14.991   3.044  0.00  0.00    -0.326 N 
ATOM      2  C   UNL d   1      27.928 -14.662   1.561  0.00  0.00     0.250 C 
ATOM      3  O   UNL d   1      27.919 -13.483   1.220  0.00  0.00    -0.271 OA
ATOM      4  H   UNL d   1      28.256 -15.950   3.346  0.00  0.00     0.169 HD
ENDROOT
BRANCH   1   5
ATOM      5  C   UNL d   1      28.127 -14.020   4.260  0.00  0.00     0.034 A 
ATOM      6  C   UNL d   1      27.791 -12.615   4.214  0.00  0.00     0.032 A 
ATOM      7  C   UNL d   1      27.970 -11.694   5.349  0.00  0.00     0.032 A 
ATOM      8  C   UNL d   1      28.448 -12.150   6.580  0.00  0.00     0.036 A 
ATOM      9  C   UNL d   1      28.697 -13.522   6.644  0.00  0.00     0.032 A 
ATOM     10  C   UNL d   1      28.525 -14.418   5.536  0.00  0.00     0.032 A 
BRANCH   8  11
ATOM     11  N   UNL d   1      28.628 -11.320   7.750  0.00  0.00    -0.309 N 
ATOM     12  C   UNL d   1      29.399 -10.159   7.711  0.00  0.00     0.321 C 
ATOM     13  N   UNL d   1      29.603  -9.521   8.928  0.00  0.00    -0.339 N 
ATOM     14  O   UNL d   1      29.872  -9.704   6.677  0.00  0.00    -0.247 OA
ATOM     15  H   UNL d   1      29.172  -9.857   9.775  0.00  0.00     0.164 HD
ATOM     16  H   UNL d   1      28.063 -11.499   8.568  0.00  0.00     0.170 HD
BRANCH  13  17
ATOM     17  C   UNL d   1      30.405  -8.277   8.986  0.00  0.00     0.078 C 
ATOM     18  C   UNL d   1      29.685  -7.066   8.378  0.00  0.00     0.032 C 
ATOM     19  C   UNL d   1      30.797  -7.922  10.426  0.00  0.00     0.032 C 
ENDBRANCH  13  17
ENDBRANCH   8  11
ENDBRANCH   1   5
BRANCH   2  20
ATOM     20  C   UNL d   1      27.735 -15.974   0.320  0.00  0.00     0.377 C 
BRANCH  20  21
ATOM     21  N   UNL d   1      26.236 -16.715  -0.268  0.00  0.00     0.129 NA
ATOM     22  C   UNL d   1      25.943 -17.607   0.779  0.00  0.00     0.286 C 
ATOM     23  C   UNL d   1      25.644 -18.560  -0.145  0.00  0.00     0.021 C 
ATOM     24  C   UNL d   1      24.412 -18.038  -0.485  0.00  0.00    -0.012 A 
ATOM     25  C   UNL d   1      23.235 -18.927  -0.560  0.00  0.00     0.046 A 
ATOM     26  C   UNL d   1      24.629 -16.407  -0.605  0.00  0.00     0.249 A 
ATOM     27  C   UNL d   1      21.927 -18.628  -0.780  0.00  0.00     0.103 A 
ATOM     28  C   UNL d   1      21.771 -17.282  -0.895  0.00  0.00     0.035 A 
ATOM     29  C   UNL d   1      23.036 -16.356  -0.855  0.00  0.00     0.025 A 
BRANCH  27  30
ATOM     30  N   UNL d   1      20.888 -19.700  -0.914  0.00  0.00    -0.116 N 
ATOM     31  O   UNL d   1      20.299 -19.778  -2.033  0.00  0.00    -0.532 OA
ATOM     32  O   UNL d   1      20.627 -20.422   0.034  0.00  0.00    -0.532 OA
ENDBRANCH  27  30
ENDBRANCH  20  21
ENDBRANCH   2  20
TORSDOF 6
ENDMDL
MODEL 4
REMARK VINA RESULT:    -8.766      7.527     11.501
REMARK INTER + INTRA:         -11.223
REMARK INTER:                 -10.555
REMARK INTRA:                  -0.668
REMARK CONF_INDEPENDENT:        1.790
REMARK UNBOUND:                -0.668
REMARK  6 active torsions:
REMARK  status: ('A' for Active; 'I' for Inactive)
REMARK    1  A    between atoms: C_2  and  N_4 
REMARK       I    between atoms: N_4  and  C_5 
REMARK       I    between atoms: C_5  and  N_7 
REMARK    2  A    between atoms: N_7  and  C_8 
REMARK    3  A    between atoms: C_11  and  N_12 
REMARK       I    between atoms: N_12  and  C_13 
REMARK    4  A    between atoms: C_13  and  C_15 
REMARK    5  A    between atoms: C_15  and  N_16 
REMARK    6  A    between atoms: C_21  and  N_22 
ROOT
ATOM      1  N   UNL d   1      25.940 -14.786  -2.145  0.00  0.00    -0.326 N 
ATOM      2  C   UNL d   1      25.689 -14.139  -3.512  0.00  0.00     0.250 C 
ATOM      3  O   UNL d   1      24.660 -14.427  -4.114  0.00  0.00    -0.271 OA
ATOM      4  H   UNL d   1      26.719 -14.487  -1.570  0.00  0.00     0.169 HD
ENDROOT
BRANCH   1   5
ATOM      5  C   UNL d   1      25.157 -15.946  -1.465  0.00  0.00     0.034 A 
ATOM      6  C   UNL d   1      25.741 -17.162  -0.945  0.00  0.00     0.032 A 
ATOM      7  C   UNL d   1      24.949 -18.310  -0.468  0.00  0.00     0.032 A 
ATOM      8  C   UNL d   1      23.553 -18.267  -0.453  0.00  0.00     0.036 A 
ATOM      9  C   UNL d   1      22.996 -17.061  -0.882  0.00  0.00     0.032 A 
ATOM     10  C   UNL d   1      23.768 -15.945  -1.349  0.00  0.00     0.032 A 
BRANCH   8  11
ATOM     11  N   UNL d   1      22.703 -19.336   0.022  0.00  0.00    -0.309 N 
ATOM     12  C   UNL d   1      21.313 -19.229  -0.001  0.00  0.00     0.321 C 
ATOM     13  N   UNL d   1      20.612 -20.266   0.602  0.00  0.00    -0.339 N 
ATOM     14  O   UNL d   1      20.722 -18.292  -0.522  0.00  0.00    -0.247 OA
ATOM     15  H   UNL d   1      21.089 -21.068   0.984  0.00  0.00     0.164 HD
ATOM     16  H   UNL d   1      23.117 -20.233   0.229  0.00  0.00     0.170 HD
BRANCH  13  17
ATOM     17  C   UNL d   1      19.131 -20.244   0.624  0.00  0.00     0.078 C 
ATOM     18  C   UNL d   1      18.509 -21.633   0.818  0.00  0.00     0.032 C 
ATOM     19  C   UNL d   1      18.595 -19.326   1.730  0.00  0.00     0.032 C 
ENDBRANCH  13  17
ENDBRANCH   8  11
ENDBRANCH   1   5
BRANCH   2  20
ATOM     20  C   UNL d   1      26.864 -12.951  -4.224  0.00  0.00     0.377 C 
BRANCH  20  21
ATOM     21  N   UNL d   1      26.560 -11.282  -4.736  0.00  0.00     0.129 NA
ATOM     22  C   UNL d   1      25.902 -11.487  -5.961  0.00  0.00     0.286 C 
ATOM     23  C   UNL d   1      26.661 -10.500  -6.510  0.00  0.00     0.021 C 
ATOM     24  C   UNL d   1      25.964  -9.456  -5.935  0.00  0.00    -0.012 A 
ATOM     25  C   UNL d   1      25.545  -8.310  -6.766  0.00  0.00     0.046 A 
ATOM     26  C   UNL d   1      25.689  -9.904  -4.371  0.00  0.00     0.249 A 
ATOM     27  C   UNL d   1      24.782  -7.231  -6.444  0.00  0.00     0.103 A 
ATOM     28  C   UNL d   1      24.354  -7.332  -5.157  0.00  0.00     0.035 A 
ATOM     29  C   UNL d   1      24.844  -8.533  -4.277  0.00  0.00     0.025 A 
BRANCH  27  30
ATOM     30  N   UNL d   1      24.547  -6.117  -7.419  0.00  0.00    -0.116 N 
ATOM     31  O   UNL d   1      23.474  -6.172  -8.091  0.00  0.00    -0.532 OA
ATOM     32  O   UNL d   1      25.380  -5.236  -7.555  0.00  0.00    -0.532 OA
ENDBRANCH  27  30
ENDBRANCH  20  21
ENDBRANCH   2  20
TORSDOF 6
ENDMDL
MODEL 5
REMARK VINA RESULT:    -8.630      5.069     10.850
REMARK INTER + INTRA:         -11.133
REMARK INTER:                 -10.420
REMARK INTRA:                  -0.714
REMARK CONF_INDEPENDENT:        1.790
REMARK UNBOUND:                -0.714
REMARK  6 active torsions:
REMARK  status: ('A' for Active; 'I' for Inactive)
REMARK    1  A    between atoms: C_2  and  N_4 
REMARK       I    between atoms: N_4  and  C_5 
REMARK       I    between atoms: C_5  and  N_7 
REMARK    2  A    between atoms: N_7  and  C_8 
REMARK    3  A    between atoms: C_11  and  N_12 
REMARK       I    between atoms: N_12  and  C_13 
REMARK    4  A    between atoms: C_13  and  C_15 
REMARK    5  A    between atoms: C_15  and  N_16 
REMARK    6  A    between atoms: C_21  and  N_22 
ROOT
ATOM      1  N   UNL d   1      26.797 -14.891  -1.197  0.00  0.00    -0.326 N 
ATOM      2  C   UNL d   1      28.329 -14.910  -1.190  0.00  0.00     0.250 C 
ATOM      3  O   UNL d   1      28.899 -15.996  -1.191  0.00  0.00    -0.271 OA
ATOM      4  H   UNL d   1      26.294 -14.018  -1.311  0.00  0.00     0.169 HD
ENDROOT
BRANCH   1   5
ATOM      5  C   UNL d   1      25.812 -16.079  -0.998  0.00  0.00     0.034 A 
ATOM      6  C   UNL d   1      24.526 -16.222  -1.643  0.00  0.00     0.032 A 
ATOM      7  C   UNL d   1      23.550 -17.270  -1.297  0.00  0.00     0.032 A 
ATOM      8  C   UNL d   1      23.841 -18.235  -0.329  0.00  0.00     0.036 A 
ATOM      9  C   UNL d   1      25.114 -18.139   0.236  0.00  0.00     0.032 A 
ATOM     10  C   UNL d   1      26.062 -17.117  -0.101  0.00  0.00     0.032 A 
BRANCH   8  11
ATOM     11  N   UNL d   1      22.952 -19.310   0.052  0.00  0.00    -0.309 N 
ATOM     12  C   UNL d   1      21.566 -19.171  -0.016  0.00  0.00     0.321 C 
ATOM     13  N   UNL d   1      20.822 -20.225   0.499  0.00  0.00    -0.339 N 
ATOM     14  O   UNL d   1      21.014 -18.193  -0.504  0.00  0.00    -0.247 OA
ATOM     15  H   UNL d   1      21.267 -21.058   0.852  0.00  0.00     0.164 HD
ATOM     16  H   UNL d   1      23.339 -20.227   0.222  0.00  0.00     0.170 HD
BRANCH  13  17
ATOM     17  C   UNL d   1      19.342 -20.170   0.467  0.00  0.00     0.078 C 
ATOM     18  C   UNL d   1      18.783 -19.735  -0.894  0.00  0.00     0.032 C 
ATOM     19  C   UNL d   1      18.718 -21.526   0.824  0.00  0.00     0.032 C 
ENDBRANCH  13  17
ENDBRANCH   8  11
ENDBRANCH   1   5
BRANCH   2  20
ATOM     20  C   UNL d   1      29.293 -13.370  -1.209  0.00  0.00     0.377 C 
BRANCH  20  21
ATOM     21  N   UNL d   1      28.949 -11.851  -0.364  0.00  0.00     0.129 NA
ATOM     22  C   UNL d   1      27.569 -11.716  -0.594  0.00  0.00     0.286 C 
ATOM     23  C   UNL d   1      27.765 -10.399  -0.873  0.00  0.00     0.021 C 
ATOM     24  C   UNL d   1      27.918 -10.003   0.440  0.00  0.00    -0.012 A 
ATOM     25  C   UNL d   1      27.183  -8.824   0.940  0.00  0.00     0.046 A 
ATOM     26  C   UNL d   1      28.880 -11.142   1.147  0.00  0.00     0.249 A 
ATOM     27  C   UNL d   1      27.105  -8.311   2.197  0.00  0.00     0.103 A 
ATOM     28  C   UNL d   1      27.809  -9.091   3.061  0.00  0.00     0.035 A 
ATOM     29  C   UNL d   1      28.619 -10.314   2.507  0.00  0.00     0.025 A 
BRANCH  27  30
ATOM     30  N   UNL d   1      26.371  -7.036   2.481  0.00  0.00    -0.116 N 
ATOM     31  O   UNL d   1      26.678  -6.435   3.553  0.00  0.00    -0.532 OA
ATOM     32  O   UNL d   1      25.508  -6.642   1.714  0.00  0.00    -0.532 OA
ENDBRANCH  27  30
ENDBRANCH  20  21
ENDBRANCH   2  20
TORSDOF 6
ENDMDL
MODEL 6
REMARK VINA RESULT:    -8.129      4.147     11.094
REMARK INTER + INTRA:         -10.532
REMARK INTER:                  -9.919
REMARK INTRA:                  -0.613
REMARK CONF_INDEPENDENT:        1.790
REMARK UNBOUND:                -0.613
REMARK  6 active torsions:
REMARK  status: ('A' for Active; 'I' for Inactive)
REMARK    1  A    between atoms: C_2  and  N_4 
REMARK       I    between atoms: N_4  and  C_5 
REMARK       I    between atoms: C_5  and  N_7 
REMARK    2  A    between atoms: N_7  and  C_8 
REMARK    3  A    between atoms: C_11  and  N_12 
REMARK       I    between atoms: N_12  and  C_13 
REMARK    4  A    between atoms: C_13  and  C_15 
REMARK    5  A    between atoms: C_15  and  N_16 
REMARK    6  A    between atoms: C_21  and  N_22 
ROOT
ATOM      1  N   UNL d   1      26.012 -16.327  -0.462  0.00  0.00    -0.326 N 
ATOM      2  C   UNL d   1      27.195 -16.556   0.484  0.00  0.00     0.250 C 
ATOM      3  O   UNL d   1      27.180 -17.545   1.210  0.00  0.00    -0.271 OA
ATOM      4  H   UNL d   1      26.043 -15.587  -1.154  0.00  0.00     0.169 HD
ENDROOT
BRANCH   1   5
ATOM      5  C   UNL d   1      24.649 -17.076  -0.507  0.00  0.00     0.034 A 
ATOM      6  C   UNL d   1      24.476 -18.495  -0.719  0.00  0.00     0.032 A 
ATOM      7  C   UNL d   1      23.167 -19.137  -0.929  0.00  0.00     0.032 A 
ATOM      8  C   UNL d   1      21.985 -18.393  -0.892  0.00  0.00     0.036 A 
ATOM      9  C   UNL d   1      22.150 -17.036  -0.610  0.00  0.00     0.032 A 
ATOM     10  C   UNL d   1      23.426 -16.412  -0.408  0.00  0.00     0.032 A 
BRANCH   8  11
ATOM     11  N   UNL d   1      20.660 -18.948  -1.062  0.00  0.00    -0.309 N 
ATOM     12  C   UNL d   1      19.980 -19.553  -0.006  0.00  0.00     0.321 C 
ATOM     13  N   UNL d   1      18.774 -20.162  -0.327  0.00  0.00    -0.339 N 
ATOM     14  O   UNL d   1      20.397 -19.555   1.146  0.00  0.00    -0.247 OA
ATOM     15  H   UNL d   1      18.396 -20.118  -1.261  0.00  0.00     0.164 HD
ATOM     16  H   UNL d   1      20.157 -18.757  -1.916  0.00  0.00     0.170 HD
BRANCH  13  17
ATOM     17  C   UNL d   1      17.977 -20.828   0.729  0.00  0.00     0.078 C 
ATOM     18  C   UNL d   1      18.402 -22.281   0.980  0.00  0.00     0.032 C 
ATOM     19  C   UNL d   1      18.061 -20.074   2.063  0.00  0.00     0.032 C 
ENDBRANCH  13  17
ENDBRANCH   8  11
ENDBRANCH   1   5
BRANCH   2  20
ATOM     20  C   UNL d   1      28.609 -15.416   0.522  0.00  0.00     0.377 C 
BRANCH  20  21
ATOM     21  N   UNL d   1      28.647 -13.734   1.082  0.00  0.00     0.129 NA
ATOM     22  C   UNL d   1      27.458 -13.669   1.830  0.00  0.00     0.286 C 
ATOM     23  C   UNL d   1      27.190 -12.463   1.259  0.00  0.00     0.021 C 
ATOM     24  C   UNL d   1      28.095 -11.749   2.019  0.00  0.00    -0.012 A 
ATOM     25  C   UNL d   1      27.678 -10.486   2.660  0.00  0.00     0.046 A 
ATOM     26  C   UNL d   1      29.463 -12.669   2.076  0.00  0.00     0.249 A 
ATOM     27  C   UNL d   1      28.356  -9.674   3.515  0.00  0.00     0.103 A 
ATOM     28  C   UNL d   1      29.575 -10.209   3.794  0.00  0.00     0.035 A 
ATOM     29  C   UNL d   1      30.019 -11.528   3.072  0.00  0.00     0.025 A 
BRANCH  27  30
ATOM     30  N   UNL d   1      27.781  -8.372   3.984  0.00  0.00    -0.116 N 
ATOM     31  O   UNL d   1      28.509  -7.678   4.754  0.00  0.00    -0.532 OA
ATOM     32  O   UNL d   1      26.655  -8.043   3.648  0.00  0.00    -0.532 OA
ENDBRANCH  27  30
ENDBRANCH  20  21
ENDBRANCH   2  20
TORSDOF 6
ENDMDL
MODEL 7
REMARK VINA RESULT:    -8.124      2.250     10.762
REMARK INTER + INTRA:         -10.591
REMARK INTER:                  -9.914
REMARK INTRA:                  -0.677
REMARK CONF_INDEPENDENT:        1.790
REMARK UNBOUND:                -0.677
REMARK  6 active torsions:
REMARK  status: ('A' for Active; 'I' for Inactive)
REMARK    1  A    between atoms: C_2  and  N_4 
REMARK       I    between atoms: N_4  and  C_5 
REMARK       I    between atoms: C_5  and  N_7 
REMARK    2  A    between atoms: N_7  and  C_8 
REMARK    3  A    between atoms: C_11  and  N_12 
REMARK       I    between atoms: N_12  and  C_13 
REMARK    4  A    between atoms: C_13  and  C_15 
REMARK    5  A    between atoms: C_15  and  N_16 
REMARK    6  A    between atoms: C_21  and  N_22 
ROOT
ATOM      1  N   UNL d   1      27.253 -15.706   0.280  0.00  0.00    -0.326 N 
ATOM      2  C   UNL d   1      28.725 -16.102   0.115  0.00  0.00     0.250 C 
ATOM      3  O   UNL d   1      28.998 -17.032  -0.637  0.00  0.00    -0.271 OA
ATOM      4  H   UNL d   1      27.000 -14.874   0.801  0.00  0.00     0.169 HD
ENDROOT
BRANCH   1   5
ATOM      5  C   UNL d   1      25.986 -16.455  -0.224  0.00  0.00     0.034 A 
ATOM      6  C   UNL d   1      25.007 -15.924  -1.145  0.00  0.00     0.032 A 
ATOM      7  C   UNL d   1      23.734 -16.595  -1.461  0.00  0.00     0.032 A 
ATOM      8  C   UNL d   1      23.415 -17.836  -0.904  0.00  0.00     0.036 A 
ATOM      9  C   UNL d   1      24.397 -18.381  -0.076  0.00  0.00     0.032 A 
ATOM     10  C   UNL d   1      25.636 -17.725   0.233  0.00  0.00     0.032 A 
BRANCH   8  11
ATOM     11  N   UNL d   1      22.202 -18.573  -1.180  0.00  0.00    -0.309 N 
ATOM     12  C   UNL d   1      21.386 -19.048  -0.154  0.00  0.00     0.321 C 
ATOM     13  N   UNL d   1      20.322 -19.852  -0.544  0.00  0.00    -0.339 N 
ATOM     14  O   UNL d   1      21.570 -18.780   1.027  0.00  0.00    -0.247 OA
ATOM     15  H   UNL d   1      20.130 -20.032  -1.517  0.00  0.00     0.164 HD
ATOM     16  H   UNL d   1      21.859 -18.611  -2.129  0.00  0.00     0.170 HD
BRANCH  13  17
ATOM     17  C   UNL d   1      19.397 -20.400   0.475  0.00  0.00     0.078 C 
ATOM     18  C   UNL d   1      19.101 -19.415   1.614  0.00  0.00     0.032 C 
ATOM     19  C   UNL d   1      18.059 -20.824  -0.145  0.00  0.00     0.032 C 
ENDBRANCH  13  17
ENDBRANCH   8  11
ENDBRANCH   1   5
BRANCH   2  20
ATOM     20  C   UNL d   1      30.047 -15.207   0.982  0.00  0.00     0.377 C 
BRANCH  20  21
ATOM     21  N   UNL d   1      30.009 -14.502   2.608  0.00  0.00     0.129 NA
ATOM     22  C   UNL d   1      29.094 -13.451   2.429  0.00  0.00     0.286 C 
ATOM     23  C   UNL d   1      29.921 -12.637   3.139  0.00  0.00     0.021 C 
ATOM     24  C   UNL d   1      29.590 -13.153   4.376  0.00  0.00    -0.012 A 
ATOM     25  C   UNL d   1      29.268 -12.237   5.489  0.00  0.00     0.046 A 
ATOM     26  C   UNL d   1      29.542 -14.790   4.185  0.00  0.00     0.249 A 
ATOM     27  C   UNL d   1      28.832 -12.512   6.748  0.00  0.00     0.103 A 
ATOM     28  C   UNL d   1      28.657 -13.852   6.896  0.00  0.00     0.035 A 
ATOM     29  C   UNL d   1      29.044 -14.813   5.719  0.00  0.00     0.025 A 
BRANCH  27  30
ATOM     30  N   UNL d   1      28.651 -11.430   7.769  0.00  0.00    -0.116 N 
ATOM     31  O   UNL d   1      28.903 -10.248   7.390  0.00  0.00    -0.532 OA
ATOM     32  O   UNL d   1      28.308 -11.711   8.906  0.00  0.00    -0.532 OA
ENDBRANCH  27  30
ENDBRANCH  20  21
ENDBRANCH   2  20
TORSDOF 6
ENDMDL
MODEL 8
REMARK VINA RESULT:    -8.084      7.634     11.824
REMARK INTER + INTRA:         -10.478
REMARK INTER:                  -9.873
REMARK INTRA:                  -0.604
REMARK CONF_INDEPENDENT:        1.790
REMARK UNBOUND:                -0.604
REMARK  6 active torsions:
REMARK  status: ('A' for Active; 'I' for Inactive)
REMARK    1  A    between atoms: C_2  and  N_4 
REMARK       I    between atoms: N_4  and  C_5 
REMARK       I    between atoms: C_5  and  N_7 
REMARK    2  A    between atoms: N_7  and  C_8 
REMARK    3  A    between atoms: C_11  and  N_12 
REMARK       I    between atoms: N_12  and  C_13 
REMARK    4  A    between atoms: C_13  and  C_15 
REMARK    5  A    between atoms: C_15  and  N_16 
REMARK    6  A    between atoms: C_21  and  N_22 
ROOT
ATOM      1  N   UNL d   1      26.439 -15.177  -2.878  0.00  0.00    -0.326 N 
ATOM      2  C   UNL d   1      25.970 -14.299  -4.044  0.00  0.00     0.250 C 
ATOM      3  O   UNL d   1      24.765 -14.166  -4.226  0.00  0.00    -0.271 OA
ATOM      4  H   UNL d   1      27.421 -15.218  -2.628  0.00  0.00     0.169 HD
ENDROOT
BRANCH   1   5
ATOM      5  C   UNL d   1      25.594 -16.119  -1.974  0.00  0.00     0.034 A 
ATOM      6  C   UNL d   1      26.117 -17.185  -1.150  0.00  0.00     0.032 A 
ATOM      7  C   UNL d   1      25.271 -18.165  -0.446  0.00  0.00     0.032 A 
ATOM      8  C   UNL d   1      23.877 -18.089  -0.507  0.00  0.00     0.036 A 
ATOM      9  C   UNL d   1      23.376 -17.013  -1.241  0.00  0.00     0.032 A 
ATOM     10  C   UNL d   1      24.201 -16.061  -1.927  0.00  0.00     0.032 A 
BRANCH   8  11
ATOM     11  N   UNL d   1      22.976 -18.993   0.173  0.00  0.00    -0.309 N 
ATOM     12  C   UNL d   1      21.592 -18.861   0.066  0.00  0.00     0.321 C 
ATOM     13  N   UNL d   1      20.835 -19.706   0.869  0.00  0.00    -0.339 N 
ATOM     14  O   UNL d   1      21.051 -18.061  -0.687  0.00  0.00    -0.247 OA
ATOM     15  H   UNL d   1      21.271 -20.404   1.451  0.00  0.00     0.164 HD
ATOM     16  H   UNL d   1      23.351 -19.824   0.605  0.00  0.00     0.170 HD
BRANCH  13  17
ATOM     17  C   UNL d   1      19.356 -19.643   0.822  0.00  0.00     0.078 C 
ATOM     18  C   UNL d   1      18.776 -20.068  -0.534  0.00  0.00     0.032 C 
ATOM     19  C   UNL d   1      18.717 -20.520   1.906  0.00  0.00     0.032 C 
ENDBRANCH  13  17
ENDBRANCH   8  11
ENDBRANCH   1   5
BRANCH   2  20
ATOM     20  C   UNL d   1      27.158 -13.447  -5.122  0.00  0.00     0.377 C 
BRANCH  20  21
ATOM     21  N   UNL d   1      27.193 -11.734  -5.577  0.00  0.00     0.129 NA
ATOM     22  C   UNL d   1      27.601 -11.816  -6.920  0.00  0.00     0.286 C 
ATOM     23  C   UNL d   1      28.460 -10.784  -6.700  0.00  0.00     0.021 C 
ATOM     24  C   UNL d   1      27.493  -9.798  -6.711  0.00  0.00    -0.012 A 
ATOM     25  C   UNL d   1      27.705  -8.575  -7.510  0.00  0.00     0.046 A 
ATOM     26  C   UNL d   1      26.229 -10.394  -5.836  0.00  0.00     0.249 A 
ATOM     27  C   UNL d   1      26.868  -7.529  -7.744  0.00  0.00     0.103 A 
ATOM     28  C   UNL d   1      25.667  -7.752  -7.146  0.00  0.00     0.035 A 
ATOM     29  C   UNL d   1      25.474  -9.036  -6.266  0.00  0.00     0.025 A 
BRANCH  27  30
ATOM     30  N   UNL d   1      27.313  -6.324  -8.517  0.00  0.00    -0.116 N 
ATOM     31  O   UNL d   1      28.304  -5.688  -8.048  0.00  0.00    -0.532 OA
ATOM     32  O   UNL d   1      26.712  -5.984  -9.522  0.00  0.00    -0.532 OA
ENDBRANCH  27  30
ENDBRANCH  20  21
ENDBRANCH   2  20
TORSDOF 6
ENDMDL
MODEL 9
REMARK VINA RESULT:    -7.969      1.300      1.540
REMARK INTER + INTRA:         -10.587
REMARK INTER:                  -9.759
REMARK INTRA:                  -0.828
REMARK CONF_INDEPENDENT:        1.790
REMARK UNBOUND:                -0.828
REMARK  6 active torsions:
REMARK  status: ('A' for Active; 'I' for Inactive)
REMARK    1  A    between atoms: C_2  and  N_4 
REMARK       I    between atoms: N_4  and  C_5 
REMARK       I    between atoms: C_5  and  N_7 
REMARK    2  A    between atoms: N_7  and  C_8 
REMARK    3  A    between atoms: C_11  and  N_12 
REMARK       I    between atoms: N_12  and  C_13 
REMARK    4  A    between atoms: C_13  and  C_15 
REMARK    5  A    between atoms: C_15  and  N_16 
REMARK    6  A    between atoms: C_21  and  N_22 
ROOT
ATOM      1  N   UNL d   1      29.118 -14.717   3.087  0.00  0.00    -0.326 N 
ATOM      2  C   UNL d   1      29.746 -14.411   1.723  0.00  0.00     0.250 C 
ATOM      3  O   UNL d   1      30.488 -13.439   1.627  0.00  0.00    -0.271 OA
ATOM      4  H   UNL d   1      28.594 -15.572   3.231  0.00  0.00     0.169 HD
ENDROOT
BRANCH   1   5
ATOM      5  C   UNL d   1      29.120 -13.841   4.373  0.00  0.00     0.034 A 
ATOM      6  C   UNL d   1      29.821 -12.587   4.533  0.00  0.00     0.032 A 
ATOM      7  C   UNL d   1      29.941 -11.877   5.819  0.00  0.00     0.032 A 
ATOM      8  C   UNL d   1      29.331 -12.370   6.975  0.00  0.00     0.036 A 
ATOM      9  C   UNL d   1      28.591 -13.540   6.798  0.00  0.00     0.032 A 
ATOM     10  C   UNL d   1      28.477 -14.232   5.546  0.00  0.00     0.032 A 
BRANCH   8  11
ATOM     11  N   UNL d   1      29.378 -11.724   8.268  0.00  0.00    -0.309 N 
ATOM     12  C   UNL d   1      29.394 -12.459   9.452  0.00  0.00     0.321 C 
ATOM     13  N   UNL d   1      29.306 -11.724  10.628  0.00  0.00    -0.339 N 
ATOM     14  O   UNL d   1      29.487 -13.680   9.481  0.00  0.00    -0.247 OA
ATOM     15  H   UNL d   1      29.285 -10.717  10.615  0.00  0.00     0.164 HD
ATOM     16  H   UNL d   1      29.557 -10.731   8.312  0.00  0.00     0.170 HD
BRANCH  13  17
ATOM     17  C   UNL d   1      29.320 -12.418  11.937  0.00  0.00     0.078 C 
ATOM     18  C   UNL d   1      28.141 -13.382  12.122  0.00  0.00     0.032 C 
ATOM     19  C   UNL d   1      30.617 -13.211  12.143  0.00  0.00     0.032 C 
ENDBRANCH  13  17
ENDBRANCH   8  11
ENDBRANCH   1   5
BRANCH   2  20
ATOM     20  C   UNL d   1      29.430 -15.467   0.279  0.00  0.00     0.377 C 
BRANCH  20  21
ATOM     21  N   UNL d   1      27.886 -16.144  -0.268  0.00  0.00     0.129 NA
ATOM     22  C   UNL d   1      27.370 -16.655   0.935  0.00  0.00     0.286 C 
ATOM     23  C   UNL d   1      27.000 -17.785   0.273  0.00  0.00     0.021 C 
ATOM     24  C   UNL d   1      25.899 -17.226  -0.344  0.00  0.00    -0.012 A 
ATOM     25  C   UNL d   1      24.606 -17.939  -0.322  0.00  0.00     0.046 A 
ATOM     26  C   UNL d   1      26.382 -15.739  -0.870  0.00  0.00     0.249 A 
ATOM     27  C   UNL d   1      23.385 -17.548  -0.773  0.00  0.00     0.103 A 
ATOM     28  C   UNL d   1      23.455 -16.281  -1.264  0.00  0.00     0.035 A 
ATOM     29  C   UNL d   1      24.843 -15.555  -1.320  0.00  0.00     0.025 A 
BRANCH  27  30
ATOM     30  N   UNL d   1      22.203 -18.469  -0.741  0.00  0.00    -0.116 N 
ATOM     31  O   UNL d   1      22.453 -19.701  -0.578  0.00  0.00    -0.532 OA
ATOM     32  O   UNL d   1      21.077 -18.027  -0.896  0.00  0.00    -0.532 OA
ENDBRANCH  27  30
ENDBRANCH  20  21
ENDBRANCH   2  20
TORSDOF 6
ENDMDL
