MODEL 1
REMARK VINA RESULT:    -8.467      0.000      0.000
REMARK INTER + INTRA:         -10.604
REMARK INTER:                  -9.063
REMARK INTRA:                  -1.541
REMARK CONF_INDEPENDENT:        0.597
REMARK UNBOUND:                -1.541
REMARK  2 active torsions:
REMARK  status: ('A' for Active; 'I' for Inactive)
REMARK    1  A    between atoms: C_4  and  C_5 
REMARK    2  A    between atoms: C_12  and  C_13 
ROOT
ATOM      1  C   UNL d   1      28.631 -14.647  -0.562  0.00  0.00     0.084 C 
ATOM      2  C   UNL d   1      28.634 -13.765   0.704  0.00  0.00     0.118 C 
ATOM      3  C   UNL d   1      27.286 -13.160   0.961  0.00  0.00     0.223 C 
ATOM      4  O   UNL d   1      26.888 -12.968   2.141  0.00  0.00    -0.273 OA
ATOM      5  N   UNL d   1      26.439 -12.912  -0.084  0.00  0.00    -0.327 N 
ATOM      6  C   UNL d   1      26.642 -13.379  -1.401  0.00  0.00     0.040 C 
ATOM      7  C   UNL d   1      25.645 -13.350  -2.395  0.00  0.00     0.035 C 
ATOM      8  C   UNL d   1      25.906 -13.898  -3.674  0.00  0.00     0.106 C 
ATOM      9  C   UNL d   1      27.177 -13.744  -4.133  0.00  0.00     0.035 C 
ATOM     10  C   UNL d   1      28.075 -14.237  -3.107  0.00  0.00    -0.002 C 
ATOM     11  C   UNL d   1      27.788 -14.082  -1.707  0.00  0.00    -0.024 C 
ATOM     12  C   UNL d   1      27.034 -14.222  -5.601  0.00  0.00     0.123 C 
ATOM     13  N   UNL d   1      26.655 -15.575  -5.186  0.00  0.00    -0.242 NA
ATOM     14  N   UNL d   1      25.661 -15.301  -4.139  0.00  0.00    -0.149 NA
ATOM     15  H   UNL d   1      25.530 -12.575   0.222  0.00  0.00     0.169 HD
ATOM     16  H   UNL d   1      27.659 -15.820  -5.047  0.00  0.00     0.142 HD
ENDROOT
BRANCH   1  17
ATOM     17  C   UNL d   1      28.081 -15.958   0.017  0.00  0.00     0.075 C 
ATOM     18  N   UNL d   1      26.716 -15.921   0.358  0.00  0.00    -0.225 NA
ATOM     19  C   UNL d   1      26.201 -16.992  -0.227  0.00  0.00     0.180 C 
ATOM     20  O   UNL d   1      27.164 -17.873  -0.655  0.00  0.00    -0.294 OA
ATOM     21  C   UNL d   1      28.365 -17.251  -0.409  0.00  0.00     0.077 C 
ATOM     22  C   UNL d   1      29.567 -17.950  -0.895  0.00  0.00     0.079 C 
BRANCH  19  23
ATOM     23  C   UNL d   1      24.814 -17.431  -0.396  0.00  0.00     0.017 A 
ATOM     24  C   UNL d   1      23.878 -16.434  -0.678  0.00  0.00     0.016 A 
ATOM     25  C   UNL d   1      22.522 -16.725  -0.811  0.00  0.00     0.001 A 
ATOM     26  C   UNL d   1      22.078 -18.042  -0.738  0.00  0.00     0.000 A 
ATOM     27  C   UNL d   1      22.990 -19.063  -0.467  0.00  0.00     0.001 A 
ATOM     28  C   UNL d   1      24.356 -18.762  -0.281  0.00  0.00     0.016 A 
ENDBRANCH  19  23
ENDBRANCH   1  17
TORSDOF 2
ENDMDL
MODEL 2
REMARK VINA RESULT:    -7.828      2.184      3.415
REMARK INTER + INTRA:          -9.852
REMARK INTER:                  -8.425
REMARK INTRA:                  -1.427
REMARK CONF_INDEPENDENT:        0.597
REMARK UNBOUND:                -1.427
REMARK  2 active torsions:
REMARK  status: ('A' for Active; 'I' for Inactive)
REMARK    1  A    between atoms: C_4  and  C_5 
REMARK    2  A    between atoms: C_12  and  C_13 
ROOT
ATOM      1  C   UNL d   1      27.242 -13.318  -2.728  0.00  0.00     0.084 C 
ATOM      2  C   UNL d   1      25.737 -12.984  -2.660  0.00  0.00     0.118 C 
ATOM      3  C   UNL d   1      24.947 -13.790  -3.648  0.00  0.00     0.223 C 
ATOM      4  O   UNL d   1      23.773 -14.158  -3.376  0.00  0.00    -0.273 OA
ATOM      5  N   UNL d   1      25.535 -14.219  -4.806  0.00  0.00    -0.327 N 
ATOM      6  C   UNL d   1      26.921 -14.146  -5.069  0.00  0.00     0.040 C 
ATOM      7  C   UNL d   1      27.544 -14.825  -6.133  0.00  0.00     0.035 C 
ATOM      8  C   UNL d   1      28.949 -14.755  -6.290  0.00  0.00     0.106 C 
ATOM      9  C   UNL d   1      29.521 -13.567  -5.957  0.00  0.00     0.035 C 
ATOM     10  C   UNL d   1      29.079 -13.230  -4.617  0.00  0.00    -0.002 C 
ATOM     11  C   UNL d   1      27.760 -13.555  -4.148  0.00  0.00    -0.024 C 
ATOM     12  C   UNL d   1      30.969 -13.766  -6.474  0.00  0.00     0.123 C 
ATOM     13  N   UNL d   1      31.208 -14.880  -5.553  0.00  0.00    -0.242 NA
ATOM     14  N   UNL d   1      29.984 -15.677  -5.721  0.00  0.00    -0.149 NA
ATOM     15  H   UNL d   1      24.926 -14.817  -5.356  0.00  0.00     0.169 HD
ATOM     16  H   UNL d   1      31.415 -14.208  -4.784  0.00  0.00     0.142 HD
ENDROOT
BRANCH   1  17
ATOM     17  C   UNL d   1      27.287 -14.570  -1.840  0.00  0.00     0.075 C 
ATOM     18  N   UNL d   1      26.139 -14.767  -1.049  0.00  0.00    -0.225 NA
ATOM     19  C   UNL d   1      25.789 -16.023  -1.283  0.00  0.00     0.180 C 
ATOM     20  O   UNL d   1      26.778 -16.737  -1.914  0.00  0.00    -0.294 OA
ATOM     21  C   UNL d   1      27.774 -15.827  -2.180  0.00  0.00     0.077 C 
ATOM     22  C   UNL d   1      28.913 -16.327  -2.970  0.00  0.00     0.079 C 
BRANCH  19  23
ATOM     23  C   UNL d   1      24.598 -16.785  -0.901  0.00  0.00     0.017 A 
ATOM     24  C   UNL d   1      24.807 -18.110  -0.515  0.00  0.00     0.016 A 
ATOM     25  C   UNL d   1      23.745 -18.947  -0.177  0.00  0.00     0.001 A 
ATOM     26  C   UNL d   1      22.445 -18.450  -0.147  0.00  0.00     0.000 A 
ATOM     27  C   UNL d   1      22.204 -17.128  -0.519  0.00  0.00     0.001 A 
ATOM     28  C   UNL d   1      23.273 -16.295  -0.910  0.00  0.00     0.016 A 
ENDBRANCH  19  23
ENDBRANCH   1  17
TORSDOF 2
ENDMDL
MODEL 3
REMARK VINA RESULT:    -7.743      2.872      6.848
REMARK INTER + INTRA:          -9.538
REMARK INTER:                  -8.339
REMARK INTRA:                  -1.199
REMARK CONF_INDEPENDENT:        0.597
REMARK UNBOUND:                -1.199
REMARK  2 active torsions:
REMARK  status: ('A' for Active; 'I' for Inactive)
REMARK    1  A    between atoms: C_4  and  C_5 
REMARK    2  A    between atoms: C_12  and  C_13 
ROOT
ATOM      1  C   UNL d   1      25.546 -15.142  -4.153  0.00  0.00     0.084 C 
ATOM      2  C   UNL d   1      25.533 -13.659  -4.580  0.00  0.00     0.118 C 
ATOM      3  C   UNL d   1      26.272 -12.795  -3.602  0.00  0.00     0.223 C 
ATOM      4  O   UNL d   1      26.909 -11.783  -3.999  0.00  0.00    -0.273 OA
ATOM      5  N   UNL d   1      26.346 -13.162  -2.286  0.00  0.00    -0.327 N 
ATOM      6  C   UNL d   1      25.954 -14.424  -1.789  0.00  0.00     0.040 C 
ATOM      7  C   UNL d   1      26.280 -14.884  -0.499  0.00  0.00     0.035 C 
ATOM      8  C   UNL d   1      25.907 -16.190  -0.098  0.00  0.00     0.106 C 
ATOM      9  C   UNL d   1      24.717 -16.637  -0.581  0.00  0.00     0.035 C 
ATOM     10  C   UNL d   1      24.737 -16.466  -2.021  0.00  0.00    -0.002 C 
ATOM     11  C   UNL d   1      25.399 -15.353  -2.645  0.00  0.00    -0.024 C 
ATOM     12  C   UNL d   1      24.525 -17.942   0.233  0.00  0.00     0.123 C 
ATOM     13  N   UNL d   1      25.727 -18.549  -0.345  0.00  0.00    -0.242 NA
ATOM     14  N   UNL d   1      26.700 -17.454  -0.233  0.00  0.00    -0.149 NA
ATOM     15  H   UNL d   1      26.935 -12.540  -1.739  0.00  0.00     0.169 HD
ATOM     16  H   UNL d   1      25.188 -18.823  -1.194  0.00  0.00     0.142 HD
ENDROOT
BRANCH   1  17
ATOM     17  C   UNL d   1      26.913 -15.575  -4.704  0.00  0.00     0.075 C 
ATOM     18  N   UNL d   1      27.154 -15.191  -6.037  0.00  0.00    -0.225 NA
ATOM     19  C   UNL d   1      28.341 -14.605  -6.002  0.00  0.00     0.180 C 
ATOM     20  O   UNL d   1      29.014 -14.848  -4.829  0.00  0.00    -0.294 OA
ATOM     21  C   UNL d   1      28.134 -15.551  -4.040  0.00  0.00     0.077 C 
ATOM     22  C   UNL d   1      28.581 -15.834  -2.665  0.00  0.00     0.079 C 
BRANCH  19  23
ATOM     23  C   UNL d   1      29.079 -13.849  -7.015  0.00  0.00     0.017 A 
ATOM     24  C   UNL d   1      30.443 -14.127  -7.126  0.00  0.00     0.016 A 
ATOM     25  C   UNL d   1      31.258 -13.436  -8.021  0.00  0.00     0.001 A 
ATOM     26  C   UNL d   1      30.707 -12.495  -8.885  0.00  0.00     0.000 A 
ATOM     27  C   UNL d   1      29.345 -12.201  -8.807  0.00  0.00     0.001 A 
ATOM     28  C   UNL d   1      28.530 -12.864  -7.865  0.00  0.00     0.016 A 
ENDBRANCH  19  23
ENDBRANCH   1  17
TORSDOF 2
ENDMDL
MODEL 4
REMARK VINA RESULT:    -7.264      2.018      4.795
REMARK INTER + INTRA:          -9.427
REMARK INTER:                  -7.860
REMARK INTRA:                  -1.566
REMARK CONF_INDEPENDENT:        0.597
REMARK UNBOUND:                -1.566
REMARK  2 active torsions:
REMARK  status: ('A' for Active; 'I' for Inactive)
REMARK    1  A    between atoms: C_4  and  C_5 
REMARK    2  A    between atoms: C_12  and  C_13 
ROOT
ATOM      1  C   UNL d   1      28.158 -14.154  -3.387  0.00  0.00     0.084 C 
ATOM      2  C   UNL d   1      28.989 -14.718  -4.559  0.00  0.00     0.118 C 
ATOM      3  C   UNL d   1      29.451 -16.118  -4.287  0.00  0.00     0.223 C 
ATOM      4  O   UNL d   1      29.560 -16.948  -5.229  0.00  0.00    -0.273 OA
ATOM      5  N   UNL d   1      29.653 -16.533  -2.999  0.00  0.00    -0.327 N 
ATOM      6  C   UNL d   1      29.257 -15.803  -1.857  0.00  0.00     0.040 C 
ATOM      7  C   UNL d   1      29.225 -16.350  -0.560  0.00  0.00     0.035 C 
ATOM      8  C   UNL d   1      28.752 -15.573   0.524  0.00  0.00     0.106 C 
ATOM      9  C   UNL d   1      29.045 -14.247   0.471  0.00  0.00     0.035 C 
ATOM     10  C   UNL d   1      28.604 -13.753  -0.820  0.00  0.00    -0.002 C 
ATOM     11  C   UNL d   1      28.679 -14.559  -2.007  0.00  0.00    -0.024 C 
ATOM     12  C   UNL d   1      28.609 -13.778   1.883  0.00  0.00     0.123 C 
ATOM     13  N   UNL d   1      27.211 -14.142   1.637  0.00  0.00    -0.242 NA
ATOM     14  N   UNL d   1      27.350 -15.479   1.043  0.00  0.00    -0.149 NA
ATOM     15  H   UNL d   1      29.889 -17.519  -2.938  0.00  0.00     0.169 HD
ATOM     16  H   UNL d   1      27.060 -13.244   1.129  0.00  0.00     0.142 HD
ENDROOT
BRANCH   1  17
ATOM     17  C   UNL d   1      26.779 -14.742  -3.721  0.00  0.00     0.075 C 
ATOM     18  N   UNL d   1      26.490 -15.959  -3.075  0.00  0.00    -0.225 NA
ATOM     19  C   UNL d   1      25.299 -15.769  -2.529  0.00  0.00     0.180 C 
ATOM     20  O   UNL d   1      24.667 -14.652  -3.019  0.00  0.00    -0.294 OA
ATOM     21  C   UNL d   1      25.579 -14.051  -3.855  0.00  0.00     0.077 C 
ATOM     22  C   UNL d   1      25.181 -12.752  -4.422  0.00  0.00     0.079 C 
BRANCH  19  23
ATOM     23  C   UNL d   1      24.520 -16.582  -1.593  0.00  0.00     0.017 A 
ATOM     24  C   UNL d   1      25.189 -17.653  -0.997  0.00  0.00     0.016 A 
ATOM     25  C   UNL d   1      24.538 -18.525  -0.127  0.00  0.00     0.001 A 
ATOM     26  C   UNL d   1      23.211 -18.301   0.226  0.00  0.00     0.000 A 
ATOM     27  C   UNL d   1      22.517 -17.234  -0.345  0.00  0.00     0.001 A 
ATOM     28  C   UNL d   1      23.161 -16.380  -1.265  0.00  0.00     0.016 A 
ENDBRANCH  19  23
ENDBRANCH   1  17
TORSDOF 2
ENDMDL
MODEL 5
REMARK VINA RESULT:    -7.138      2.854      4.609
REMARK INTER + INTRA:          -9.049
REMARK INTER:                  -7.735
REMARK INTRA:                  -1.314
REMARK CONF_INDEPENDENT:        0.597
REMARK UNBOUND:                -1.314
REMARK  2 active torsions:
REMARK  status: ('A' for Active; 'I' for Inactive)
REMARK    1  A    between atoms: C_4  and  C_5 
REMARK    2  A    between atoms: C_12  and  C_13 
ROOT
ATOM      1  C   UNL d   1      27.040 -14.451  -5.551  0.00  0.00     0.084 C 
ATOM      2  C   UNL d   1      27.967 -15.450  -4.828  0.00  0.00     0.118 C 
ATOM      3  C   UNL d   1      28.732 -14.792  -3.718  0.00  0.00     0.223 C 
ATOM      4  O   UNL d   1      29.017 -15.434  -2.672  0.00  0.00    -0.273 OA
ATOM      5  N   UNL d   1      29.032 -13.460  -3.792  0.00  0.00    -0.327 N 
ATOM      6  C   UNL d   1      28.491 -12.574  -4.750  0.00  0.00     0.040 C 
ATOM      7  C   UNL d   1      28.592 -11.174  -4.654  0.00  0.00     0.035 C 
ATOM      8  C   UNL d   1      27.965 -10.351  -5.621  0.00  0.00     0.106 C 
ATOM      9  C   UNL d   1      27.954 -10.839  -6.891  0.00  0.00     0.035 C 
ATOM     10  C   UNL d   1      27.405 -12.180  -6.840  0.00  0.00    -0.002 C 
ATOM     11  C   UNL d   1      27.649 -13.059  -5.729  0.00  0.00    -0.024 C 
ATOM     12  C   UNL d   1      27.436  -9.613  -7.687  0.00  0.00     0.123 C 
ATOM     13  N   UNL d   1      26.153  -9.622  -6.979  0.00  0.00    -0.242 NA
ATOM     14  N   UNL d   1      26.582  -9.779  -5.582  0.00  0.00    -0.149 NA
ATOM     15  H   UNL d   1      29.482 -13.113  -2.950  0.00  0.00     0.169 HD
ATOM     16  H   UNL d   1      25.801 -10.371  -7.613  0.00  0.00     0.142 HD
ENDROOT
BRANCH   1  17
ATOM     17  C   UNL d   1      25.825 -14.475  -4.613  0.00  0.00     0.075 C 
ATOM     18  N   UNL d   1      25.530 -15.740  -4.070  0.00  0.00    -0.225 NA
ATOM     19  C   UNL d   1      25.421 -15.522  -2.768  0.00  0.00     0.180 C 
ATOM     20  O   UNL d   1      25.319 -14.187  -2.463  0.00  0.00    -0.294 OA
ATOM     21  C   UNL d   1      25.479 -13.525  -3.658  0.00  0.00     0.077 C 
ATOM     22  C   UNL d   1      25.530 -12.055  -3.582  0.00  0.00     0.079 C 
BRANCH  19  23
ATOM     23  C   UNL d   1      25.291 -16.445  -1.638  0.00  0.00     0.017 A 
ATOM     24  C   UNL d   1      23.993 -16.836  -1.303  0.00  0.00     0.016 A 
ATOM     25  C   UNL d   1      23.742 -17.672  -0.217  0.00  0.00     0.001 A 
ATOM     26  C   UNL d   1      24.798 -18.200   0.520  0.00  0.00     0.000 A 
ATOM     27  C   UNL d   1      26.107 -17.836   0.204  0.00  0.00     0.001 A 
ATOM     28  C   UNL d   1      26.359 -16.949  -0.864  0.00  0.00     0.016 A 
ENDBRANCH  19  23
ENDBRANCH   1  17
TORSDOF 2
ENDMDL
MODEL 6
REMARK VINA RESULT:    -7.090      2.866      5.054
REMARK INTER + INTRA:          -9.211
REMARK INTER:                  -7.687
REMARK INTRA:                  -1.524
REMARK CONF_INDEPENDENT:        0.597
REMARK UNBOUND:                -1.524
REMARK  2 active torsions:
REMARK  status: ('A' for Active; 'I' for Inactive)
REMARK    1  A    between atoms: C_4  and  C_5 
REMARK    2  A    between atoms: C_12  and  C_13 
ROOT
ATOM      1  C   UNL d   1      28.189 -15.435  -0.842  0.00  0.00     0.084 C 
ATOM      2  C   UNL d   1      27.559 -16.093   0.403  0.00  0.00     0.118 C 
ATOM      3  C   UNL d   1      26.477 -17.061   0.029  0.00  0.00     0.223 C 
ATOM      4  O   UNL d   1      26.284 -18.099   0.718  0.00  0.00    -0.273 OA
ATOM      5  N   UNL d   1      25.764 -16.878  -1.124  0.00  0.00    -0.327 N 
ATOM      6  C   UNL d   1      26.103 -15.945  -2.129  0.00  0.00     0.040 C 
ATOM      7  C   UNL d   1      25.530 -15.950  -3.415  0.00  0.00     0.035 C 
ATOM      8  C   UNL d   1      25.972 -15.023  -4.390  0.00  0.00     0.106 C 
ATOM      9  C   UNL d   1      26.315 -13.794  -3.920  0.00  0.00     0.035 C 
ATOM     10  C   UNL d   1      27.267 -13.986  -2.843  0.00  0.00    -0.002 C 
ATOM     11  C   UNL d   1      27.182 -15.106  -1.946  0.00  0.00    -0.024 C 
ATOM     12  C   UNL d   1      26.499 -13.001  -5.240  0.00  0.00     0.123 C 
ATOM     13  N   UNL d   1      27.604 -13.860  -5.671  0.00  0.00    -0.242 NA
ATOM     14  N   UNL d   1      27.068 -15.200  -5.395  0.00  0.00    -0.149 NA
ATOM     15  H   UNL d   1      25.115 -17.638  -1.308  0.00  0.00     0.169 HD
ATOM     16  H   UNL d   1      28.267 -13.317  -5.078  0.00  0.00     0.142 HD
ENDROOT
BRANCH   1  17
ATOM     17  C   UNL d   1      29.206 -16.515  -1.240  0.00  0.00     0.075 C 
ATOM     18  N   UNL d   1      28.905 -17.189  -2.438  0.00  0.00    -0.225 NA
ATOM     19  C   UNL d   1      30.024 -17.125  -3.143  0.00  0.00     0.180 C 
ATOM     20  O   UNL d   1      31.103 -16.739  -2.384  0.00  0.00    -0.294 OA
ATOM     21  C   UNL d   1      30.591 -16.444  -1.143  0.00  0.00     0.077 C 
ATOM     22  C   UNL d   1      31.542 -15.885  -0.167  0.00  0.00     0.079 C 
BRANCH  19  23
ATOM     23  C   UNL d   1      30.318 -17.486  -4.531  0.00  0.00     0.017 A 
ATOM     24  C   UNL d   1      30.325 -16.439  -5.456  0.00  0.00     0.016 A 
ATOM     25  C   UNL d   1      30.544 -16.667  -6.813  0.00  0.00     0.001 A 
ATOM     26  C   UNL d   1      30.836 -17.949  -7.269  0.00  0.00     0.000 A 
ATOM     27  C   UNL d   1      30.847 -19.015  -6.369  0.00  0.00     0.001 A 
ATOM     28  C   UNL d   1      30.575 -18.792  -5.003  0.00  0.00     0.016 A 
ENDBRANCH  19  23
ENDBRANCH   1  17
TORSDOF 2
ENDMDL
MODEL 7
REMARK VINA RESULT:    -6.857      2.228      3.554
REMARK INTER + INTRA:          -8.944
REMARK INTER:                  -7.454
REMARK INTRA:                  -1.490
REMARK CONF_INDEPENDENT:        0.597
REMARK UNBOUND:                -1.490
REMARK  2 active torsions:
REMARK  status: ('A' for Active; 'I' for Inactive)
REMARK    1  A    between atoms: C_4  and  C_5 
REMARK    2  A    between atoms: C_12  and  C_13 
ROOT
ATOM      1  C   UNL d   1      27.997 -11.506  -2.318  0.00  0.00     0.084 C 
ATOM      2  C   UNL d   1      27.423 -10.075  -2.234  0.00  0.00     0.118 C 
ATOM      3  C   UNL d   1      26.064  -9.987  -2.861  0.00  0.00     0.223 C 
ATOM      4  O   UNL d   1      25.197  -9.200  -2.395  0.00  0.00    -0.273 OA
ATOM      5  N   UNL d   1      25.723 -10.839  -3.875  0.00  0.00    -0.327 N 
ATOM      6  C   UNL d   1      26.484 -11.965  -4.259  0.00  0.00     0.040 C 
ATOM      7  C   UNL d   1      25.998 -12.974  -5.111  0.00  0.00     0.035 C 
ATOM      8  C   UNL d   1      26.800 -14.106  -5.395  0.00  0.00     0.106 C 
ATOM      9  C   UNL d   1      28.136 -13.873  -5.489  0.00  0.00     0.035 C 
ATOM     10  C   UNL d   1      28.543 -13.173  -4.286  0.00  0.00    -0.002 C 
ATOM     11  C   UNL d   1      27.687 -12.221  -3.634  0.00  0.00    -0.024 C 
ATOM     12  C   UNL d   1      28.648 -15.231  -6.035  0.00  0.00     0.123 C 
ATOM     13  N   UNL d   1      28.199 -15.949  -4.840  0.00  0.00    -0.242 NA
ATOM     14  N   UNL d   1      26.844 -15.409  -4.657  0.00  0.00    -0.149 NA
ATOM     15  H   UNL d   1      24.754 -10.735  -4.165  0.00  0.00     0.169 HD
ATOM     16  H   UNL d   1      29.062 -15.657  -4.333  0.00  0.00     0.142 HD
ENDROOT
BRANCH   1  17
ATOM     17  C   UNL d   1      27.322 -12.145  -1.096  0.00  0.00     0.075 C 
ATOM     18  N   UNL d   1      26.288 -13.049  -1.405  0.00  0.00    -0.225 NA
ATOM     19  C   UNL d   1      26.581 -14.136  -0.708  0.00  0.00     0.180 C 
ATOM     20  O   UNL d   1      27.538 -13.906   0.250  0.00  0.00    -0.294 OA
ATOM     21  C   UNL d   1      27.939 -12.605   0.063  0.00  0.00     0.077 C 
ATOM     22  C   UNL d   1      29.059 -12.145   0.901  0.00  0.00     0.079 C 
BRANCH  19  23
ATOM     23  C   UNL d   1      25.999 -15.480  -0.718  0.00  0.00     0.017 A 
ATOM     24  C   UNL d   1      26.542 -16.398   0.183  0.00  0.00     0.016 A 
ATOM     25  C   UNL d   1      26.103 -17.719   0.231  0.00  0.00     0.001 A 
ATOM     26  C   UNL d   1      25.051 -18.137  -0.578  0.00  0.00     0.000 A 
ATOM     27  C   UNL d   1      24.480 -17.242  -1.483  0.00  0.00     0.001 A 
ATOM     28  C   UNL d   1      24.959 -15.917  -1.568  0.00  0.00     0.016 A 
ENDBRANCH  19  23
ENDBRANCH   1  17
TORSDOF 2
ENDMDL
MODEL 8
REMARK VINA RESULT:    -6.827      1.841      4.537
REMARK INTER + INTRA:          -8.768
REMARK INTER:                  -7.424
REMARK INTRA:                  -1.344
REMARK CONF_INDEPENDENT:        0.597
REMARK UNBOUND:                -1.344
REMARK  2 active torsions:
REMARK  status: ('A' for Active; 'I' for Inactive)
REMARK    1  A    between atoms: C_4  and  C_5 
REMARK    2  A    between atoms: C_12  and  C_13 
ROOT
ATOM      1  C   UNL d   1      28.923 -14.088  -1.600  0.00  0.00     0.084 C 
ATOM      2  C   UNL d   1      29.792 -15.343  -1.826  0.00  0.00     0.118 C 
ATOM      3  C   UNL d   1      29.503 -16.406  -0.809  0.00  0.00     0.223 C 
ATOM      4  O   UNL d   1      29.574 -17.625  -1.123  0.00  0.00    -0.273 OA
ATOM      5  N   UNL d   1      29.056 -16.057   0.436  0.00  0.00    -0.327 N 
ATOM      6  C   UNL d   1      28.633 -14.759   0.794  0.00  0.00     0.040 C 
ATOM      7  C   UNL d   1      27.930 -14.473   1.980  0.00  0.00     0.035 C 
ATOM      8  C   UNL d   1      27.481 -13.155   2.236  0.00  0.00     0.106 C 
ATOM      9  C   UNL d   1      28.299 -12.159   1.802  0.00  0.00     0.035 C 
ATOM     10  C   UNL d   1      28.580 -12.405   0.400  0.00  0.00    -0.002 C 
ATOM     11  C   UNL d   1      28.717 -13.735  -0.126  0.00  0.00    -0.024 C 
ATOM     12  C   UNL d   1      27.640 -10.915   2.450  0.00  0.00     0.123 C 
ATOM     13  N   UNL d   1      26.398 -11.106   1.698  0.00  0.00    -0.242 NA
ATOM     14  N   UNL d   1      26.162 -12.547   1.870  0.00  0.00    -0.149 NA
ATOM     15  H   UNL d   1      28.823 -16.864   1.008  0.00  0.00     0.169 HD
ATOM     16  H   UNL d   1      26.820 -10.636   0.869  0.00  0.00     0.142 HD
ENDROOT
BRANCH   1  17
ATOM     17  C   UNL d   1      27.634 -14.513  -2.317  0.00  0.00     0.075 C 
ATOM     18  N   UNL d   1      27.161 -15.791  -1.962  0.00  0.00    -0.225 NA
ATOM     19  C   UNL d   1      25.885 -15.599  -1.663  0.00  0.00     0.180 C 
ATOM     20  O   UNL d   1      25.423 -14.376  -2.085  0.00  0.00    -0.294 OA
ATOM     21  C   UNL d   1      26.522 -13.723  -2.591  0.00  0.00     0.077 C 
ATOM     22  C   UNL d   1      26.311 -12.326  -3.005  0.00  0.00     0.079 C 
BRANCH  19  23
ATOM     23  C   UNL d   1      24.885 -16.487  -1.067  0.00  0.00     0.017 A 
ATOM     24  C   UNL d   1      25.376 -17.578  -0.345  0.00  0.00     0.016 A 
ATOM     25  C   UNL d   1      24.520 -18.518   0.226  0.00  0.00     0.001 A 
ATOM     26  C   UNL d   1      23.141 -18.346   0.150  0.00  0.00     0.000 A 
ATOM     27  C   UNL d   1      22.619 -17.262  -0.556  0.00  0.00     0.001 A 
ATOM     28  C   UNL d   1      23.485 -16.338  -1.178  0.00  0.00     0.016 A 
ENDBRANCH  19  23
ENDBRANCH   1  17
TORSDOF 2
ENDMDL
