MODEL 1
REMARK VINA RESULT:   -12.356      0.000      0.000
REMARK INTER + INTRA:         -15.646
REMARK INTER:                 -15.041
REMARK INTRA:                  -0.605
REMARK CONF_INDEPENDENT:        2.685
REMARK UNBOUND:                -0.605
REMARK  9 active torsions:
REMARK  status: ('A' for Active; 'I' for Inactive)
REMARK    1  A    between atoms: C_2  and  C_3 
REMARK       I    between atoms: C_2  and  N_18 
REMARK    2  A    between atoms: C_3  and  S_4 
REMARK    3  A    between atoms: C_5  and  S_4 
REMARK    4  A    between atoms: C_8  and  N_9 
REMARK    5  A    between atoms: N_9  and  C_10 
REMARK    6  A    between atoms: CA_19  and  N_18 
REMARK    7  A    between atoms: CA_19  and  C_30 
REMARK    8  A    between atoms: CA_19  and  CB_20 
REMARK    9  A    between atoms: CB_20  and  CG_21 
ROOT
ATOM      1  O   UNK d   0      24.487 -15.392  -2.679  0.00  0.00    -0.273 OA
ATOM      2  C   UNK d   0      25.121 -15.974  -1.811  0.00  0.00     0.227 C 
ATOM      3  N   TRP d   1      26.413 -15.626  -1.438  0.00  0.00    -0.346 N 
ATOM      4  H   TRP d   1      26.837 -15.965  -0.588  0.00  0.00     0.163 HD
ENDROOT
BRANCH   2   5
ATOM      5  C   UNK d   0      24.689 -17.356  -1.236  0.00  0.00     0.179 C 
BRANCH   5   6
ATOM      6  S   UNK d   0      23.065 -17.951  -1.942  0.00  0.00    -0.128 SA
BRANCH   6   7
ATOM      7  C   UNK d   0      21.896 -17.812  -0.574  0.00  0.00     0.198 C 
ATOM      8  N   UNK d   0      20.562 -17.525  -1.076  0.00  0.00    -0.235 NA
ATOM      9  N   UNK d   0      19.764 -18.737  -1.071  0.00  0.00    -0.228 NA
ATOM     10  H   UNK d   0      20.636 -17.065  -1.984  0.00  0.00     0.142 HD
ATOM     11  C   UNK d   0      20.479 -19.881  -0.474  0.00  0.00     0.235 C 
ATOM     12  H   UNK d   0      19.386 -18.999  -1.978  0.00  0.00     0.143 HD
ATOM     13  S   UNK d   0      21.810 -19.223   0.510  0.00  0.00    -0.096 SA
BRANCH  11  14
ATOM     14  N   UNK d   0      19.717 -20.848   0.255  0.00  0.00    -0.364 N 
ATOM     15  H   UNK d   0      19.015 -21.306  -0.314  0.00  0.00     0.162 HD
BRANCH  14  16
ATOM     16  C   UNK d   0      19.379 -20.573   1.582  0.00  0.00     0.032 A 
ATOM     17  C   UNK d   0      20.240 -20.808   2.673  0.00  0.00     0.029 A 
ATOM     18  C   UNK d   0      19.817 -20.677   3.996  0.00  0.00     0.005 A 
ATOM     19  C   UNK d   0      18.506 -20.311   4.256  0.00  0.00     0.042 A 
ATOM     20  C   UNK d   0      17.646 -20.073   3.192  0.00  0.00     0.118 A 
ATOM     21  F   UNK d   0      16.376 -19.729   3.443  0.00  0.00    -0.206 F 
ATOM     22  C   UNK d   0      18.067 -20.202   1.870  0.00  0.00     0.071 A 
ENDBRANCH  14  16
ENDBRANCH  11  14
ENDBRANCH   6   7
ENDBRANCH   5   6
ENDBRANCH   2   5
BRANCH   3  23
ATOM     23  CA  TRP d   1      27.278 -14.700  -2.236  0.00  0.00     0.190 C 
BRANCH  23  24
ATOM     24  C   TRP d   1      26.420 -13.585  -2.951  0.00  0.00     0.197 C 
ATOM     25  O   TRP d   1      25.363 -13.205  -2.372  0.00  0.00    -0.646 OA
ATOM     26  OXT TRP d   1      26.861 -13.236  -4.088  0.00  0.00    -0.646 OA
ENDBRANCH  23  24
BRANCH  23  27
ATOM     27  CB  TRP d   1      28.430 -14.039  -1.409  0.00  0.00     0.077 C 
BRANCH  27  28
ATOM     28  CG  TRP d   1      28.161 -12.752  -0.641  0.00  0.00    -0.028 C 
ATOM     29  CD1 TRP d   1      27.795 -12.567   0.649  0.00  0.00     0.096 C 
ATOM     30  NE1 TRP d   1      27.733 -11.281   1.036  0.00  0.00    -0.365 N 
ATOM     31  CE2 TRP d   1      27.834 -10.538  -0.088  0.00  0.00     0.042 A 
ATOM     32  HE1 TRP d   1      27.510 -10.984   1.973  0.00  0.00     0.165 HD
ATOM     33  CZ2 TRP d   1      27.663  -9.173  -0.204  0.00  0.00     0.030 A 
ATOM     34  CD2 TRP d   1      28.120 -11.414  -1.146  0.00  0.00    -0.002 A 
ATOM     35  CH2 TRP d   1      27.779  -8.669  -1.488  0.00  0.00     0.002 A 
ATOM     36  CZ3 TRP d   1      28.071  -9.498  -2.577  0.00  0.00     0.001 A 
ATOM     37  CE3 TRP d   1      28.256 -10.875  -2.426  0.00  0.00     0.014 A 
ENDBRANCH  27  28
ENDBRANCH  23  27
ENDBRANCH   3  23
TORSDOF 9
ENDMDL
