MODEL 1
REMARK VINA RESULT:    -9.055      0.000      0.000
REMARK INTER + INTRA:         -11.874
REMARK INTER:                 -10.249
REMARK INTRA:                  -1.625
REMARK CONF_INDEPENDENT:        1.193
REMARK UNBOUND:                -1.625
REMARK  4 active torsions:
REMARK  status: ('A' for Active; 'I' for Inactive)
REMARK    1  A    between atoms: C_6  and  C_7 
REMARK       I    between atoms: C_7  and  N_9 
REMARK    2  A    between atoms: N_9  and  N_10 
REMARK       I    between atoms: N_10  and  C_11 
REMARK    3  A    between atoms: C_11  and  C_13 
REMARK    4  A    between atoms: C_23  and  O_24 
ROOT
ATOM      1  N   UNL d   1      23.894 -17.650  -0.484  0.00  0.00    -0.267 N 
ATOM      2  C   UNL d   1      25.317 -17.633  -0.126  0.00  0.00     0.244 C 
ATOM      3  O   UNL d   1      25.736 -18.224   0.853  0.00  0.00    -0.271 OA
ATOM      4  H   UNL d   1      23.509 -17.127  -1.269  0.00  0.00     0.190 HD
ENDROOT
BRANCH   1   5
ATOM      5  N   UNL d   1      22.896 -18.479   0.168  0.00  0.00    -0.263 N 
ATOM      6  C   UNL d   1      21.536 -18.470  -0.275  0.00  0.00     0.272 C 
ATOM      7  O   UNL d   1      21.153 -17.813  -1.230  0.00  0.00    -0.266 OA
ATOM      8  H   UNL d   1      23.235 -19.011   0.956  0.00  0.00     0.190 HD
BRANCH   6   9
ATOM      9  C   UNL d   1      20.503 -19.317   0.479  0.00  0.00     0.067 A 
ATOM     10  C   UNL d   1      20.602 -19.496   1.864  0.00  0.00     0.020 A 
ATOM     11  C   UNL d   1      19.671 -20.269   2.574  0.00  0.00     0.002 A 
ATOM     12  C   UNL d   1      18.603 -20.878   1.921  0.00  0.00     0.009 A 
ATOM     13  C   UNL d   1      18.451 -20.726   0.540  0.00  0.00    -0.028 A 
ATOM     14  C   UNL d   1      17.280 -21.390  -0.144  0.00  0.00     0.051 C 
ATOM     15  C   UNL d   1      19.403 -19.951  -0.173  0.00  0.00     0.087 A 
BRANCH  15  16
ATOM     16  O   UNL d   1      19.184 -19.864  -1.528  0.00  0.00    -0.359 OA
ATOM     17  H   UNL d   1      19.663 -19.082  -1.872  0.00  0.00     0.217 HD
ENDBRANCH  15  16
ENDBRANCH   6   9
ENDBRANCH   1   5
BRANCH   2  18
ATOM     18  C   UNL d   1      26.239 -16.666  -1.122  0.00  0.00     0.043 C 
ATOM     19  C   UNL d   1      27.797 -16.698  -1.775  0.00  0.00     0.024 C 
ATOM     20  C   UNL d   1      28.004 -15.416  -2.712  0.00  0.00    -0.013 C 
ATOM     21  C   UNL d   1      26.967 -15.547  -3.837  0.00  0.00     0.009 C 
ATOM     22  C   UNL d   1      27.853 -14.192  -1.795  0.00  0.00     0.009 C 
ATOM     23  C   UNL d   1      25.575 -15.453  -3.249  0.00  0.00    -0.013 C 
ATOM     24  C   UNL d   1      25.428 -14.179  -2.401  0.00  0.00     0.009 C 
ATOM     25  C   UNL d   1      25.358 -16.675  -2.389  0.00  0.00     0.024 C 
ATOM     26  C   UNL d   1      26.435 -14.139  -1.244  0.00  0.00    -0.013 C 
ATOM     27  C   UNL d   1      26.220 -15.337  -0.334  0.00  0.00     0.024 C 
ENDBRANCH   2  18
TORSDOF 4
ENDMDL
MODEL 2
REMARK VINA RESULT:    -8.614      0.677      1.650
REMARK INTER + INTRA:         -11.400
REMARK INTER:                  -9.807
REMARK INTRA:                  -1.592
REMARK CONF_INDEPENDENT:        1.193
REMARK UNBOUND:                -1.592
REMARK  4 active torsions:
REMARK  status: ('A' for Active; 'I' for Inactive)
REMARK    1  A    between atoms: C_6  and  C_7 
REMARK       I    between atoms: C_7  and  N_9 
REMARK    2  A    between atoms: N_9  and  N_10 
REMARK       I    between atoms: N_10  and  C_11 
REMARK    3  A    between atoms: C_11  and  C_13 
REMARK    4  A    between atoms: C_23  and  O_24 
ROOT
ATOM      1  N   UNL d   1      23.804 -17.698  -0.361  0.00  0.00    -0.267 N 
ATOM      2  C   UNL d   1      25.232 -17.705  -0.022  0.00  0.00     0.244 C 
ATOM      3  O   UNL d   1      25.660 -18.341   0.924  0.00  0.00    -0.271 OA
ATOM      4  H   UNL d   1      23.411 -17.138  -1.116  0.00  0.00     0.190 HD
ENDROOT
BRANCH   1   5
ATOM      5  N   UNL d   1      22.810 -18.552   0.266  0.00  0.00    -0.263 N 
ATOM      6  C   UNL d   1      21.447 -18.528  -0.168  0.00  0.00     0.272 C 
ATOM      7  O   UNL d   1      21.059 -17.836  -1.095  0.00  0.00    -0.266 OA
ATOM      8  H   UNL d   1      23.155 -19.113   1.030  0.00  0.00     0.190 HD
BRANCH   6   9
ATOM      9  C   UNL d   1      20.420 -19.403   0.560  0.00  0.00     0.067 A 
ATOM     10  C   UNL d   1      20.485 -19.575   1.948  0.00  0.00     0.020 A 
ATOM     11  C   UNL d   1      19.558 -20.372   2.634  0.00  0.00     0.002 A 
ATOM     12  C   UNL d   1      18.527 -21.016   1.954  0.00  0.00     0.009 A 
ATOM     13  C   UNL d   1      18.410 -20.873   0.569  0.00  0.00    -0.028 A 
ATOM     14  C   UNL d   1      17.280 -21.575  -0.145  0.00  0.00     0.051 C 
ATOM     15  C   UNL d   1      19.358 -20.072  -0.121  0.00  0.00     0.087 A 
BRANCH  15  16
ATOM     16  O   UNL d   1      19.176 -19.997  -1.482  0.00  0.00    -0.359 OA
ATOM     17  H   UNL d   1      19.424 -19.098  -1.780  0.00  0.00     0.217 HD
ENDBRANCH  15  16
ENDBRANCH   6   9
ENDBRANCH   1   5
BRANCH   2  18
ATOM     18  C   UNL d   1      26.145 -16.697  -0.984  0.00  0.00     0.043 C 
ATOM     19  C   UNL d   1      26.107 -16.150  -2.583  0.00  0.00     0.024 C 
ATOM     20  C   UNL d   1      27.319 -15.131  -2.822  0.00  0.00    -0.013 C 
ATOM     21  C   UNL d   1      27.073 -13.955  -1.865  0.00  0.00     0.009 C 
ATOM     22  C   UNL d   1      28.604 -15.938  -2.583  0.00  0.00     0.009 C 
ATOM     23  C   UNL d   1      27.174 -14.444  -0.435  0.00  0.00    -0.013 C 
ATOM     24  C   UNL d   1      28.504 -15.178  -0.203  0.00  0.00     0.009 C 
ATOM     25  C   UNL d   1      26.015 -15.381  -0.189  0.00  0.00     0.024 C 
ATOM     26  C   UNL d   1      28.660 -16.391  -1.131  0.00  0.00    -0.013 C 
ATOM     27  C   UNL d   1      27.530 -17.376  -0.884  0.00  0.00     0.024 C 
ENDBRANCH   2  18
TORSDOF 4
ENDMDL
MODEL 3
REMARK VINA RESULT:    -7.380      1.604      2.090
REMARK INTER + INTRA:          -9.772
REMARK INTER:                  -8.573
REMARK INTRA:                  -1.198
REMARK CONF_INDEPENDENT:        1.193
REMARK UNBOUND:                -1.198
REMARK  4 active torsions:
REMARK  status: ('A' for Active; 'I' for Inactive)
REMARK    1  A    between atoms: C_6  and  C_7 
REMARK       I    between atoms: C_7  and  N_9 
REMARK    2  A    between atoms: N_9  and  N_10 
REMARK       I    between atoms: N_10  and  C_11 
REMARK    3  A    between atoms: C_11  and  C_13 
REMARK    4  A    between atoms: C_23  and  O_24 
ROOT
ATOM      1  N   UNL d   1      24.337 -16.673  -1.215  0.00  0.00    -0.267 N 
ATOM      2  C   UNL d   1      24.283 -15.461  -2.040  0.00  0.00     0.244 C 
ATOM      3  O   UNL d   1      23.233 -14.886  -2.260  0.00  0.00    -0.271 OA
ATOM      4  H   UNL d   1      25.194 -17.202  -1.053  0.00  0.00     0.190 HD
ENDROOT
BRANCH   1   5
ATOM      5  N   UNL d   1      23.214 -17.202  -0.461  0.00  0.00    -0.263 N 
ATOM      6  C   UNL d   1      22.694 -18.505  -0.739  0.00  0.00     0.272 C 
ATOM      7  O   UNL d   1      23.179 -19.247  -1.577  0.00  0.00    -0.266 OA
ATOM      8  H   UNL d   1      22.829 -16.569   0.225  0.00  0.00     0.190 HD
BRANCH   6   9
ATOM      9  C   UNL d   1      21.471 -19.000   0.041  0.00  0.00     0.067 A 
ATOM     10  C   UNL d   1      21.408 -18.858   1.433  0.00  0.00     0.020 A 
ATOM     11  C   UNL d   1      20.300 -19.306   2.168  0.00  0.00     0.002 A 
ATOM     12  C   UNL d   1      19.214 -19.901   1.532  0.00  0.00     0.009 A 
ATOM     13  C   UNL d   1      19.221 -20.061   0.144  0.00  0.00    -0.028 A 
ATOM     14  C   UNL d   1      18.028 -20.703  -0.524  0.00  0.00     0.051 C 
ATOM     15  C   UNL d   1      20.350 -19.615  -0.592  0.00  0.00     0.087 A 
BRANCH  15  16
ATOM     16  O   UNL d   1      20.278 -19.823  -1.950  0.00  0.00    -0.359 OA
ATOM     17  H   UNL d   1      21.171 -19.697  -2.333  0.00  0.00     0.217 HD
ENDBRANCH  15  16
ENDBRANCH   6   9
ENDBRANCH   1   5
BRANCH   2  18
ATOM     18  C   UNL d   1      25.756 -15.040  -2.695  0.00  0.00     0.043 C 
ATOM     19  C   UNL d   1      27.379 -15.441  -2.443  0.00  0.00     0.024 C 
ATOM     20  C   UNL d   1      28.288 -14.657  -3.504  0.00  0.00    -0.013 C 
ATOM     21  C   UNL d   1      27.839 -15.153  -4.886  0.00  0.00     0.009 C 
ATOM     22  C   UNL d   1      28.075 -13.162  -3.221  0.00  0.00     0.009 C 
ATOM     23  C   UNL d   1      26.405 -14.733  -5.128  0.00  0.00    -0.013 C 
ATOM     24  C   UNL d   1      26.238 -13.219  -4.917  0.00  0.00     0.009 C 
ATOM     25  C   UNL d   1      25.535 -15.492  -4.154  0.00  0.00     0.024 C 
ATOM     26  C   UNL d   1      26.624 -12.793  -3.493  0.00  0.00    -0.013 C 
ATOM     27  C   UNL d   1      25.741 -13.509  -2.485  0.00  0.00     0.024 C 
ENDBRANCH   2  18
TORSDOF 4
ENDMDL
MODEL 4
REMARK VINA RESULT:    -7.080      5.684      8.957
REMARK INTER + INTRA:          -9.409
REMARK INTER:                  -8.273
REMARK INTRA:                  -1.136
REMARK CONF_INDEPENDENT:        1.193
REMARK UNBOUND:                -1.136
REMARK  4 active torsions:
REMARK  status: ('A' for Active; 'I' for Inactive)
REMARK    1  A    between atoms: C_6  and  C_7 
REMARK       I    between atoms: C_7  and  N_9 
REMARK    2  A    between atoms: N_9  and  N_10 
REMARK       I    between atoms: N_10  and  C_11 
REMARK    3  A    between atoms: C_11  and  C_13 
REMARK    4  A    between atoms: C_23  and  O_24 
ROOT
ATOM      1  N   UNL d   1      28.247 -14.963   2.167  0.00  0.00    -0.267 N 
ATOM      2  C   UNL d   1      27.612 -14.021   1.238  0.00  0.00     0.244 C 
ATOM      3  O   UNL d   1      27.283 -12.902   1.589  0.00  0.00    -0.271 OA
ATOM      4  H   UNL d   1      28.488 -15.920   1.915  0.00  0.00     0.190 HD
ENDROOT
BRANCH   1   5
ATOM      5  N   UNL d   1      28.691 -14.618   3.507  0.00  0.00    -0.263 N 
ATOM      6  C   UNL d   1      27.814 -13.952   4.419  0.00  0.00     0.272 C 
ATOM      7  O   UNL d   1      26.656 -13.679   4.147  0.00  0.00    -0.266 OA
ATOM      8  H   UNL d   1      29.652 -14.852   3.707  0.00  0.00     0.190 HD
BRANCH   6   9
ATOM      9  C   UNL d   1      28.342 -13.555   5.803  0.00  0.00     0.067 A 
ATOM     10  C   UNL d   1      27.706 -12.556   6.549  0.00  0.00     0.020 A 
ATOM     11  C   UNL d   1      28.173 -12.174   7.815  0.00  0.00     0.002 A 
ATOM     12  C   UNL d   1      29.288 -12.788   8.381  0.00  0.00     0.009 A 
ATOM     13  C   UNL d   1      29.957 -13.796   7.683  0.00  0.00    -0.028 A 
ATOM     14  C   UNL d   1      31.158 -14.452   8.320  0.00  0.00     0.051 C 
ATOM     15  C   UNL d   1      29.484 -14.171   6.397  0.00  0.00     0.087 A 
BRANCH  15  16
ATOM     16  O   UNL d   1      30.209 -15.161   5.777  0.00  0.00    -0.359 OA
ATOM     17  H   UNL d   1      31.106 -14.818   5.585  0.00  0.00     0.217 HD
ENDBRANCH  15  16
ENDBRANCH   6   9
ENDBRANCH   1   5
BRANCH   2  18
ATOM     18  C   UNL d   1      27.314 -14.673  -0.265  0.00  0.00     0.043 C 
ATOM     19  C   UNL d   1      27.247 -14.118  -1.861  0.00  0.00     0.024 C 
ATOM     20  C   UNL d   1      26.937 -15.350  -2.837  0.00  0.00    -0.013 C 
ATOM     21  C   UNL d   1      28.116 -16.321  -2.673  0.00  0.00     0.009 C 
ATOM     22  C   UNL d   1      25.559 -15.885  -2.417  0.00  0.00     0.009 C 
ATOM     23  C   UNL d   1      28.127 -16.862  -1.259  0.00  0.00    -0.013 C 
ATOM     24  C   UNL d   1      26.760 -17.463  -0.895  0.00  0.00     0.009 C 
ATOM     25  C   UNL d   1      28.452 -15.713  -0.333  0.00  0.00     0.024 C 
ATOM     26  C   UNL d   1      25.632 -16.427  -0.998  0.00  0.00    -0.013 C 
ATOM     27  C   UNL d   1      25.906 -15.273  -0.048  0.00  0.00     0.024 C 
ENDBRANCH   2  18
TORSDOF 4
ENDMDL
MODEL 5
REMARK VINA RESULT:    -6.951      7.656     10.728
REMARK INTER + INTRA:          -9.182
REMARK INTER:                  -8.144
REMARK INTRA:                  -1.038
REMARK CONF_INDEPENDENT:        1.193
REMARK UNBOUND:                -1.038
REMARK  4 active torsions:
REMARK  status: ('A' for Active; 'I' for Inactive)
REMARK    1  A    between atoms: C_6  and  C_7 
REMARK       I    between atoms: C_7  and  N_9 
REMARK    2  A    between atoms: N_9  and  N_10 
REMARK       I    between atoms: N_10  and  C_11 
REMARK    3  A    between atoms: C_11  and  C_13 
REMARK    4  A    between atoms: C_23  and  O_24 
ROOT
ATOM      1  N   UNL d   1      29.778 -14.080   4.921  0.00  0.00    -0.267 N 
ATOM      2  C   UNL d   1      28.810 -13.758   5.976  0.00  0.00     0.244 C 
ATOM      3  O   UNL d   1      27.614 -13.717   5.753  0.00  0.00    -0.271 OA
ATOM      4  H   UNL d   1      30.787 -14.074   5.067  0.00  0.00     0.190 HD
ENDROOT
BRANCH   1   5
ATOM      5  N   UNL d   1      29.418 -14.534   3.589  0.00  0.00    -0.263 N 
ATOM      6  C   UNL d   1      28.402 -13.864   2.838  0.00  0.00     0.272 C 
ATOM      7  O   UNL d   1      27.822 -12.870   3.245  0.00  0.00    -0.266 OA
ATOM      8  H   UNL d   1      29.908 -15.359   3.276  0.00  0.00     0.190 HD
BRANCH   6   9
ATOM      9  C   UNL d   1      28.012 -14.413   1.460  0.00  0.00     0.067 A 
ATOM     10  C   UNL d   1      26.754 -14.134   0.912  0.00  0.00     0.020 A 
ATOM     11  C   UNL d   1      26.374 -14.628  -0.345  0.00  0.00     0.002 A 
ATOM     12  C   UNL d   1      27.246 -15.409  -1.099  0.00  0.00     0.009 A 
ATOM     13  C   UNL d   1      28.516 -15.713  -0.602  0.00  0.00    -0.028 A 
ATOM     14  C   UNL d   1      29.446 -16.556  -1.442  0.00  0.00     0.051 C 
ATOM     15  C   UNL d   1      28.890 -15.218   0.675  0.00  0.00     0.087 A 
BRANCH  15  16
ATOM     16  O   UNL d   1      30.152 -15.575   1.090  0.00  0.00    -0.359 OA
ATOM     17  H   UNL d   1      30.072 -16.314   1.728  0.00  0.00     0.217 HD
ENDBRANCH  15  16
ENDBRANCH   6   9
ENDBRANCH   1   5
BRANCH   2  18
ATOM     18  C   UNL d   1      29.522 -13.371   7.432  0.00  0.00     0.043 C 
ATOM     19  C   UNL d   1      31.093 -13.214   8.034  0.00  0.00     0.024 C 
ATOM     20  C   UNL d   1      31.029 -12.760   9.569  0.00  0.00    -0.013 C 
ATOM     21  C   UNL d   1      30.332 -11.391   9.571  0.00  0.00     0.009 C 
ATOM     22  C   UNL d   1      30.301 -13.890  10.313  0.00  0.00     0.009 C 
ATOM     23  C   UNL d   1      28.905 -11.555   9.092  0.00  0.00    -0.013 C 
ATOM     24  C   UNL d   1      28.177 -12.635   9.908  0.00  0.00     0.009 C 
ATOM     25  C   UNL d   1      28.954 -11.951   7.635  0.00  0.00     0.024 C 
ATOM     26  C   UNL d   1      28.871 -13.999   9.803  0.00  0.00    -0.013 C 
ATOM     27  C   UNL d   1      28.905 -14.449   8.352  0.00  0.00     0.024 C 
ENDBRANCH   2  18
TORSDOF 4
ENDMDL
MODEL 6
REMARK VINA RESULT:    -6.842      8.407     11.596
REMARK INTER + INTRA:          -9.168
REMARK INTER:                  -8.036
REMARK INTRA:                  -1.133
REMARK CONF_INDEPENDENT:        1.193
REMARK UNBOUND:                -1.133
REMARK  4 active torsions:
REMARK  status: ('A' for Active; 'I' for Inactive)
REMARK    1  A    between atoms: C_6  and  C_7 
REMARK       I    between atoms: C_7  and  N_9 
REMARK    2  A    between atoms: N_9  and  N_10 
REMARK       I    between atoms: N_10  and  C_11 
REMARK    3  A    between atoms: C_11  and  C_13 
REMARK    4  A    between atoms: C_23  and  O_24 
ROOT
ATOM      1  N   UNL d   1      28.937 -14.813   6.162  0.00  0.00    -0.267 N 
ATOM      2  C   UNL d   1      29.414 -13.712   7.006  0.00  0.00     0.244 C 
ATOM      3  O   UNL d   1      29.991 -12.749   6.533  0.00  0.00    -0.271 OA
ATOM      4  H   UNL d   1      28.494 -15.652   6.535  0.00  0.00     0.190 HD
ENDROOT
BRANCH   1   5
ATOM      5  N   UNL d   1      28.949 -14.797   4.710  0.00  0.00    -0.263 N 
ATOM      6  C   UNL d   1      28.018 -13.993   3.980  0.00  0.00     0.272 C 
ATOM      7  O   UNL d   1      27.207 -13.260   4.522  0.00  0.00    -0.266 OA
ATOM      8  H   UNL d   1      29.627 -15.412   4.285  0.00  0.00     0.190 HD
BRANCH   6   9
ATOM      9  C   UNL d   1      28.027 -14.050   2.448  0.00  0.00     0.067 A 
ATOM     10  C   UNL d   1      26.887 -13.700   1.714  0.00  0.00     0.020 A 
ATOM     11  C   UNL d   1      26.871 -13.748   0.312  0.00  0.00     0.002 A 
ATOM     12  C   UNL d   1      28.001 -14.138  -0.402  0.00  0.00     0.009 A 
ATOM     13  C   UNL d   1      29.169 -14.491   0.279  0.00  0.00    -0.028 A 
ATOM     14  C   UNL d   1      30.383 -14.904  -0.518  0.00  0.00     0.051 C 
ATOM     15  C   UNL d   1      29.174 -14.450   1.698  0.00  0.00     0.087 A 
BRANCH  15  16
ATOM     16  O   UNL d   1      30.360 -14.825   2.286  0.00  0.00    -0.359 OA
ATOM     17  H   UNL d   1      30.405 -15.803   2.301  0.00  0.00     0.217 HD
ENDBRANCH  15  16
ENDBRANCH   6   9
ENDBRANCH   1   5
BRANCH   2  18
ATOM     18  C   UNL d   1      29.171 -13.972   8.634  0.00  0.00     0.043 C 
ATOM     19  C   UNL d   1      28.532 -15.199   9.605  0.00  0.00     0.024 C 
ATOM     20  C   UNL d   1      28.659 -14.775  11.145  0.00  0.00    -0.013 C 
ATOM     21  C   UNL d   1      30.163 -14.628  11.416  0.00  0.00     0.009 C 
ATOM     22  C   UNL d   1      27.817 -13.500  11.303  0.00  0.00     0.009 C 
ATOM     23  C   UNL d   1      30.712 -13.484  10.589  0.00  0.00    -0.013 C 
ATOM     24  C   UNL d   1      29.900 -12.201  10.828  0.00  0.00     0.009 C 
ATOM     25  C   UNL d   1      30.627 -13.888   9.136  0.00  0.00     0.024 C 
ATOM     26  C   UNL d   1      28.420 -12.382  10.464  0.00  0.00    -0.013 C 
ATOM     27  C   UNL d   1      28.294 -12.753   8.995  0.00  0.00     0.024 C 
ENDBRANCH   2  18
TORSDOF 4
ENDMDL
MODEL 7
REMARK VINA RESULT:    -6.652      6.418      9.631
REMARK INTER + INTRA:          -9.360
REMARK INTER:                  -7.845
REMARK INTRA:                  -1.515
REMARK CONF_INDEPENDENT:        1.193
REMARK UNBOUND:                -1.515
REMARK  4 active torsions:
REMARK  status: ('A' for Active; 'I' for Inactive)
REMARK    1  A    between atoms: C_6  and  C_7 
REMARK       I    between atoms: C_7  and  N_9 
REMARK    2  A    between atoms: N_9  and  N_10 
REMARK       I    between atoms: N_10  and  C_11 
REMARK    3  A    between atoms: C_11  and  C_13 
REMARK    4  A    between atoms: C_23  and  O_24 
ROOT
ATOM      1  N   UNL d   1      28.014 -14.508   3.290  0.00  0.00    -0.267 N 
ATOM      2  C   UNL d   1      27.425 -14.159   1.992  0.00  0.00     0.244 C 
ATOM      3  O   UNL d   1      26.951 -13.056   1.783  0.00  0.00    -0.271 OA
ATOM      4  H   UNL d   1      28.374 -15.436   3.509  0.00  0.00     0.190 HD
ENDROOT
BRANCH   1   5
ATOM      5  N   UNL d   1      28.240 -13.562   4.368  0.00  0.00    -0.263 N 
ATOM      6  C   UNL d   1      28.516 -14.018   5.696  0.00  0.00     0.272 C 
ATOM      7  O   UNL d   1      28.617 -15.199   5.984  0.00  0.00    -0.266 OA
ATOM      8  H   UNL d   1      28.150 -12.592   4.106  0.00  0.00     0.190 HD
BRANCH   6   9
ATOM      9  C   UNL d   1      28.691 -12.985   6.815  0.00  0.00     0.067 A 
ATOM     10  C   UNL d   1      28.759 -11.618   6.520  0.00  0.00     0.020 A 
ATOM     11  C   UNL d   1      28.922 -10.655   7.527  0.00  0.00     0.002 A 
ATOM     12  C   UNL d   1      29.011 -11.030   8.865  0.00  0.00     0.009 A 
ATOM     13  C   UNL d   1      28.942 -12.380   9.218  0.00  0.00    -0.028 A 
ATOM     14  C   UNL d   1      29.034 -12.761  10.676  0.00  0.00     0.051 C 
ATOM     15  C   UNL d   1      28.788 -13.350   8.192  0.00  0.00     0.087 A 
BRANCH  15  16
ATOM     16  O   UNL d   1      28.742 -14.654   8.626  0.00  0.00    -0.359 OA
ATOM     17  H   UNL d   1      29.295 -15.200   8.031  0.00  0.00     0.217 HD
ENDBRANCH  15  16
ENDBRANCH   6   9
ENDBRANCH   1   5
BRANCH   2  18
ATOM     18  C   UNL d   1      27.393 -15.430   0.916  0.00  0.00     0.043 C 
ATOM     19  C   UNL d   1      27.104 -17.094   0.980  0.00  0.00     0.024 C 
ATOM     20  C   UNL d   1      27.205 -17.706  -0.497  0.00  0.00    -0.013 C 
ATOM     21  C   UNL d   1      26.101 -17.017  -1.312  0.00  0.00     0.009 C 
ATOM     22  C   UNL d   1      28.647 -17.450  -0.963  0.00  0.00     0.009 C 
ATOM     23  C   UNL d   1      26.405 -15.537  -1.418  0.00  0.00    -0.013 C 
ATOM     24  C   UNL d   1      27.825 -15.311  -1.962  0.00  0.00     0.009 C 
ATOM     25  C   UNL d   1      26.279 -14.944  -0.035  0.00  0.00     0.024 C 
ATOM     26  C   UNL d   1      28.892 -15.951  -1.065  0.00  0.00    -0.013 C 
ATOM     27  C   UNL d   1      28.821 -15.349   0.329  0.00  0.00     0.024 C 
ENDBRANCH   2  18
TORSDOF 4
ENDMDL
MODEL 8
REMARK VINA RESULT:    -6.528      6.309      9.581
REMARK INTER + INTRA:          -9.296
REMARK INTER:                  -7.722
REMARK INTRA:                  -1.574
REMARK CONF_INDEPENDENT:        1.193
REMARK UNBOUND:                -1.574
REMARK  4 active torsions:
REMARK  status: ('A' for Active; 'I' for Inactive)
REMARK    1  A    between atoms: C_6  and  C_7 
REMARK       I    between atoms: C_7  and  N_9 
REMARK    2  A    between atoms: N_9  and  N_10 
REMARK       I    between atoms: N_10  and  C_11 
REMARK    3  A    between atoms: C_11  and  C_13 
REMARK    4  A    between atoms: C_23  and  O_24 
ROOT
ATOM      1  N   UNL d   1      28.138 -14.229   2.949  0.00  0.00    -0.267 N 
ATOM      2  C   UNL d   1      27.462 -13.826   1.711  0.00  0.00     0.244 C 
ATOM      3  O   UNL d   1      26.848 -12.777   1.631  0.00  0.00    -0.271 OA
ATOM      4  H   UNL d   1      28.618 -15.121   3.059  0.00  0.00     0.190 HD
ENDROOT
BRANCH   1   5
ATOM      5  N   UNL d   1      28.288 -13.376   4.115  0.00  0.00    -0.263 N 
ATOM      6  C   UNL d   1      28.727 -13.915   5.365  0.00  0.00     0.272 C 
ATOM      7  O   UNL d   1      29.035 -15.088   5.510  0.00  0.00    -0.266 OA
ATOM      8  H   UNL d   1      28.026 -12.412   3.971  0.00  0.00     0.190 HD
BRANCH   6   9
ATOM      9  C   UNL d   1      28.816 -12.990   6.584  0.00  0.00     0.067 A 
ATOM     10  C   UNL d   1      28.817 -11.599   6.425  0.00  0.00     0.020 A 
ATOM     11  C   UNL d   1      28.900 -10.734   7.526  0.00  0.00     0.002 A 
ATOM     12  C   UNL d   1      28.973 -11.233   8.824  0.00  0.00     0.009 A 
ATOM     13  C   UNL d   1      28.968 -12.614   9.041  0.00  0.00    -0.028 A 
ATOM     14  C   UNL d   1      29.042 -13.131  10.458  0.00  0.00     0.051 C 
ATOM     15  C   UNL d   1      28.895 -13.484   7.921  0.00  0.00     0.087 A 
BRANCH  15  16
ATOM     16  O   UNL d   1      28.908 -14.825   8.225  0.00  0.00    -0.359 OA
ATOM     17  H   UNL d   1      28.906 -15.334   7.389  0.00  0.00     0.217 HD
ENDBRANCH  15  16
ENDBRANCH   6   9
ENDBRANCH   1   5
BRANCH   2  18
ATOM     18  C   UNL d   1      27.545 -14.975   0.508  0.00  0.00     0.043 C 
ATOM     19  C   UNL d   1      28.660 -15.451  -0.670  0.00  0.00     0.024 C 
ATOM     20  C   UNL d   1      28.072 -16.699  -1.483  0.00  0.00    -0.013 C 
ATOM     21  C   UNL d   1      27.894 -17.823  -0.452  0.00  0.00     0.009 C 
ATOM     22  C   UNL d   1      26.788 -16.195  -2.160  0.00  0.00     0.009 C 
ATOM     23  C   UNL d   1      26.846 -17.414   0.561  0.00  0.00    -0.013 C 
ATOM     24  C   UNL d   1      25.545 -16.991  -0.142  0.00  0.00     0.009 C 
ATOM     25  C   UNL d   1      27.405 -16.257   1.355  0.00  0.00     0.024 C 
ATOM     26  C   UNL d   1      25.767 -15.812  -1.099  0.00  0.00    -0.013 C 
ATOM     27  C   UNL d   1      26.294 -14.615  -0.325  0.00  0.00     0.024 C 
ENDBRANCH   2  18
TORSDOF 4
ENDMDL
MODEL 9
REMARK VINA RESULT:    -6.518      5.689      8.261
REMARK INTER + INTRA:          -9.242
REMARK INTER:                  -7.711
REMARK INTRA:                  -1.530
REMARK CONF_INDEPENDENT:        1.193
REMARK UNBOUND:                -1.530
REMARK  4 active torsions:
REMARK  status: ('A' for Active; 'I' for Inactive)
REMARK    1  A    between atoms: C_6  and  C_7 
REMARK       I    between atoms: C_7  and  N_9 
REMARK    2  A    between atoms: N_9  and  N_10 
REMARK       I    between atoms: N_10  and  C_11 
REMARK    3  A    between atoms: C_11  and  C_13 
REMARK    4  A    between atoms: C_23  and  O_24 
ROOT
ATOM      1  N   UNL d   1      27.439 -14.554   0.403  0.00  0.00    -0.267 N 
ATOM      2  C   UNL d   1      27.133 -15.737  -0.410  0.00  0.00     0.244 C 
ATOM      3  O   UNL d   1      27.301 -16.865   0.017  0.00  0.00    -0.271 OA
ATOM      4  H   UNL d   1      27.354 -13.599   0.056  0.00  0.00     0.190 HD
ENDROOT
BRANCH   1   5
ATOM      5  N   UNL d   1      27.799 -14.597   1.810  0.00  0.00    -0.263 N 
ATOM      6  C   UNL d   1      27.612 -13.453   2.648  0.00  0.00     0.272 C 
ATOM      7  O   UNL d   1      27.112 -12.414   2.250  0.00  0.00    -0.266 OA
ATOM      8  H   UNL d   1      28.212 -15.466   2.114  0.00  0.00     0.190 HD
BRANCH   6   9
ATOM      9  C   UNL d   1      28.060 -13.524   4.113  0.00  0.00     0.067 A 
ATOM     10  C   UNL d   1      28.482 -14.736   4.672  0.00  0.00     0.020 A 
ATOM     11  C   UNL d   1      28.893 -14.825   6.010  0.00  0.00     0.002 A 
ATOM     12  C   UNL d   1      28.905 -13.700   6.830  0.00  0.00     0.009 A 
ATOM     13  C   UNL d   1      28.501 -12.463   6.321  0.00  0.00    -0.028 A 
ATOM     14  C   UNL d   1      28.530 -11.256   7.228  0.00  0.00     0.051 C 
ATOM     15  C   UNL d   1      28.077 -12.382   4.969  0.00  0.00     0.087 A 
BRANCH  15  16
ATOM     16  O   UNL d   1      27.685 -11.130   4.556  0.00  0.00    -0.359 OA
ATOM     17  H   UNL d   1      27.684 -11.111   3.577  0.00  0.00     0.217 HD
ENDBRANCH  15  16
ENDBRANCH   6   9
ENDBRANCH   1   5
BRANCH   2  18
ATOM     18  C   UNL d   1      26.645 -15.367  -1.959  0.00  0.00     0.043 C 
ATOM     19  C   UNL d   1      25.530 -15.968  -3.078  0.00  0.00     0.024 C 
ATOM     20  C   UNL d   1      25.568 -15.065  -4.400  0.00  0.00    -0.013 C 
ATOM     21  C   UNL d   1      25.150 -13.655  -3.956  0.00  0.00     0.009 C 
ATOM     22  C   UNL d   1      26.990 -15.200  -4.964  0.00  0.00     0.009 C 
ATOM     23  C   UNL d   1      26.189 -13.101  -3.004  0.00  0.00    -0.013 C 
ATOM     24  C   UNL d   1      27.592 -13.175  -3.627  0.00  0.00     0.009 C 
ATOM     25  C   UNL d   1      26.138 -13.926  -1.740  0.00  0.00     0.024 C 
ATOM     26  C   UNL d   1      27.989 -14.616  -3.976  0.00  0.00    -0.013 C 
ATOM     27  C   UNL d   1      27.987 -15.469  -2.718  0.00  0.00     0.024 C 
ENDBRANCH   2  18
TORSDOF 4
ENDMDL
