MODEL 1
REMARK VINA RESULT:   -31.834      0.000      0.000
REMARK INTER + INTRA:         -35.935
REMARK INTER:                 -34.220
REMARK INTRA:                  -1.714
REMARK CONF_INDEPENDENT:        2.386
REMARK UNBOUND:                -1.714
REMARK  8 active torsions:
REMARK  status: ('A' for Active; 'I' for Inactive)
REMARK       I    between atoms: N_2  and  C_3 
REMARK    1  A    between atoms: C_3  and  C_5 
REMARK    2  A    between atoms: C_7  and  O_8 
REMARK    3  A    between atoms: O_8  and  C_9 
REMARK    4  A    between atoms: C_14  and  N_15 
REMARK    5  A    between atoms: N_15  and  C_16 
REMARK    6  A    between atoms: C_21  and  O_22 
REMARK    7  A    between atoms: O_22  and  C_23 
REMARK    8  A    between atoms: C_23  and  C_24 
ROOT
ATOM      1  C   UNL d   1      24.696 -17.349  -0.485  0.00  0.00     0.078 A 
ATOM      2  C   UNL d   1      25.554 -16.503   0.237  0.00  0.00     0.040 A 
ATOM      3  C   UNL d   1      26.283 -15.484  -0.399  0.00  0.00     0.042 A 
ATOM      4  C   UNL d   1      26.156 -15.416  -1.783  0.00  0.00     0.108 A 
ATOM      5  O   UNL d   1      26.761 -14.535  -2.635  0.00  0.00    -0.276 OA
ATOM      6  C   UNL d   1      26.319 -14.902  -3.884  0.00  0.00     0.252 A 
ATOM      7  N   UNL d   1      25.484 -15.926  -3.875  0.00  0.00    -0.206 NA
ATOM      8  C   UNL d   1      25.369 -16.266  -2.542  0.00  0.00     0.097 A 
ATOM      9  C   UNL d   1      24.617 -17.263  -1.887  0.00  0.00     0.072 A 
ENDROOT
BRANCH   6  10
ATOM     10  N   UNL d   1      26.700 -14.164  -4.954  0.00  0.00    -0.320 N 
ATOM     11  H   UNL d   1      25.979 -13.630  -5.422  0.00  0.00     0.169 HD
BRANCH  10  12
ATOM     12  C   UNL d   1      27.979 -14.136  -5.540  0.00  0.00     0.038 A 
ATOM     13  C   UNL d   1      28.160 -13.615  -6.819  0.00  0.00     0.031 A 
ATOM     14  C   UNL d   1      29.403 -13.688  -7.438  0.00  0.00     0.029 A 
ATOM     15  C   UNL d   1      30.506 -14.262  -6.794  0.00  0.00     0.067 A 
ATOM     16 CL   UNL d   1      31.910 -14.306  -7.814  0.00  0.00    -0.081 Cl
ATOM     17  C   UNL d   1      30.389 -14.729  -5.465  0.00  0.00     0.092 A 
ATOM     18  C   UNL d   1      29.109 -14.644  -4.855  0.00  0.00     0.068 A 
BRANCH  17  19
ATOM     19  O   UNL d   1      31.370 -15.276  -4.635  0.00  0.00    -0.349 OA
BRANCH  19  20
ATOM     20  C   UNL d   1      31.029 -15.381  -3.252  0.00  0.00     0.180 C 
BRANCH  20  21
ATOM     21  C   UNL d   1      30.425 -16.719  -2.769  0.00  0.00     0.013 C 
ATOM     22  C   UNL d   1      29.120 -16.609  -1.988  0.00  0.00     0.034 C 
ATOM     23  C   UNL d   1      29.301 -16.389  -0.495  0.00  0.00     0.232 C 
ATOM     24  N   UNL d   1      30.258 -17.388   0.067  0.00  0.00    -0.075 N 
ATOM     25  C   UNL d   1      31.597 -17.356  -0.588  0.00  0.00     0.232 C 
ATOM     26  H   UNL d   1      29.858 -18.336   0.012  0.00  0.00     0.277 HD
ATOM     27  H   UNL d   1      30.377 -17.204   1.073  0.00  0.00     0.277 HD
ATOM     28  C   UNL d   1      31.426 -17.653  -2.065  0.00  0.00     0.034 C 
ENDBRANCH  20  21
ENDBRANCH  19  20
ENDBRANCH  17  19
ENDBRANCH  10  12
ENDBRANCH   6  10
BRANCH   1  29
ATOM     29  O   UNL d   1      23.942 -18.325   0.149  0.00  0.00    -0.311 OA
BRANCH  29  30
ATOM     30  C   UNL d   1      22.600 -18.457  -0.175  0.00  0.00     0.079 A 
ATOM     31  C   UNL d   1      21.798 -19.521   0.231  0.00  0.00     0.074 A 
ATOM     32  C   UNL d   1      20.464 -19.546  -0.148  0.00  0.00     0.126 A 
ATOM     33  N   UNL d   1      19.887 -18.575  -0.896  0.00  0.00    -0.255 NA
ATOM     34  C   UNL d   1      20.677 -17.543  -1.269  0.00  0.00     0.120 A 
ATOM     35  C   UNL d   1      22.023 -17.438  -0.936  0.00  0.00     0.056 A 
BRANCH  32  36
ATOM     36  C   UNL d   1      19.618 -20.723   0.244  0.00  0.00     0.269 C 
ATOM     37  N   UNL d   1      18.244 -20.520   0.271  0.00  0.00    -0.360 N 
ATOM     38  C   UNL d   1      17.350 -21.602   0.607  0.00  0.00     0.149 C 
ATOM     39  H   UNL d   1      17.848 -19.661  -0.091  0.00  0.00     0.162 HD
ATOM     40  O   UNL d   1      20.133 -21.799   0.551  0.00  0.00    -0.266 OA
ENDBRANCH  32  36
ENDBRANCH  29  30
ENDBRANCH   1  29
TORSDOF 8
ENDMDL
MODEL 2
REMARK VINA RESULT:   -31.494      4.587      6.037
REMARK INTER + INTRA:         -35.749
REMARK INTER:                 -33.881
REMARK INTRA:                  -1.869
REMARK CONF_INDEPENDENT:        2.386
REMARK UNBOUND:                -1.869
REMARK  8 active torsions:
REMARK  status: ('A' for Active; 'I' for Inactive)
REMARK       I    between atoms: N_2  and  C_3 
REMARK    1  A    between atoms: C_3  and  C_5 
REMARK    2  A    between atoms: C_7  and  O_8 
REMARK    3  A    between atoms: O_8  and  C_9 
REMARK    4  A    between atoms: C_14  and  N_15 
REMARK    5  A    between atoms: N_15  and  C_16 
REMARK    6  A    between atoms: C_21  and  O_22 
REMARK    7  A    between atoms: O_22  and  C_23 
REMARK    8  A    between atoms: C_23  and  C_24 
ROOT
ATOM      1  C   UNL d   1      24.730 -17.525  -0.772  0.00  0.00     0.078 A 
ATOM      2  C   UNL d   1      24.802 -17.137  -2.120  0.00  0.00     0.040 A 
ATOM      3  C   UNL d   1      25.551 -16.019  -2.521  0.00  0.00     0.042 A 
ATOM      4  C   UNL d   1      26.151 -15.288  -1.501  0.00  0.00     0.108 A 
ATOM      5  O   UNL d   1      26.916 -14.161  -1.618  0.00  0.00    -0.276 OA
ATOM      6  C   UNL d   1      27.246 -13.830  -0.325  0.00  0.00     0.252 A 
ATOM      7  N   UNL d   1      26.758 -14.661   0.579  0.00  0.00    -0.206 NA
ATOM      8  C   UNL d   1      26.058 -15.598  -0.154  0.00  0.00     0.097 A 
ATOM      9  C   UNL d   1      25.330 -16.741   0.232  0.00  0.00     0.072 A 
ENDROOT
BRANCH   6  10
ATOM     10  N   UNL d   1      28.066 -12.774  -0.111  0.00  0.00    -0.320 N 
ATOM     11  H   UNL d   1      28.919 -12.740  -0.657  0.00  0.00     0.169 HD
BRANCH  10  12
ATOM     12  C   UNL d   1      27.904 -11.768   0.858  0.00  0.00     0.038 A 
ATOM     13  C   UNL d   1      27.325 -10.546   0.520  0.00  0.00     0.031 A 
ATOM     14  C   UNL d   1      27.265  -9.516   1.452  0.00  0.00     0.029 A 
ATOM     15  C   UNL d   1      27.759  -9.678   2.752  0.00  0.00     0.067 A 
ATOM     16 CL   UNL d   1      27.642  -8.218   3.684  0.00  0.00    -0.081 Cl
ATOM     17  C   UNL d   1      28.280 -10.926   3.164  0.00  0.00     0.092 A 
ATOM     18  C   UNL d   1      28.331 -11.963   2.193  0.00  0.00     0.068 A 
BRANCH  17  19
ATOM     19  O   UNL d   1      28.765 -11.307   4.416  0.00  0.00    -0.349 OA
BRANCH  19  20
ATOM     20  C   UNL d   1      27.783 -11.721   5.367  0.00  0.00     0.180 C 
BRANCH  20  21
ATOM     21  C   UNL d   1      27.817 -13.196   5.826  0.00  0.00     0.013 C 
ATOM     22  C   UNL d   1      29.168 -13.700   6.325  0.00  0.00     0.034 C 
ATOM     23  C   UNL d   1      30.080 -14.233   5.232  0.00  0.00     0.232 C 
ATOM     24  N   UNL d   1      29.350 -15.214   4.375  0.00  0.00    -0.075 N 
ATOM     25  C   UNL d   1      28.124 -14.647   3.743  0.00  0.00     0.232 C 
ATOM     26  H   UNL d   1      29.112 -16.055   4.920  0.00  0.00     0.277 HD
ATOM     27  H   UNL d   1      29.983 -15.543   3.634  0.00  0.00     0.277 HD
ATOM     28  C   UNL d   1      27.178 -14.187   4.836  0.00  0.00     0.034 C 
ENDBRANCH  20  21
ENDBRANCH  19  20
ENDBRANCH  17  19
ENDBRANCH  10  12
ENDBRANCH   6  10
BRANCH   1  29
ATOM     29  O   UNL d   1      24.028 -18.655  -0.380  0.00  0.00    -0.311 OA
BRANCH  29  30
ATOM     30  C   UNL d   1      22.651 -18.681  -0.533  0.00  0.00     0.079 A 
ATOM     31  C   UNL d   1      21.836 -19.730  -0.115  0.00  0.00     0.074 A 
ATOM     32  C   UNL d   1      20.466 -19.645  -0.315  0.00  0.00     0.126 A 
ATOM     33  N   UNL d   1      19.866 -18.578  -0.895  0.00  0.00    -0.255 NA
ATOM     34  C   UNL d   1      20.670 -17.562  -1.280  0.00  0.00     0.120 A 
ATOM     35  C   UNL d   1      22.052 -17.564  -1.122  0.00  0.00     0.056 A 
BRANCH  32  36
ATOM     36  C   UNL d   1      19.599 -20.803   0.084  0.00  0.00     0.269 C 
ATOM     37  N   UNL d   1      18.256 -20.528   0.308  0.00  0.00    -0.360 N 
ATOM     38  C   UNL d   1      17.340 -21.584   0.666  0.00  0.00     0.149 C 
ATOM     39  H   UNL d   1      17.876 -19.619   0.073  0.00  0.00     0.162 HD
ATOM     40  O   UNL d   1      20.075 -21.930   0.231  0.00  0.00    -0.266 OA
ENDBRANCH  32  36
ENDBRANCH  29  30
ENDBRANCH   1  29
TORSDOF 8
ENDMDL
MODEL 3
REMARK VINA RESULT:   -31.465      1.767      3.805
REMARK INTER + INTRA:         -35.261
REMARK INTER:                 -33.851
REMARK INTRA:                  -1.410
REMARK CONF_INDEPENDENT:        2.386
REMARK UNBOUND:                -1.410
REMARK  8 active torsions:
REMARK  status: ('A' for Active; 'I' for Inactive)
REMARK       I    between atoms: N_2  and  C_3 
REMARK    1  A    between atoms: C_3  and  C_5 
REMARK    2  A    between atoms: C_7  and  O_8 
REMARK    3  A    between atoms: O_8  and  C_9 
REMARK    4  A    between atoms: C_14  and  N_15 
REMARK    5  A    between atoms: N_15  and  C_16 
REMARK    6  A    between atoms: C_21  and  O_22 
REMARK    7  A    between atoms: O_22  and  C_23 
REMARK    8  A    between atoms: C_23  and  C_24 
ROOT
ATOM      1  C   UNL d   1      24.411 -17.584   0.207  0.00  0.00     0.078 A 
ATOM      2  C   UNL d   1      24.130 -16.433  -0.546  0.00  0.00     0.040 A 
ATOM      3  C   UNL d   1      25.105 -15.835  -1.361  0.00  0.00     0.042 A 
ATOM      4  C   UNL d   1      26.371 -16.410  -1.319  0.00  0.00     0.108 A 
ATOM      5  O   UNL d   1      27.490 -16.019  -2.000  0.00  0.00    -0.276 OA
ATOM      6  C   UNL d   1      28.467 -16.899  -1.597  0.00  0.00     0.252 A 
ATOM      7  N   UNL d   1      28.044 -17.806  -0.735  0.00  0.00    -0.206 NA
ATOM      8  C   UNL d   1      26.709 -17.509  -0.547  0.00  0.00     0.097 A 
ATOM      9  C   UNL d   1      25.713 -18.119   0.242  0.00  0.00     0.072 A 
ENDROOT
BRANCH   6  10
ATOM     10  N   UNL d   1      29.697 -16.808  -2.155  0.00  0.00    -0.320 N 
ATOM     11  H   UNL d   1      30.459 -16.545  -1.542  0.00  0.00     0.169 HD
BRANCH  10  12
ATOM     12  C   UNL d   1      30.012 -16.948  -3.520  0.00  0.00     0.038 A 
ATOM     13  C   UNL d   1      30.587 -18.125  -3.996  0.00  0.00     0.031 A 
ATOM     14  C   UNL d   1      30.996 -18.220  -5.321  0.00  0.00     0.029 A 
ATOM     15  C   UNL d   1      30.828 -17.155  -6.215  0.00  0.00     0.067 A 
ATOM     16 CL   UNL d   1      31.500 -17.500  -7.778  0.00  0.00    -0.081 Cl
ATOM     17  C   UNL d   1      30.176 -15.973  -5.797  0.00  0.00     0.092 A 
ATOM     18  C   UNL d   1      29.767 -15.900  -4.438  0.00  0.00     0.068 A 
BRANCH  17  19
ATOM     19  O   UNL d   1      29.862 -14.832  -6.538  0.00  0.00    -0.349 OA
BRANCH  19  20
ATOM     20  C   UNL d   1      28.522 -14.354  -6.412  0.00  0.00     0.180 C 
BRANCH  20  21
ATOM     21  C   UNL d   1      28.236 -13.334  -5.288  0.00  0.00     0.013 C 
ATOM     22  C   UNL d   1      27.327 -13.826  -4.166  0.00  0.00     0.034 C 
ATOM     23  C   UNL d   1      25.843 -13.637  -4.434  0.00  0.00     0.232 C 
ATOM     24  N   UNL d   1      25.565 -12.233  -4.864  0.00  0.00    -0.075 N 
ATOM     25  C   UNL d   1      26.328 -11.827  -6.079  0.00  0.00     0.232 C 
ATOM     26  H   UNL d   1      25.753 -11.580  -4.090  0.00  0.00     0.277 HD
ATOM     27  H   UNL d   1      24.559 -12.139  -5.057  0.00  0.00     0.277 HD
ATOM     28  C   UNL d   1      27.811 -11.940  -5.785  0.00  0.00     0.034 C 
ENDBRANCH  20  21
ENDBRANCH  19  20
ENDBRANCH  17  19
ENDBRANCH  10  12
ENDBRANCH   6  10
BRANCH   1  29
ATOM     29  O   UNL d   1      23.436 -18.201   0.977  0.00  0.00    -0.311 OA
BRANCH  29  30
ATOM     30  C   UNL d   1      22.249 -18.592   0.378  0.00  0.00     0.079 A 
ATOM     31  C   UNL d   1      21.146 -19.086   1.071  0.00  0.00     0.074 A 
ATOM     32  C   UNL d   1      20.006 -19.441   0.365  0.00  0.00     0.126 A 
ATOM     33  N   UNL d   1      19.901 -19.325  -0.980  0.00  0.00    -0.255 NA
ATOM     34  C   UNL d   1      20.974 -18.830  -1.635  0.00  0.00     0.120 A 
ATOM     35  C   UNL d   1      22.157 -18.451  -1.010  0.00  0.00     0.056 A 
BRANCH  32  36
ATOM     36  C   UNL d   1      18.843 -20.027   1.111  0.00  0.00     0.269 C 
ATOM     37  N   UNL d   1      18.387 -21.266   0.679  0.00  0.00    -0.360 N 
ATOM     38  C   UNL d   1      17.292 -21.921   1.354  0.00  0.00     0.149 C 
ATOM     39  H   UNL d   1      18.912 -21.791  -0.010  0.00  0.00     0.162 HD
ATOM     40  O   UNL d   1      18.311 -19.415   2.038  0.00  0.00    -0.266 OA
ENDBRANCH  32  36
ENDBRANCH  29  30
ENDBRANCH   1  29
TORSDOF 8
ENDMDL
MODEL 4
REMARK VINA RESULT:   -31.197      3.212      3.859
REMARK INTER + INTRA:         -35.123
REMARK INTER:                 -33.583
REMARK INTRA:                  -1.540
REMARK CONF_INDEPENDENT:        2.386
REMARK UNBOUND:                -1.540
REMARK  8 active torsions:
REMARK  status: ('A' for Active; 'I' for Inactive)
REMARK       I    between atoms: N_2  and  C_3 
REMARK    1  A    between atoms: C_3  and  C_5 
REMARK    2  A    between atoms: C_7  and  O_8 
REMARK    3  A    between atoms: O_8  and  C_9 
REMARK    4  A    between atoms: C_14  and  N_15 
REMARK    5  A    between atoms: N_15  and  C_16 
REMARK    6  A    between atoms: C_21  and  O_22 
REMARK    7  A    between atoms: O_22  and  C_23 
REMARK    8  A    between atoms: C_23  and  C_24 
ROOT
ATOM      1  C   UNL d   1      24.427 -17.572  -0.034  0.00  0.00     0.078 A 
ATOM      2  C   UNL d   1      25.730 -18.074  -0.183  0.00  0.00     0.040 A 
ATOM      3  C   UNL d   1      26.678 -17.422  -0.989  0.00  0.00     0.042 A 
ATOM      4  C   UNL d   1      26.226 -16.301  -1.678  0.00  0.00     0.108 A 
ATOM      5  O   UNL d   1      26.935 -15.501  -2.529  0.00  0.00    -0.276 OA
ATOM      6  C   UNL d   1      26.030 -14.553  -2.949  0.00  0.00     0.252 A 
ATOM      7  N   UNL d   1      24.827 -14.694  -2.421  0.00  0.00    -0.206 NA
ATOM      8  C   UNL d   1      24.935 -15.804  -1.607  0.00  0.00     0.097 A 
ATOM      9  C   UNL d   1      24.003 -16.449  -0.769  0.00  0.00     0.072 A 
ENDROOT
BRANCH   6  10
ATOM     10  N   UNL d   1      26.456 -13.562  -3.767  0.00  0.00    -0.320 N 
ATOM     11  H   UNL d   1      26.716 -13.827  -4.710  0.00  0.00     0.169 HD
BRANCH  10  12
ATOM     12  C   UNL d   1      26.665 -12.215  -3.416  0.00  0.00     0.038 A 
ATOM     13  C   UNL d   1      26.559 -11.210  -4.374  0.00  0.00     0.031 A 
ATOM     14  C   UNL d   1      26.871  -9.895  -4.049  0.00  0.00     0.029 A 
ATOM     15  C   UNL d   1      27.278  -9.539  -2.757  0.00  0.00     0.067 A 
ATOM     16 CL   UNL d   1      27.690  -7.857  -2.640  0.00  0.00    -0.081 Cl
ATOM     17  C   UNL d   1      27.321 -10.512  -1.733  0.00  0.00     0.092 A 
ATOM     18  C   UNL d   1      26.997 -11.849  -2.090  0.00  0.00     0.068 A 
BRANCH  17  19
ATOM     19  O   UNL d   1      27.641 -10.355  -0.383  0.00  0.00    -0.349 OA
BRANCH  19  20
ATOM     20  C   UNL d   1      27.479 -11.515   0.436  0.00  0.00     0.180 C 
BRANCH  20  21
ATOM     21  C   UNL d   1      28.702 -12.445   0.597  0.00  0.00     0.013 C 
ATOM     22  C   UNL d   1      28.568 -13.825  -0.039  0.00  0.00     0.034 C 
ATOM     23  C   UNL d   1      27.916 -14.867   0.857  0.00  0.00     0.232 C 
ATOM     24  N   UNL d   1      28.570 -14.882   2.200  0.00  0.00    -0.075 N 
ATOM     25  C   UNL d   1      28.529 -13.561   2.891  0.00  0.00     0.232 C 
ATOM     26  H   UNL d   1      29.543 -15.211   2.119  0.00  0.00     0.277 HD
ATOM     27  H   UNL d   1      28.098 -15.580   2.791  0.00  0.00     0.277 HD
ATOM     28  C   UNL d   1      29.249 -12.538   2.033  0.00  0.00     0.034 C 
ENDBRANCH  20  21
ENDBRANCH  19  20
ENDBRANCH  17  19
ENDBRANCH  10  12
ENDBRANCH   6  10
BRANCH   1  29
ATOM     29  O   UNL d   1      23.505 -18.189   0.797  0.00  0.00    -0.311 OA
BRANCH  29  30
ATOM     30  C   UNL d   1      22.284 -18.586   0.274  0.00  0.00     0.079 A 
ATOM     31  C   UNL d   1      21.246 -19.126   1.030  0.00  0.00     0.074 A 
ATOM     32  C   UNL d   1      20.063 -19.483   0.399  0.00  0.00     0.126 A 
ATOM     33  N   UNL d   1      19.855 -19.325  -0.930  0.00  0.00    -0.255 NA
ATOM     34  C   UNL d   1      20.867 -18.785  -1.645  0.00  0.00     0.120 A 
ATOM     35  C   UNL d   1      22.086 -18.401  -1.097  0.00  0.00     0.056 A 
BRANCH  32  36
ATOM     36  C   UNL d   1      18.970 -20.118   1.208  0.00  0.00     0.269 C 
ATOM     37  N   UNL d   1      18.321 -21.204   0.634  0.00  0.00    -0.360 N 
ATOM     38  C   UNL d   1      17.278 -21.898   1.350  0.00  0.00     0.149 C 
ATOM     39  H   UNL d   1      18.674 -21.615  -0.222  0.00  0.00     0.162 HD
ATOM     40  O   UNL d   1      18.656 -19.671   2.312  0.00  0.00    -0.266 OA
ENDBRANCH  32  36
ENDBRANCH  29  30
ENDBRANCH   1  29
TORSDOF 8
ENDMDL
MODEL 5
REMARK VINA RESULT:   -30.980      2.045      2.723
REMARK INTER + INTRA:         -35.040
REMARK INTER:                 -33.366
REMARK INTRA:                  -1.674
REMARK CONF_INDEPENDENT:        2.386
REMARK UNBOUND:                -1.674
REMARK  8 active torsions:
REMARK  status: ('A' for Active; 'I' for Inactive)
REMARK       I    between atoms: N_2  and  C_3 
REMARK    1  A    between atoms: C_3  and  C_5 
REMARK    2  A    between atoms: C_7  and  O_8 
REMARK    3  A    between atoms: O_8  and  C_9 
REMARK    4  A    between atoms: C_14  and  N_15 
REMARK    5  A    between atoms: N_15  and  C_16 
REMARK    6  A    between atoms: C_21  and  O_22 
REMARK    7  A    between atoms: O_22  and  C_23 
REMARK    8  A    between atoms: C_23  and  C_24 
ROOT
ATOM      1  C   UNL d   1      24.480 -17.522  -0.116  0.00  0.00     0.078 A 
ATOM      2  C   UNL d   1      23.964 -16.487  -0.912  0.00  0.00     0.040 A 
ATOM      3  C   UNL d   1      24.793 -15.727  -1.754  0.00  0.00     0.042 A 
ATOM      4  C   UNL d   1      26.153 -16.017  -1.694  0.00  0.00     0.108 A 
ATOM      5  O   UNL d   1      27.166 -15.423  -2.394  0.00  0.00    -0.276 OA
ATOM      6  C   UNL d   1      28.306 -16.059  -1.960  0.00  0.00     0.252 A 
ATOM      7  N   UNL d   1      28.081 -17.001  -1.061  0.00  0.00    -0.206 NA
ATOM      8  C   UNL d   1      26.713 -16.988  -0.880  0.00  0.00     0.097 A 
ATOM      9  C   UNL d   1      25.865 -17.765  -0.065  0.00  0.00     0.072 A 
ENDROOT
BRANCH   6  10
ATOM     10  N   UNL d   1      29.491 -15.730  -2.526  0.00  0.00    -0.320 N 
ATOM     11  H   UNL d   1      29.953 -14.901  -2.170  0.00  0.00     0.169 HD
BRANCH  10  12
ATOM     12  C   UNL d   1      30.104 -16.366  -3.621  0.00  0.00     0.038 A 
ATOM     13  C   UNL d   1      29.809 -15.973  -4.924  0.00  0.00     0.031 A 
ATOM     14  C   UNL d   1      30.332 -16.674  -6.005  0.00  0.00     0.029 A 
ATOM     15  C   UNL d   1      31.180 -17.773  -5.820  0.00  0.00     0.067 A 
ATOM     16 CL   UNL d   1      31.620 -18.520  -7.324  0.00  0.00    -0.081 Cl
ATOM     17  C   UNL d   1      31.572 -18.157  -4.517  0.00  0.00     0.092 A 
ATOM     18  C   UNL d   1      31.024 -17.425  -3.430  0.00  0.00     0.068 A 
BRANCH  17  19
ATOM     19  O   UNL d   1      32.442 -19.175  -4.125  0.00  0.00    -0.349 OA
BRANCH  19  20
ATOM     20  C   UNL d   1      33.472 -18.798  -3.209  0.00  0.00     0.180 C 
BRANCH  20  21
ATOM     21  C   UNL d   1      33.296 -19.218  -1.733  0.00  0.00     0.013 C 
ATOM     22  C   UNL d   1      32.205 -20.251  -1.467  0.00  0.00     0.034 C 
ATOM     23  C   UNL d   1      30.822 -19.660  -1.249  0.00  0.00     0.232 C 
ATOM     24  N   UNL d   1      30.877 -18.565  -0.234  0.00  0.00    -0.075 N 
ATOM     25  C   UNL d   1      31.816 -17.467  -0.601  0.00  0.00     0.232 C 
ATOM     26  H   UNL d   1      31.121 -18.947   0.690  0.00  0.00     0.277 HD
ATOM     27  H   UNL d   1      29.933 -18.170  -0.121  0.00  0.00     0.277 HD
ATOM     28  C   UNL d   1      33.212 -18.043  -0.741  0.00  0.00     0.034 C 
ENDBRANCH  20  21
ENDBRANCH  19  20
ENDBRANCH  17  19
ENDBRANCH  10  12
ENDBRANCH   6  10
BRANCH   1  29
ATOM     29  O   UNL d   1      23.655 -18.301   0.681  0.00  0.00    -0.311 OA
BRANCH  29  30
ATOM     30  C   UNL d   1      22.402 -18.661   0.208  0.00  0.00     0.079 A 
ATOM     31  C   UNL d   1      21.384 -19.180   1.004  0.00  0.00     0.074 A 
ATOM     32  C   UNL d   1      20.166 -19.499   0.422  0.00  0.00     0.126 A 
ATOM     33  N   UNL d   1      19.905 -19.324  -0.896  0.00  0.00    -0.255 NA
ATOM     34  C   UNL d   1      20.899 -18.804  -1.650  0.00  0.00     0.120 A 
ATOM     35  C   UNL d   1      22.151 -18.459  -1.152  0.00  0.00     0.056 A 
BRANCH  32  36
ATOM     36  C   UNL d   1      19.092 -20.112   1.273  0.00  0.00     0.269 C 
ATOM     37  N   UNL d   1      18.173 -20.927   0.624  0.00  0.00    -0.360 N 
ATOM     38  C   UNL d   1      17.123 -21.583   1.365  0.00  0.00     0.149 C 
ATOM     39  H   UNL d   1      18.319 -21.192  -0.343  0.00  0.00     0.162 HD
ATOM     40  O   UNL d   1      19.025 -19.872   2.479  0.00  0.00    -0.266 OA
ENDBRANCH  32  36
ENDBRANCH  29  30
ENDBRANCH   1  29
TORSDOF 8
ENDMDL
MODEL 6
REMARK VINA RESULT:   -30.797      2.701      3.573
REMARK INTER + INTRA:         -34.349
REMARK INTER:                 -33.184
REMARK INTRA:                  -1.166
REMARK CONF_INDEPENDENT:        2.386
REMARK UNBOUND:                -1.166
REMARK  8 active torsions:
REMARK  status: ('A' for Active; 'I' for Inactive)
REMARK       I    between atoms: N_2  and  C_3 
REMARK    1  A    between atoms: C_3  and  C_5 
REMARK    2  A    between atoms: C_7  and  O_8 
REMARK    3  A    between atoms: O_8  and  C_9 
REMARK    4  A    between atoms: C_14  and  N_15 
REMARK    5  A    between atoms: N_15  and  C_16 
REMARK    6  A    between atoms: C_21  and  O_22 
REMARK    7  A    between atoms: O_22  and  C_23 
REMARK    8  A    between atoms: C_23  and  C_24 
ROOT
ATOM      1  C   UNL d   1      24.448 -17.576   0.097  0.00  0.00     0.078 A 
ATOM      2  C   UNL d   1      24.093 -16.487  -0.716  0.00  0.00     0.040 A 
ATOM      3  C   UNL d   1      25.030 -15.862  -1.553  0.00  0.00     0.042 A 
ATOM      4  C   UNL d   1      26.335 -16.339  -1.473  0.00  0.00     0.108 A 
ATOM      5  O   UNL d   1      27.429 -15.901  -2.165  0.00  0.00    -0.276 OA
ATOM      6  C   UNL d   1      28.463 -16.686  -1.710  0.00  0.00     0.252 A 
ATOM      7  N   UNL d   1      28.098 -17.577  -0.806  0.00  0.00    -0.206 NA
ATOM      8  C   UNL d   1      26.743 -17.370  -0.643  0.00  0.00     0.097 A 
ATOM      9  C   UNL d   1      25.785 -18.011   0.168  0.00  0.00     0.072 A 
ENDROOT
BRANCH   6  10
ATOM     10  N   UNL d   1      29.690 -16.533  -2.263  0.00  0.00    -0.320 N 
ATOM     11  H   UNL d   1      30.221 -17.377  -2.439  0.00  0.00     0.169 HD
BRANCH  10  12
ATOM     12  C   UNL d   1      30.342 -15.315  -2.533  0.00  0.00     0.038 A 
ATOM     13  C   UNL d   1      30.592 -14.922  -3.846  0.00  0.00     0.031 A 
ATOM     14  C   UNL d   1      31.331 -13.774  -4.106  0.00  0.00     0.029 A 
ATOM     15  C   UNL d   1      31.826 -12.973  -3.069  0.00  0.00     0.067 A 
ATOM     16 CL   UNL d   1      32.786 -11.654  -3.661  0.00  0.00    -0.081 Cl
ATOM     17  C   UNL d   1      31.527 -13.289  -1.724  0.00  0.00     0.092 A 
ATOM     18  C   UNL d   1      30.770 -14.467  -1.484  0.00  0.00     0.068 A 
BRANCH  17  19
ATOM     19  O   UNL d   1      31.872 -12.599  -0.561  0.00  0.00    -0.349 OA
BRANCH  19  20
ATOM     20  C   UNL d   1      30.969 -12.734   0.537  0.00  0.00     0.180 C 
BRANCH  20  21
ATOM     21  C   UNL d   1      31.582 -12.834   1.952  0.00  0.00     0.013 C 
ATOM     22  C   UNL d   1      32.571 -13.976   2.163  0.00  0.00     0.034 C 
ATOM     23  C   UNL d   1      31.930 -15.292   2.572  0.00  0.00     0.232 C 
ATOM     24  N   UNL d   1      30.996 -15.082   3.719  0.00  0.00    -0.075 N 
ATOM     25  C   UNL d   1      29.919 -14.093   3.430  0.00  0.00     0.232 C 
ATOM     26  H   UNL d   1      31.521 -14.801   4.560  0.00  0.00     0.277 HD
ATOM     27  H   UNL d   1      30.562 -15.984   3.962  0.00  0.00     0.277 HD
ATOM     28  C   UNL d   1      30.557 -12.758   3.098  0.00  0.00     0.034 C 
ENDBRANCH  20  21
ENDBRANCH  19  20
ENDBRANCH  17  19
ENDBRANCH  10  12
ENDBRANCH   6  10
BRANCH   1  29
ATOM     29  O   UNL d   1      23.513 -18.223   0.890  0.00  0.00    -0.311 OA
BRANCH  29  30
ATOM     30  C   UNL d   1      22.301 -18.601   0.333  0.00  0.00     0.079 A 
ATOM     31  C   UNL d   1      21.182 -18.977   1.072  0.00  0.00     0.074 A 
ATOM     32  C   UNL d   1      20.018 -19.332   0.406  0.00  0.00     0.126 A 
ATOM     33  N   UNL d   1      19.905 -19.325  -0.944  0.00  0.00    -0.255 NA
ATOM     34  C   UNL d   1      20.996 -18.943  -1.645  0.00  0.00     0.120 A 
ATOM     35  C   UNL d   1      22.203 -18.575  -1.061  0.00  0.00     0.056 A 
BRANCH  32  36
ATOM     36  C   UNL d   1      18.834 -19.790   1.206  0.00  0.00     0.269 C 
ATOM     37  N   UNL d   1      18.323 -21.045   0.897  0.00  0.00    -0.360 N 
ATOM     38  C   UNL d   1      17.204 -21.583   1.634  0.00  0.00     0.149 C 
ATOM     39  H   UNL d   1      18.822 -21.657   0.263  0.00  0.00     0.162 HD
ATOM     40  O   UNL d   1      18.333 -19.068   2.069  0.00  0.00    -0.266 OA
ENDBRANCH  32  36
ENDBRANCH  29  30
ENDBRANCH   1  29
TORSDOF 8
ENDMDL
MODEL 7
REMARK VINA RESULT:   -30.767      3.405      4.321
REMARK INTER + INTRA:         -34.271
REMARK INTER:                 -33.153
REMARK INTRA:                  -1.118
REMARK CONF_INDEPENDENT:        2.386
REMARK UNBOUND:                -1.118
REMARK  8 active torsions:
REMARK  status: ('A' for Active; 'I' for Inactive)
REMARK       I    between atoms: N_2  and  C_3 
REMARK    1  A    between atoms: C_3  and  C_5 
REMARK    2  A    between atoms: C_7  and  O_8 
REMARK    3  A    between atoms: O_8  and  C_9 
REMARK    4  A    between atoms: C_14  and  N_15 
REMARK    5  A    between atoms: N_15  and  C_16 
REMARK    6  A    between atoms: C_21  and  O_22 
REMARK    7  A    between atoms: O_22  and  C_23 
REMARK    8  A    between atoms: C_23  and  C_24 
ROOT
ATOM      1  C   UNL d   1      24.424 -17.570   0.161  0.00  0.00     0.078 A 
ATOM      2  C   UNL d   1      24.121 -16.430  -0.600  0.00  0.00     0.040 A 
ATOM      3  C   UNL d   1      25.081 -15.823  -1.426  0.00  0.00     0.042 A 
ATOM      4  C   UNL d   1      26.357 -16.377  -1.386  0.00  0.00     0.108 A 
ATOM      5  O   UNL d   1      27.466 -15.973  -2.076  0.00  0.00    -0.276 OA
ATOM      6  C   UNL d   1      28.459 -16.835  -1.671  0.00  0.00     0.252 A 
ATOM      7  N   UNL d   1      28.055 -17.741  -0.799  0.00  0.00    -0.206 NA
ATOM      8  C   UNL d   1      26.716 -17.464  -0.606  0.00  0.00     0.097 A 
ATOM      9  C   UNL d   1      25.734 -18.083   0.193  0.00  0.00     0.072 A 
ENDROOT
BRANCH   6  10
ATOM     10  N   UNL d   1      29.685 -16.728  -2.236  0.00  0.00    -0.320 N 
ATOM     11  H   UNL d   1      30.227 -15.905  -2.001  0.00  0.00     0.169 HD
BRANCH  10  12
ATOM     12  C   UNL d   1      30.247 -17.596  -3.190  0.00  0.00     0.038 A 
ATOM     13  C   UNL d   1      30.065 -17.365  -4.552  0.00  0.00     0.031 A 
ATOM     14  C   UNL d   1      30.530 -18.282  -5.487  0.00  0.00     0.029 A 
ATOM     15  C   UNL d   1      31.205 -19.445  -5.097  0.00  0.00     0.067 A 
ATOM     16 CL   UNL d   1      31.599 -20.459  -6.450  0.00  0.00    -0.081 Cl
ATOM     17  C   UNL d   1      31.484 -19.680  -3.731  0.00  0.00     0.092 A 
ATOM     18  C   UNL d   1      30.999 -18.728  -2.794  0.00  0.00     0.068 A 
BRANCH  17  19
ATOM     19  O   UNL d   1      32.185 -20.735  -3.145  0.00  0.00    -0.349 OA
BRANCH  19  20
ATOM     20  C   UNL d   1      31.572 -22.022  -3.242  0.00  0.00     0.180 C 
BRANCH  20  21
ATOM     21  C   UNL d   1      31.909 -23.053  -2.142  0.00  0.00     0.013 C 
ATOM     22  C   UNL d   1      31.558 -24.501  -2.466  0.00  0.00     0.034 C 
ATOM     23  C   UNL d   1      30.134 -24.895  -2.110  0.00  0.00     0.232 C 
ATOM     24  N   UNL d   1      29.818 -24.498  -0.706  0.00  0.00    -0.075 N 
ATOM     25  C   UNL d   1      29.990 -23.038  -0.453  0.00  0.00     0.232 C 
ATOM     26  H   UNL d   1      30.389 -25.043  -0.044  0.00  0.00     0.277 HD
ATOM     27  H   UNL d   1      28.844 -24.758  -0.498  0.00  0.00     0.277 HD
ATOM     28  C   UNL d   1      31.432 -22.660  -0.732  0.00  0.00     0.034 C 
ENDBRANCH  20  21
ENDBRANCH  19  20
ENDBRANCH  17  19
ENDBRANCH  10  12
ENDBRANCH   6  10
BRANCH   1  29
ATOM     29  O   UNL d   1      23.463 -18.196   0.941  0.00  0.00    -0.311 OA
BRANCH  29  30
ATOM     30  C   UNL d   1      22.268 -18.588   0.356  0.00  0.00     0.079 A 
ATOM     31  C   UNL d   1      21.164 -19.052   1.066  0.00  0.00     0.074 A 
ATOM     32  C   UNL d   1      20.016 -19.411   0.374  0.00  0.00     0.126 A 
ATOM     33  N   UNL d   1      19.905 -19.325  -0.972  0.00  0.00    -0.255 NA
ATOM     34  C   UNL d   1      20.981 -18.858  -1.644  0.00  0.00     0.120 A 
ATOM     35  C   UNL d   1      22.171 -18.478  -1.034  0.00  0.00     0.056 A 
BRANCH  32  36
ATOM     36  C   UNL d   1      18.850 -19.965   1.140  0.00  0.00     0.269 C 
ATOM     37  N   UNL d   1      18.371 -21.205   0.733  0.00  0.00    -0.360 N 
ATOM     38  C   UNL d   1      17.272 -21.831   1.428  0.00  0.00     0.149 C 
ATOM     39  H   UNL d   1      18.883 -21.749   0.049  0.00  0.00     0.162 HD
ATOM     40  O   UNL d   1      18.335 -19.329   2.060  0.00  0.00    -0.266 OA
ENDBRANCH  32  36
ENDBRANCH  29  30
ENDBRANCH   1  29
TORSDOF 8
ENDMDL
MODEL 8
REMARK VINA RESULT:   -30.156      2.052      2.414
REMARK INTER + INTRA:         -33.948
REMARK INTER:                 -32.542
REMARK INTRA:                  -1.406
REMARK CONF_INDEPENDENT:        2.386
REMARK UNBOUND:                -1.406
REMARK  8 active torsions:
REMARK  status: ('A' for Active; 'I' for Inactive)
REMARK       I    between atoms: N_2  and  C_3 
REMARK    1  A    between atoms: C_3  and  C_5 
REMARK    2  A    between atoms: C_7  and  O_8 
REMARK    3  A    between atoms: O_8  and  C_9 
REMARK    4  A    between atoms: C_14  and  N_15 
REMARK    5  A    between atoms: N_15  and  C_16 
REMARK    6  A    between atoms: C_21  and  O_22 
REMARK    7  A    between atoms: O_22  and  C_23 
REMARK    8  A    between atoms: C_23  and  C_24 
ROOT
ATOM      1  C   UNL d   1      24.339 -17.159  -0.308  0.00  0.00     0.078 A 
ATOM      2  C   UNL d   1      25.639 -17.685  -0.383  0.00  0.00     0.040 A 
ATOM      3  C   UNL d   1      26.585 -17.175  -1.287  0.00  0.00     0.042 A 
ATOM      4  C   UNL d   1      26.133 -16.176  -2.143  0.00  0.00     0.108 A 
ATOM      5  O   UNL d   1      26.841 -15.526  -3.115  0.00  0.00    -0.276 OA
ATOM      6  C   UNL d   1      25.938 -14.653  -3.676  0.00  0.00     0.252 A 
ATOM      7  N   UNL d   1      24.737 -14.701  -3.126  0.00  0.00    -0.206 NA
ATOM      8  C   UNL d   1      24.845 -15.667  -2.145  0.00  0.00     0.097 A 
ATOM      9  C   UNL d   1      23.915 -16.165  -1.210  0.00  0.00     0.072 A 
ENDROOT
BRANCH   6  10
ATOM     10  N   UNL d   1      26.363 -13.807  -4.644  0.00  0.00    -0.320 N 
ATOM     11  H   UNL d   1      25.714 -13.090  -4.943  0.00  0.00     0.169 HD
BRANCH  10  12
ATOM     12  C   UNL d   1      27.581 -13.880  -5.346  0.00  0.00     0.038 A 
ATOM     13  C   UNL d   1      28.062 -12.775  -6.046  0.00  0.00     0.031 A 
ATOM     14  C   UNL d   1      29.208 -12.882  -6.825  0.00  0.00     0.029 A 
ATOM     15  C   UNL d   1      29.920 -14.085  -6.915  0.00  0.00     0.067 A 
ATOM     16 CL   UNL d   1      31.256 -13.974  -8.018  0.00  0.00    -0.081 Cl
ATOM     17  C   UNL d   1      29.515 -15.208  -6.157  0.00  0.00     0.092 A 
ATOM     18  C   UNL d   1      28.341 -15.073  -5.368  0.00  0.00     0.068 A 
BRANCH  17  19
ATOM     19  O   UNL d   1      30.112 -16.466  -6.063  0.00  0.00    -0.349 OA
BRANCH  19  20
ATOM     20  C   UNL d   1      29.886 -17.175  -4.843  0.00  0.00     0.180 C 
BRANCH  20  21
ATOM     21  C   UNL d   1      31.031 -18.071  -4.320  0.00  0.00     0.013 C 
ATOM     22  C   UNL d   1      32.443 -17.555  -4.581  0.00  0.00     0.034 C 
ATOM     23  C   UNL d   1      33.018 -17.960  -5.929  0.00  0.00     0.232 C 
ATOM     24  N   UNL d   1      32.864 -19.430  -6.141  0.00  0.00    -0.075 N 
ATOM     25  C   UNL d   1      31.448 -19.892  -6.066  0.00  0.00     0.232 C 
ATOM     26  H   UNL d   1      33.444 -19.951  -5.468  0.00  0.00     0.277 HD
ATOM     27  H   UNL d   1      33.242 -19.673  -7.067  0.00  0.00     0.277 HD
ATOM     28  C   UNL d   1      30.897 -19.559  -4.693  0.00  0.00     0.034 C 
ENDBRANCH  20  21
ENDBRANCH  19  20
ENDBRANCH  17  19
ENDBRANCH  10  12
ENDBRANCH   6  10
BRANCH   1  29
ATOM     29  O   UNL d   1      23.419 -17.630   0.616  0.00  0.00    -0.311 OA
BRANCH  29  30
ATOM     30  C   UNL d   1      22.247 -18.216   0.164  0.00  0.00     0.079 A 
ATOM     31  C   UNL d   1      21.390 -18.972   0.960  0.00  0.00     0.074 A 
ATOM     32  C   UNL d   1      20.239 -19.506   0.399  0.00  0.00     0.126 A 
ATOM     33  N   UNL d   1      19.892 -19.323  -0.897  0.00  0.00    -0.255 NA
ATOM     34  C   UNL d   1      20.727 -18.574  -1.651  0.00  0.00     0.120 A 
ATOM     35  C   UNL d   1      21.902 -18.003  -1.174  0.00  0.00     0.056 A 
BRANCH  32  36
ATOM     36  C   UNL d   1      19.350 -20.368   1.248  0.00  0.00     0.269 C 
ATOM     37  N   UNL d   1      18.185 -20.835   0.653  0.00  0.00    -0.360 N 
ATOM     38  C   UNL d   1      17.283 -21.695   1.381  0.00  0.00     0.149 C 
ATOM     39  H   UNL d   1      18.032 -20.706  -0.340  0.00  0.00     0.162 HD
ATOM     40  O   UNL d   1      19.638 -20.616   2.419  0.00  0.00    -0.266 OA
ENDBRANCH  32  36
ENDBRANCH  29  30
ENDBRANCH   1  29
TORSDOF 8
ENDMDL
MODEL 9
REMARK VINA RESULT:   -29.913      1.976      3.597
REMARK INTER + INTRA:         -34.253
REMARK INTER:                 -32.300
REMARK INTRA:                  -1.953
REMARK CONF_INDEPENDENT:        2.386
REMARK UNBOUND:                -1.953
REMARK  8 active torsions:
REMARK  status: ('A' for Active; 'I' for Inactive)
REMARK       I    between atoms: N_2  and  C_3 
REMARK    1  A    between atoms: C_3  and  C_5 
REMARK    2  A    between atoms: C_7  and  O_8 
REMARK    3  A    between atoms: O_8  and  C_9 
REMARK    4  A    between atoms: C_14  and  N_15 
REMARK    5  A    between atoms: N_15  and  C_16 
REMARK    6  A    between atoms: C_21  and  O_22 
REMARK    7  A    between atoms: O_22  and  C_23 
REMARK    8  A    between atoms: C_23  and  C_24 
ROOT
ATOM      1  C   UNL d   1      24.450 -17.468  -0.081  0.00  0.00     0.078 A 
ATOM      2  C   UNL d   1      24.014 -16.308  -0.741  0.00  0.00     0.040 A 
ATOM      3  C   UNL d   1      24.862 -15.593  -1.603  0.00  0.00     0.042 A 
ATOM      4  C   UNL d   1      26.168 -16.063  -1.702  0.00  0.00     0.108 A 
ATOM      5  O   UNL d   1      27.186 -15.548  -2.454  0.00  0.00    -0.276 OA
ATOM      6  C   UNL d   1      28.261 -16.363  -2.187  0.00  0.00     0.252 A 
ATOM      7  N   UNL d   1      27.990 -17.343  -1.343  0.00  0.00    -0.206 NA
ATOM      8  C   UNL d   1      26.658 -17.167  -1.025  0.00  0.00     0.097 A 
ATOM      9  C   UNL d   1      25.788 -17.894  -0.188  0.00  0.00     0.072 A 
ENDROOT
BRANCH   6  10
ATOM     10  N   UNL d   1      29.425 -16.144  -2.843  0.00  0.00    -0.320 N 
ATOM     11  H   UNL d   1      30.267 -16.509  -2.415  0.00  0.00     0.169 HD
BRANCH  10  12
ATOM     12  C   UNL d   1      29.598 -15.379  -4.012  0.00  0.00     0.038 A 
ATOM     13  C   UNL d   1      29.940 -15.993  -5.215  0.00  0.00     0.031 A 
ATOM     14  C   UNL d   1      30.216 -15.226  -6.341  0.00  0.00     0.029 A 
ATOM     15  C   UNL d   1      30.140 -13.827  -6.308  0.00  0.00     0.067 A 
ATOM     16 CL   UNL d   1      30.617 -13.110  -7.815  0.00  0.00    -0.081 Cl
ATOM     17  C   UNL d   1      29.718 -13.167  -5.132  0.00  0.00     0.092 A 
ATOM     18  C   UNL d   1      29.442 -13.973  -3.995  0.00  0.00     0.068 A 
BRANCH  17  19
ATOM     19  O   UNL d   1      29.524 -11.802  -4.911  0.00  0.00    -0.349 OA
BRANCH  19  20
ATOM     20  C   UNL d   1      28.981 -11.446  -3.639  0.00  0.00     0.180 C 
BRANCH  20  21
ATOM     21  C   UNL d   1      27.523 -10.935  -3.609  0.00  0.00     0.013 C 
ATOM     22  C   UNL d   1      26.616 -11.589  -2.571  0.00  0.00     0.034 C 
ATOM     23  C   UNL d   1      25.942 -12.867  -3.045  0.00  0.00     0.232 C 
ATOM     24  N   UNL d   1      25.285 -12.649  -4.368  0.00  0.00    -0.075 N 
ATOM     25  C   UNL d   1      26.227 -12.183  -5.426  0.00  0.00     0.232 C 
ATOM     26  H   UNL d   1      24.502 -11.987  -4.273  0.00  0.00     0.277 HD
ATOM     27  H   UNL d   1      24.854 -13.533  -4.674  0.00  0.00     0.277 HD
ATOM     28  C   UNL d   1      26.842 -10.868  -4.988  0.00  0.00     0.034 C 
ENDBRANCH  20  21
ENDBRANCH  19  20
ENDBRANCH  17  19
ENDBRANCH  10  12
ENDBRANCH   6  10
BRANCH   1  29
ATOM     29  O   UNL d   1      23.600 -18.200   0.735  0.00  0.00    -0.311 OA
BRANCH  29  30
ATOM     30  C   UNL d   1      22.365 -18.593   0.243  0.00  0.00     0.079 A 
ATOM     31  C   UNL d   1      21.349 -19.141   1.022  0.00  0.00     0.074 A 
ATOM     32  C   UNL d   1      20.150 -19.493   0.422  0.00  0.00     0.126 A 
ATOM     33  N   UNL d   1      19.904 -19.324  -0.899  0.00  0.00    -0.255 NA
ATOM     34  C   UNL d   1      20.895 -18.777  -1.638  0.00  0.00     0.120 A 
ATOM     35  C   UNL d   1      22.129 -18.397  -1.121  0.00  0.00     0.056 A 
BRANCH  32  36
ATOM     36  C   UNL d   1      19.080 -20.136   1.256  0.00  0.00     0.269 C 
ATOM     37  N   UNL d   1      18.261 -21.057   0.616  0.00  0.00    -0.360 N 
ATOM     38  C   UNL d   1      17.224 -21.748   1.344  0.00  0.00     0.149 C 
ATOM     39  H   UNL d   1      18.479 -21.367  -0.324  0.00  0.00     0.162 HD
ATOM     40  O   UNL d   1      18.930 -19.831   2.440  0.00  0.00    -0.266 OA
ENDBRANCH  32  36
ENDBRANCH  29  30
ENDBRANCH   1  29
TORSDOF 8
ENDMDL
