MODEL 1
REMARK VINA RESULT:    -8.008      0.000      0.000
REMARK INTER + INTRA:         -11.289
REMARK INTER:                  -9.202
REMARK INTRA:                  -2.088
REMARK CONF_INDEPENDENT:        1.193
REMARK UNBOUND:                -2.088
REMARK  4 active torsions:
REMARK  status: ('A' for Active; 'I' for Inactive)
REMARK       I    between atoms: C_2  and  N_3 
REMARK    1  A    between atoms: C_2  and  C_17 
REMARK    2  A    between atoms: N_3  and  N_4 
REMARK    3  A    between atoms: N_4  and  S_5 
REMARK    4  A    between atoms: S_5  and  C_8 
ROOT
ATOM      1  O   UNL d   1      27.772 -15.200  -6.488  0.00  0.00    -0.269 OA
ATOM      2  C   UNL d   1      28.252 -15.247  -5.356  0.00  0.00     0.268 C 
ATOM      3  N   UNL d   1      27.458 -15.366  -4.222  0.00  0.00    -0.258 N 
ATOM      4  H   UNL d   1      27.823 -15.318  -3.272  0.00  0.00     0.190 HD
ENDROOT
BRANCH   3   5
ATOM      5  N   UNL d   1      25.983 -15.362  -4.310  0.00  0.00    -0.220 N 
ATOM      6  H   UNL d   1      25.567 -16.174  -4.771  0.00  0.00     0.200 HD
BRANCH   5   7
ATOM      7  S   UNL d   1      25.198 -14.623  -2.990  0.00  0.00     0.278 S 
ATOM      8  O   UNL d   1      26.126 -13.633  -2.494  0.00  0.00    -0.199 OA
ATOM      9  O   UNL d   1      23.908 -14.209  -3.507  0.00  0.00    -0.199 OA
BRANCH   7  10
ATOM     10  C   UNL d   1      25.003 -15.838  -1.731  0.00  0.00     0.112 A 
ATOM     11  C   UNL d   1      23.719 -16.312  -1.355  0.00  0.00     0.028 A 
ATOM     12  C   UNL d   1      23.521 -17.442  -0.513  0.00  0.00     0.004 A 
ATOM     13  C   UNL d   1      24.575 -18.200   0.022  0.00  0.00     0.035 A 
ATOM     14  C   UNL d   1      25.878 -17.757  -0.300  0.00  0.00     0.098 A 
ATOM     15  N   UNL d   1      27.014 -18.331   0.127  0.00  0.00    -0.191 NA
ATOM     16  C   UNL d   1      26.104 -16.556  -1.197  0.00  0.00     0.119 A 
ATOM     17  S   UNL d   1      28.258 -17.450  -0.520  0.00  0.00     0.117 SA
ATOM     18  N   UNL d   1      27.412 -16.328  -1.392  0.00  0.00    -0.190 NA
ENDBRANCH   7  10
ENDBRANCH   5   7
ENDBRANCH   3   5
BRANCH   2  19
ATOM     19  C   UNL d   1      29.781 -15.255  -5.065  0.00  0.00     0.246 C 
ATOM     20  C   UNL d   1      30.590 -15.280  -6.360  0.00  0.00     0.218 C 
ATOM     21  O   UNL d   1      30.384 -16.507  -7.065  0.00  0.00    -0.345 OA
ATOM     22  C   UNL d   1      30.490 -17.585  -6.226  0.00  0.00     0.102 A 
ATOM     23  C   UNL d   1      30.626 -18.834  -6.827  0.00  0.00     0.039 A 
ATOM     24  C   UNL d   1      30.459 -17.475  -4.833  0.00  0.00     0.103 A 
ATOM     25  C   UNL d   1      30.789 -19.971  -6.036  0.00  0.00     0.003 A 
ATOM     26  C   UNL d   1      30.813 -19.858  -4.645  0.00  0.00     0.003 A 
ATOM     27  C   UNL d   1      30.649 -18.607  -4.042  0.00  0.00     0.040 A 
ATOM     28  O   UNL d   1      30.238 -16.287  -4.183  0.00  0.00    -0.331 OA
ENDBRANCH   2  19
TORSDOF 4
ENDMDL
MODEL 2
REMARK VINA RESULT:    -7.906      3.454      7.186
REMARK INTER + INTRA:         -11.251
REMARK INTER:                  -9.099
REMARK INTRA:                  -2.152
REMARK CONF_INDEPENDENT:        1.193
REMARK UNBOUND:                -2.152
REMARK  4 active torsions:
REMARK  status: ('A' for Active; 'I' for Inactive)
REMARK       I    between atoms: C_2  and  N_3 
REMARK    1  A    between atoms: C_2  and  C_17 
REMARK    2  A    between atoms: N_3  and  N_4 
REMARK    3  A    between atoms: N_4  and  S_5 
REMARK    4  A    between atoms: S_5  and  C_8 
ROOT
ATOM      1  O   UNL d   1      28.103 -17.213  -1.508  0.00  0.00    -0.269 OA
ATOM      2  C   UNL d   1      27.087 -16.582  -1.216  0.00  0.00     0.268 C 
ATOM      3  N   UNL d   1      26.422 -15.785  -2.141  0.00  0.00    -0.258 N 
ATOM      4  H   UNL d   1      25.634 -15.186  -1.902  0.00  0.00     0.190 HD
ENDROOT
BRANCH   3   5
ATOM      5  N   UNL d   1      26.946 -15.589  -3.508  0.00  0.00    -0.220 N 
ATOM      6  H   UNL d   1      27.614 -16.294  -3.829  0.00  0.00     0.200 HD
BRANCH   5   7
ATOM      7  S   UNL d   1      25.837 -14.892  -4.598  0.00  0.00     0.278 S 
ATOM      8  O   UNL d   1      25.541 -15.928  -5.561  0.00  0.00    -0.199 OA
ATOM      9  O   UNL d   1      24.778 -14.359  -3.762  0.00  0.00    -0.199 OA
BRANCH   7  10
ATOM     10  C   UNL d   1      26.665 -13.597  -5.455  0.00  0.00     0.112 A 
ATOM     11  C   UNL d   1      26.236 -12.249  -5.348  0.00  0.00     0.028 A 
ATOM     12  C   UNL d   1      26.996 -11.148  -5.833  0.00  0.00     0.004 A 
ATOM     13  C   UNL d   1      28.246 -11.289  -6.458  0.00  0.00     0.035 A 
ATOM     14  C   UNL d   1      28.711 -12.614  -6.614  0.00  0.00     0.098 A 
ATOM     15  N   UNL d   1      29.867 -12.960  -7.201  0.00  0.00    -0.191 NA
ATOM     16  C   UNL d   1      27.913 -13.796  -6.101  0.00  0.00     0.119 A 
ATOM     17  S   UNL d   1      29.954 -14.613  -7.132  0.00  0.00     0.117 SA
ATOM     18  N   UNL d   1      28.549 -14.955  -6.330  0.00  0.00    -0.190 NA
ENDBRANCH   7  10
ENDBRANCH   5   7
ENDBRANCH   3   5
BRANCH   2  19
ATOM     19  C   UNL d   1      26.393 -16.656   0.175  0.00  0.00     0.246 C 
ATOM     20  C   UNL d   1      26.414 -18.079   0.727  0.00  0.00     0.218 C 
ATOM     21  O   UNL d   1      25.620 -18.952  -0.081  0.00  0.00    -0.345 OA
ATOM     22  C   UNL d   1      24.400 -18.394  -0.363  0.00  0.00     0.102 A 
ATOM     23  C   UNL d   1      23.423 -19.250  -0.864  0.00  0.00     0.039 A 
ATOM     24  C   UNL d   1      24.119 -17.039  -0.174  0.00  0.00     0.103 A 
ATOM     25  C   UNL d   1      22.143 -18.763  -1.127  0.00  0.00     0.003 A 
ATOM     26  C   UNL d   1      21.842 -17.421  -0.889  0.00  0.00     0.003 A 
ATOM     27  C   UNL d   1      22.832 -16.558  -0.410  0.00  0.00     0.040 A 
ATOM     28  O   UNL d   1      25.063 -16.129   0.231  0.00  0.00    -0.331 OA
ENDBRANCH   2  19
TORSDOF 4
ENDMDL
MODEL 3
REMARK VINA RESULT:    -7.546      3.648      6.769
REMARK INTER + INTRA:         -11.228
REMARK INTER:                  -8.739
REMARK INTRA:                  -2.489
REMARK CONF_INDEPENDENT:        1.193
REMARK UNBOUND:                -2.489
REMARK  4 active torsions:
REMARK  status: ('A' for Active; 'I' for Inactive)
REMARK       I    between atoms: C_2  and  N_3 
REMARK    1  A    between atoms: C_2  and  C_17 
REMARK    2  A    between atoms: N_3  and  N_4 
REMARK    3  A    between atoms: N_4  and  S_5 
REMARK    4  A    between atoms: S_5  and  C_8 
ROOT
ATOM      1  O   UNL d   1      28.536 -17.105  -1.495  0.00  0.00    -0.269 OA
ATOM      2  C   UNL d   1      27.568 -16.382  -1.264  0.00  0.00     0.268 C 
ATOM      3  N   UNL d   1      26.971 -15.609  -2.253  0.00  0.00    -0.258 N 
ATOM      4  H   UNL d   1      26.228 -14.937  -2.069  0.00  0.00     0.190 HD
ENDROOT
BRANCH   3   5
ATOM      5  N   UNL d   1      27.521 -15.552  -3.623  0.00  0.00    -0.220 N 
ATOM      6  H   UNL d   1      28.112 -16.342  -3.893  0.00  0.00     0.200 HD
BRANCH   5   7
ATOM      7  S   UNL d   1      26.497 -14.810  -4.766  0.00  0.00     0.278 S 
ATOM      8  O   UNL d   1      27.007 -15.209  -6.057  0.00  0.00    -0.199 OA
ATOM      9  O   UNL d   1      25.155 -15.194  -4.369  0.00  0.00    -0.199 OA
BRANCH   7  10
ATOM     10  C   UNL d   1      26.712 -13.068  -4.630  0.00  0.00     0.112 A 
ATOM     11  C   UNL d   1      26.568 -12.217  -5.756  0.00  0.00     0.028 A 
ATOM     12  C   UNL d   1      26.509 -10.799  -5.658  0.00  0.00     0.004 A 
ATOM     13  C   UNL d   1      26.582 -10.105  -4.439  0.00  0.00     0.035 A 
ATOM     14  C   UNL d   1      26.751 -10.904  -3.285  0.00  0.00     0.098 A 
ATOM     15  N   UNL d   1      26.861 -10.433  -2.033  0.00  0.00    -0.191 NA
ATOM     16  C   UNL d   1      26.813 -12.416  -3.374  0.00  0.00     0.119 A 
ATOM     17  S   UNL d   1      27.039 -11.754  -1.049  0.00  0.00     0.117 SA
ATOM     18  N   UNL d   1      26.951 -12.974  -2.161  0.00  0.00    -0.190 NA
ENDBRANCH   7  10
ENDBRANCH   5   7
ENDBRANCH   3   5
BRANCH   2  19
ATOM     19  C   UNL d   1      26.858 -16.303   0.119  0.00  0.00     0.246 C 
ATOM     20  C   UNL d   1      26.891 -17.651   0.834  0.00  0.00     0.218 C 
ATOM     21  O   UNL d   1      26.118 -18.624   0.126  0.00  0.00    -0.345 OA
ATOM     22  C   UNL d   1      24.895 -18.121  -0.232  0.00  0.00     0.102 A 
ATOM     23  C   UNL d   1      23.935 -19.044  -0.640  0.00  0.00     0.039 A 
ATOM     24  C   UNL d   1      24.593 -16.757  -0.206  0.00  0.00     0.103 A 
ATOM     25  C   UNL d   1      22.652 -18.610  -0.971  0.00  0.00     0.003 A 
ATOM     26  C   UNL d   1      22.331 -17.254  -0.895  0.00  0.00     0.003 A 
ATOM     27  C   UNL d   1      23.303 -16.325  -0.511  0.00  0.00     0.040 A 
ATOM     28  O   UNL d   1      25.520 -15.792   0.099  0.00  0.00    -0.331 OA
ENDBRANCH   2  19
TORSDOF 4
ENDMDL
MODEL 4
REMARK VINA RESULT:    -7.458      3.347      5.502
REMARK INTER + INTRA:         -10.829
REMARK INTER:                  -8.651
REMARK INTRA:                  -2.178
REMARK CONF_INDEPENDENT:        1.193
REMARK UNBOUND:                -2.178
REMARK  4 active torsions:
REMARK  status: ('A' for Active; 'I' for Inactive)
REMARK       I    between atoms: C_2  and  N_3 
REMARK    1  A    between atoms: C_2  and  C_17 
REMARK    2  A    between atoms: N_3  and  N_4 
REMARK    3  A    between atoms: N_4  and  S_5 
REMARK    4  A    between atoms: S_5  and  C_8 
ROOT
ATOM      1  O   UNL d   1      27.761 -15.200  -6.405  0.00  0.00    -0.269 OA
ATOM      2  C   UNL d   1      27.668 -14.126  -5.813  0.00  0.00     0.268 C 
ATOM      3  N   UNL d   1      26.913 -13.984  -4.654  0.00  0.00    -0.258 N 
ATOM      4  H   UNL d   1      26.749 -13.089  -4.197  0.00  0.00     0.190 HD
ENDROOT
BRANCH   3   5
ATOM      5  N   UNL d   1      26.112 -15.102  -4.115  0.00  0.00    -0.220 N 
ATOM      6  H   UNL d   1      26.460 -16.039  -4.335  0.00  0.00     0.200 HD
BRANCH   5   7
ATOM      7  S   UNL d   1      25.378 -14.785  -2.610  0.00  0.00     0.278 S 
ATOM      8  O   UNL d   1      26.108 -13.670  -2.052  0.00  0.00    -0.199 OA
ATOM      9  O   UNL d   1      23.964 -14.647  -2.906  0.00  0.00    -0.199 OA
BRANCH   7  10
ATOM     10  C   UNL d   1      25.663 -16.175  -1.568  0.00  0.00     0.112 A 
ATOM     11  C   UNL d   1      26.960 -16.475  -1.076  0.00  0.00     0.028 A 
ATOM     12  C   UNL d   1      27.203 -17.443  -0.062  0.00  0.00     0.004 A 
ATOM     13  C   UNL d   1      26.185 -18.190   0.554  0.00  0.00     0.035 A 
ATOM     14  C   UNL d   1      24.875 -17.949   0.083  0.00  0.00     0.098 A 
ATOM     15  N   UNL d   1      23.772 -18.572   0.526  0.00  0.00    -0.191 NA
ATOM     16  C   UNL d   1      24.600 -16.920  -0.996  0.00  0.00     0.119 A 
ATOM     17  S   UNL d   1      22.501 -17.943  -0.330  0.00  0.00     0.117 SA
ATOM     18  N   UNL d   1      23.289 -16.836  -1.271  0.00  0.00    -0.190 NA
ENDBRANCH   7  10
ENDBRANCH   5   7
ENDBRANCH   3   5
BRANCH   2  19
ATOM     19  C   UNL d   1      28.431 -12.837  -6.236  0.00  0.00     0.246 C 
ATOM     20  C   UNL d   1      29.144 -12.202  -5.045  0.00  0.00     0.218 C 
ATOM     21  O   UNL d   1      28.202 -11.723  -4.081  0.00  0.00    -0.345 OA
ATOM     22  C   UNL d   1      27.200 -11.007  -4.681  0.00  0.00     0.102 A 
ATOM     23  C   UNL d   1      26.403 -10.228  -3.845  0.00  0.00     0.039 A 
ATOM     24  C   UNL d   1      26.957 -11.037  -6.056  0.00  0.00     0.103 A 
ATOM     25  C   UNL d   1      25.395  -9.433  -4.391  0.00  0.00     0.003 A 
ATOM     26  C   UNL d   1      25.185  -9.419  -5.770  0.00  0.00     0.003 A 
ATOM     27  C   UNL d   1      25.968 -10.222  -6.605  0.00  0.00     0.040 A 
ATOM     28  O   UNL d   1      27.648 -11.851  -6.919  0.00  0.00    -0.331 OA
ENDBRANCH   2  19
TORSDOF 4
ENDMDL
MODEL 5
REMARK VINA RESULT:    -7.413      3.317      7.321
REMARK INTER + INTRA:         -10.647
REMARK INTER:                  -8.606
REMARK INTRA:                  -2.042
REMARK CONF_INDEPENDENT:        1.193
REMARK UNBOUND:                -2.042
REMARK  4 active torsions:
REMARK  status: ('A' for Active; 'I' for Inactive)
REMARK       I    between atoms: C_2  and  N_3 
REMARK    1  A    between atoms: C_2  and  C_17 
REMARK    2  A    between atoms: N_3  and  N_4 
REMARK    3  A    between atoms: N_4  and  S_5 
REMARK    4  A    between atoms: S_5  and  C_8 
ROOT
ATOM      1  O   UNL d   1      28.602 -16.662  -1.323  0.00  0.00    -0.269 OA
ATOM      2  C   UNL d   1      27.444 -16.278  -1.163  0.00  0.00     0.268 C 
ATOM      3  N   UNL d   1      26.648 -15.870  -2.227  0.00  0.00    -0.258 N 
ATOM      4  H   UNL d   1      25.720 -15.466  -2.112  0.00  0.00     0.190 HD
ENDROOT
BRANCH   3   5
ATOM      5  N   UNL d   1      27.178 -15.800  -3.604  0.00  0.00    -0.220 N 
ATOM      6  H   UNL d   1      27.734 -16.604  -3.903  0.00  0.00     0.200 HD
BRANCH   5   7
ATOM      7  S   UNL d   1      26.166 -14.991  -4.711  0.00  0.00     0.278 S 
ATOM      8  O   UNL d   1      25.880 -15.955  -5.749  0.00  0.00    -0.199 OA
ATOM      9  O   UNL d   1      25.085 -14.454  -3.905  0.00  0.00    -0.199 OA
BRANCH   7  10
ATOM     10  C   UNL d   1      27.101 -13.691  -5.444  0.00  0.00     0.112 A 
ATOM     11  C   UNL d   1      28.238 -13.962  -6.247  0.00  0.00     0.028 A 
ATOM     12  C   UNL d   1      28.887 -12.972  -7.037  0.00  0.00     0.004 A 
ATOM     13  C   UNL d   1      28.463 -11.635  -7.103  0.00  0.00     0.035 A 
ATOM     14  C   UNL d   1      27.347 -11.303  -6.301  0.00  0.00     0.098 A 
ATOM     15  N   UNL d   1      26.802 -10.080  -6.209  0.00  0.00    -0.191 NA
ATOM     16  C   UNL d   1      26.644 -12.347  -5.456  0.00  0.00     0.119 A 
ATOM     17  S   UNL d   1      25.531 -10.211  -5.155  0.00  0.00     0.117 SA
ATOM     18  N   UNL d   1      25.599 -11.823  -4.798  0.00  0.00    -0.190 NA
ENDBRANCH   7  10
ENDBRANCH   5   7
ENDBRANCH   3   5
BRANCH   2  19
ATOM     19  C   UNL d   1      26.718 -16.273   0.213  0.00  0.00     0.246 C 
ATOM     20  C   UNL d   1      26.764 -17.651   0.867  0.00  0.00     0.218 C 
ATOM     21  O   UNL d   1      26.016 -18.603   0.106  0.00  0.00    -0.345 OA
ATOM     22  C   UNL d   1      24.789 -18.104  -0.243  0.00  0.00     0.102 A 
ATOM     23  C   UNL d   1      23.850 -19.023  -0.704  0.00  0.00     0.039 A 
ATOM     24  C   UNL d   1      24.464 -16.748  -0.160  0.00  0.00     0.103 A 
ATOM     25  C   UNL d   1      22.563 -18.595  -1.031  0.00  0.00     0.003 A 
ATOM     26  C   UNL d   1      22.218 -17.249  -0.898  0.00  0.00     0.003 A 
ATOM     27  C   UNL d   1      23.170 -16.324  -0.460  0.00  0.00     0.040 A 
ATOM     28  O   UNL d   1      25.372 -15.784   0.200  0.00  0.00    -0.331 OA
ENDBRANCH   2  19
TORSDOF 4
ENDMDL
MODEL 6
REMARK VINA RESULT:    -7.398      2.760      7.151
REMARK INTER + INTRA:         -10.567
REMARK INTER:                  -8.591
REMARK INTRA:                  -1.975
REMARK CONF_INDEPENDENT:        1.193
REMARK UNBOUND:                -1.975
REMARK  4 active torsions:
REMARK  status: ('A' for Active; 'I' for Inactive)
REMARK       I    between atoms: C_2  and  N_3 
REMARK    1  A    between atoms: C_2  and  C_17 
REMARK    2  A    between atoms: N_3  and  N_4 
REMARK    3  A    between atoms: N_4  and  S_5 
REMARK    4  A    between atoms: S_5  and  C_8 
ROOT
ATOM      1  O   UNL d   1      26.312 -15.575  -5.386  0.00  0.00    -0.269 OA
ATOM      2  C   UNL d   1      26.674 -15.260  -4.253  0.00  0.00     0.268 C 
ATOM      3  N   UNL d   1      27.975 -15.464  -3.810  0.00  0.00    -0.258 N 
ATOM      4  H   UNL d   1      28.276 -15.296  -2.852  0.00  0.00     0.190 HD
ENDROOT
BRANCH   3   5
ATOM      5  N   UNL d   1      28.978 -16.146  -4.654  0.00  0.00    -0.220 N 
ATOM      6  H   UNL d   1      28.905 -17.166  -4.688  0.00  0.00     0.200 HD
BRANCH   5   7
ATOM      7  S   UNL d   1      29.454 -15.270  -6.036  0.00  0.00     0.278 S 
ATOM      8  O   UNL d   1      28.278 -15.200  -6.872  0.00  0.00    -0.199 OA
ATOM      9  O   UNL d   1      30.046 -14.050  -5.519  0.00  0.00    -0.199 OA
BRANCH   7  10
ATOM     10  C   UNL d   1      30.655 -16.228  -6.895  0.00  0.00     0.112 A 
ATOM     11  C   UNL d   1      31.656 -15.615  -7.691  0.00  0.00     0.028 A 
ATOM     12  C   UNL d   1      32.773 -16.322  -8.218  0.00  0.00     0.004 A 
ATOM     13  C   UNL d   1      32.996 -17.691  -7.997  0.00  0.00     0.035 A 
ATOM     14  C   UNL d   1      32.014 -18.358  -7.230  0.00  0.00     0.098 A 
ATOM     15  N   UNL d   1      32.033 -19.665  -6.924  0.00  0.00    -0.191 NA
ATOM     16  C   UNL d   1      30.819 -17.618  -6.660  0.00  0.00     0.119 A 
ATOM     17  S   UNL d   1      30.678 -19.955  -6.016  0.00  0.00     0.117 SA
ATOM     18  N   UNL d   1      30.031 -18.435  -5.946  0.00  0.00    -0.190 NA
ENDBRANCH   7  10
ENDBRANCH   5   7
ENDBRANCH   3   5
BRANCH   2  19
ATOM     19  C   UNL d   1      25.757 -14.541  -3.221  0.00  0.00     0.246 C 
ATOM     20  C   UNL d   1      26.560 -14.044  -2.022  0.00  0.00     0.218 C 
ATOM     21  O   UNL d   1      27.095 -15.141  -1.276  0.00  0.00    -0.345 OA
ATOM     22  C   UNL d   1      26.142 -16.100  -1.053  0.00  0.00     0.102 A 
ATOM     23  C   UNL d   1      26.435 -17.057  -0.084  0.00  0.00     0.039 A 
ATOM     24  C   UNL d   1      24.931 -16.150  -1.747  0.00  0.00     0.103 A 
ATOM     25  C   UNL d   1      25.492 -18.035   0.232  0.00  0.00     0.003 A 
ATOM     26  C   UNL d   1      24.259 -18.056  -0.422  0.00  0.00     0.003 A 
ATOM     27  C   UNL d   1      23.978 -17.111  -1.413  0.00  0.00     0.040 A 
ATOM     28  O   UNL d   1      24.623 -15.292  -2.773  0.00  0.00    -0.331 OA
ENDBRANCH   2  19
TORSDOF 4
ENDMDL
MODEL 7
REMARK VINA RESULT:    -7.057      2.122      2.847
REMARK INTER + INTRA:         -10.618
REMARK INTER:                  -8.250
REMARK INTRA:                  -2.368
REMARK CONF_INDEPENDENT:        1.193
REMARK UNBOUND:                -2.368
REMARK  4 active torsions:
REMARK  status: ('A' for Active; 'I' for Inactive)
REMARK       I    between atoms: C_2  and  N_3 
REMARK    1  A    between atoms: C_2  and  C_17 
REMARK    2  A    between atoms: N_3  and  N_4 
REMARK    3  A    between atoms: N_4  and  S_5 
REMARK    4  A    between atoms: S_5  and  C_8 
ROOT
ATOM      1  O   UNL d   1      28.517 -11.876  -4.192  0.00  0.00    -0.269 OA
ATOM      2  C   UNL d   1      28.419 -12.864  -4.918  0.00  0.00     0.268 C 
ATOM      3  N   UNL d   1      27.504 -13.879  -4.665  0.00  0.00    -0.258 N 
ATOM      4  H   UNL d   1      27.465 -14.746  -5.197  0.00  0.00     0.190 HD
ENDROOT
BRANCH   3   5
ATOM      5  N   UNL d   1      26.650 -13.864  -3.459  0.00  0.00    -0.220 N 
ATOM      6  H   UNL d   1      26.449 -12.938  -3.074  0.00  0.00     0.200 HD
BRANCH   5   7
ATOM      7  S   UNL d   1      25.471 -15.093  -3.412  0.00  0.00     0.278 S 
ATOM      8  O   UNL d   1      24.254 -14.444  -2.981  0.00  0.00    -0.199 OA
ATOM      9  O   UNL d   1      25.532 -15.719  -4.719  0.00  0.00    -0.199 OA
BRANCH   7  10
ATOM     10  C   UNL d   1      25.933 -16.234  -2.153  0.00  0.00     0.112 A 
ATOM     11  C   UNL d   1      27.266 -16.303  -1.673  0.00  0.00     0.028 A 
ATOM     12  C   UNL d   1      27.639 -17.040  -0.514  0.00  0.00     0.004 A 
ATOM     13  C   UNL d   1      26.725 -17.766   0.267  0.00  0.00     0.035 A 
ATOM     14  C   UNL d   1      25.385 -17.753  -0.181  0.00  0.00     0.098 A 
ATOM     15  N   UNL d   1      24.368 -18.397   0.413  0.00  0.00    -0.191 NA
ATOM     16  C   UNL d   1      24.972 -16.970  -1.413  0.00  0.00     0.119 A 
ATOM     17  S   UNL d   1      23.015 -18.069  -0.485  0.00  0.00     0.117 SA
ATOM     18  N   UNL d   1      23.654 -17.074  -1.641  0.00  0.00    -0.190 NA
ENDBRANCH   7  10
ENDBRANCH   5   7
ENDBRANCH   3   5
BRANCH   2  19
ATOM     19  C   UNL d   1      29.240 -13.061  -6.225  0.00  0.00     0.246 C 
ATOM     20  C   UNL d   1      28.572 -14.074  -7.150  0.00  0.00     0.218 C 
ATOM     21  O   UNL d   1      28.572 -15.379  -6.564  0.00  0.00    -0.345 OA
ATOM     22  C   UNL d   1      29.806 -15.694  -6.058  0.00  0.00     0.102 A 
ATOM     23  C   UNL d   1      30.031 -17.033  -5.749  0.00  0.00     0.039 A 
ATOM     24  C   UNL d   1      30.809 -14.745  -5.844  0.00  0.00     0.103 A 
ATOM     25  C   UNL d   1      31.280 -17.436  -5.276  0.00  0.00     0.003 A 
ATOM     26  C   UNL d   1      32.301 -16.499  -5.113  0.00  0.00     0.003 A 
ATOM     27  C   UNL d   1      32.066 -15.151  -5.398  0.00  0.00     0.040 A 
ATOM     28  O   UNL d   1      30.620 -13.400  -6.044  0.00  0.00    -0.331 OA
ENDBRANCH   2  19
TORSDOF 4
ENDMDL
MODEL 8
REMARK VINA RESULT:    -6.991      2.768      6.677
REMARK INTER + INTRA:         -10.650
REMARK INTER:                  -8.184
REMARK INTRA:                  -2.466
REMARK CONF_INDEPENDENT:        1.193
REMARK UNBOUND:                -2.466
REMARK  4 active torsions:
REMARK  status: ('A' for Active; 'I' for Inactive)
REMARK       I    between atoms: C_2  and  N_3 
REMARK    1  A    between atoms: C_2  and  C_17 
REMARK    2  A    between atoms: N_3  and  N_4 
REMARK    3  A    between atoms: N_4  and  S_5 
REMARK    4  A    between atoms: S_5  and  C_8 
ROOT
ATOM      1  O   UNL d   1      26.658 -15.262  -5.772  0.00  0.00    -0.269 OA
ATOM      2  C   UNL d   1      26.871 -15.138  -4.566  0.00  0.00     0.268 C 
ATOM      3  N   UNL d   1      28.049 -15.580  -3.975  0.00  0.00    -0.258 N 
ATOM      4  H   UNL d   1      28.211 -15.570  -2.970  0.00  0.00     0.190 HD
ENDROOT
BRANCH   3   5
ATOM      5  N   UNL d   1      29.079 -16.299  -4.753  0.00  0.00    -0.220 N 
ATOM      6  H   UNL d   1      29.167 -16.017  -5.732  0.00  0.00     0.200 HD
BRANCH   5   7
ATOM      7  S   UNL d   1      30.457 -16.747  -3.857  0.00  0.00     0.278 S 
ATOM      8  O   UNL d   1      31.501 -15.839  -4.274  0.00  0.00    -0.199 OA
ATOM      9  O   UNL d   1      30.017 -16.755  -2.474  0.00  0.00    -0.199 OA
BRANCH   7  10
ATOM     10  C   UNL d   1      30.930 -18.363  -4.368  0.00  0.00     0.112 A 
ATOM     11  C   UNL d   1      31.150 -19.401  -3.426  0.00  0.00     0.028 A 
ATOM     12  C   UNL d   1      31.311 -20.766  -3.794  0.00  0.00     0.004 A 
ATOM     13  C   UNL d   1      31.264 -21.219  -5.123  0.00  0.00     0.035 A 
ATOM     14  C   UNL d   1      31.073 -20.222  -6.106  0.00  0.00     0.098 A 
ATOM     15  N   UNL d   1      31.018 -20.446  -7.428  0.00  0.00    -0.191 NA
ATOM     16  C   UNL d   1      30.897 -18.764  -5.729  0.00  0.00     0.119 A 
ATOM     17  S   UNL d   1      30.780 -18.972  -8.145  0.00  0.00     0.117 SA
ATOM     18  N   UNL d   1      30.704 -17.997  -6.813  0.00  0.00    -0.190 NA
ENDBRANCH   7  10
ENDBRANCH   5   7
ENDBRANCH   3   5
BRANCH   2  19
ATOM     19  C   UNL d   1      25.900 -14.418  -3.586  0.00  0.00     0.246 C 
ATOM     20  C   UNL d   1      26.656 -13.803  -2.412  0.00  0.00     0.218 C 
ATOM     21  O   UNL d   1      27.248 -14.820  -1.598  0.00  0.00    -0.345 OA
ATOM     22  C   UNL d   1      26.353 -15.822  -1.327  0.00  0.00     0.102 A 
ATOM     23  C   UNL d   1      26.692 -16.700  -0.301  0.00  0.00     0.039 A 
ATOM     24  C   UNL d   1      25.156 -15.986  -2.027  0.00  0.00     0.103 A 
ATOM     25  C   UNL d   1      25.806 -17.715   0.064  0.00  0.00     0.003 A 
ATOM     26  C   UNL d   1      24.585 -17.849  -0.598  0.00  0.00     0.003 A 
ATOM     27  C   UNL d   1      24.258 -16.983  -1.645  0.00  0.00     0.040 A 
ATOM     28  O   UNL d   1      24.808 -15.210  -3.104  0.00  0.00    -0.331 OA
ENDBRANCH   2  19
TORSDOF 4
ENDMDL
MODEL 9
REMARK VINA RESULT:    -6.485      1.562      2.139
REMARK INTER + INTRA:         -10.509
REMARK INTER:                  -7.679
REMARK INTRA:                  -2.830
REMARK CONF_INDEPENDENT:        1.193
REMARK UNBOUND:                -2.830
REMARK  4 active torsions:
REMARK  status: ('A' for Active; 'I' for Inactive)
REMARK       I    between atoms: C_2  and  N_3 
REMARK    1  A    between atoms: C_2  and  C_17 
REMARK    2  A    between atoms: N_3  and  N_4 
REMARK    3  A    between atoms: N_4  and  S_5 
REMARK    4  A    between atoms: S_5  and  C_8 
ROOT
ATOM      1  O   UNL d   1      28.377 -11.709  -4.029  0.00  0.00    -0.269 OA
ATOM      2  C   UNL d   1      28.423 -12.769  -4.652  0.00  0.00     0.268 C 
ATOM      3  N   UNL d   1      27.492 -13.782  -4.456  0.00  0.00    -0.258 N 
ATOM      4  H   UNL d   1      27.559 -14.700  -4.892  0.00  0.00     0.190 HD
ENDROOT
BRANCH   3   5
ATOM      5  N   UNL d   1      26.438 -13.671  -3.426  0.00  0.00    -0.220 N 
ATOM      6  H   UNL d   1      26.230 -12.720  -3.110  0.00  0.00     0.200 HD
BRANCH   5   7
ATOM      7  S   UNL d   1      25.194 -14.827  -3.560  0.00  0.00     0.278 S 
ATOM      8  O   UNL d   1      23.961 -14.074  -3.521  0.00  0.00    -0.199 OA
ATOM      9  O   UNL d   1      25.530 -15.603  -4.739  0.00  0.00    -0.199 OA
BRANCH   7  10
ATOM     10  C   UNL d   1      25.240 -15.836  -2.118  0.00  0.00     0.112 A 
ATOM     11  C   UNL d   1      24.050 -16.344  -1.535  0.00  0.00     0.028 A 
ATOM     12  C   UNL d   1      24.045 -17.337  -0.515  0.00  0.00     0.004 A 
ATOM     13  C   UNL d   1      25.214 -17.913   0.008  0.00  0.00     0.035 A 
ATOM     14  C   UNL d   1      26.431 -17.425  -0.520  0.00  0.00     0.098 A 
ATOM     15  N   UNL d   1      27.652 -17.831  -0.140  0.00  0.00    -0.191 NA
ATOM     16  C   UNL d   1      26.452 -16.369  -1.608  0.00  0.00     0.119 A 
ATOM     17  S   UNL d   1      28.737 -16.969  -1.048  0.00  0.00     0.117 SA
ATOM     18  N   UNL d   1      27.707 -16.072  -1.979  0.00  0.00    -0.190 NA
ENDBRANCH   7  10
ENDBRANCH   5   7
ENDBRANCH   3   5
BRANCH   2  19
ATOM     19  C   UNL d   1      29.465 -13.072  -5.768  0.00  0.00     0.246 C 
ATOM     20  C   UNL d   1      28.883 -14.001  -6.830  0.00  0.00     0.218 C 
ATOM     21  O   UNL d   1      28.606 -15.293  -6.281  0.00  0.00    -0.345 OA
ATOM     22  C   UNL d   1      29.663 -15.754  -5.540  0.00  0.00     0.102 A 
ATOM     23  C   UNL d   1      29.655 -17.108  -5.218  0.00  0.00     0.039 A 
ATOM     24  C   UNL d   1      30.707 -14.933  -5.108  0.00  0.00     0.103 A 
ATOM     25  C   UNL d   1      30.723 -17.659  -4.508  0.00  0.00     0.003 A 
ATOM     26  C   UNL d   1      31.795 -16.853  -4.121  0.00  0.00     0.003 A 
ATOM     27  C   UNL d   1      31.788 -15.488  -4.422  0.00  0.00     0.040 A 
ATOM     28  O   UNL d   1      30.727 -13.577  -5.315  0.00  0.00    -0.331 OA
ENDBRANCH   2  19
TORSDOF 4
ENDMDL
