MODEL 1
REMARK VINA RESULT:    -7.012      0.000      0.000
REMARK INTER + INTRA:         -10.389
REMARK INTER:                  -9.399
REMARK INTRA:                  -0.990
REMARK CONF_INDEPENDENT:        2.386
REMARK UNBOUND:                -0.990
REMARK  8 active torsions:
REMARK  status: ('A' for Active; 'I' for Inactive)
REMARK    1  A    between atoms: C_2  and  C_3 
REMARK       I    between atoms: C_2  and  N_13 
REMARK    2  A    between atoms: C_3  and  O_4 
REMARK    3  A    between atoms: O_4  and  C_5 
REMARK    4  A    between atoms: N_13  and  N_14 
REMARK       I    between atoms: N_14  and  C_15 
REMARK       I    between atoms: C_15  and  N_17 
REMARK    5  A    between atoms: N_17  and  C_18 
REMARK    6  A    between atoms: C_18  and  C_19 
REMARK    7  A    between atoms: C_19  and  C_20 
REMARK    8  A    between atoms: C_20  and  N_21 
ROOT
ATOM      1  N   UNL d   1      26.783 -13.019  -5.163  0.00  0.00    -0.249 N 
ATOM      2  C   UNL d   1      27.465 -14.118  -5.674  0.00  0.00     0.334 C 
ATOM      3  O   UNL d   1      26.929 -15.197  -5.915  0.00  0.00    -0.246 OA
ATOM      4  N   UNL d   1      28.813 -13.894  -5.895  0.00  0.00    -0.342 N 
ATOM      5  H   UNL d   1      27.246 -12.145  -4.965  0.00  0.00     0.192 HD
ATOM      6  H   UNL d   1      29.200 -12.989  -5.676  0.00  0.00     0.164 HD
ENDROOT
BRANCH   1   7
ATOM      7  N   UNL d   1      25.398 -13.143  -4.897  0.00  0.00    -0.264 N 
ATOM      8  C   UNL d   1      24.785 -14.017  -4.016  0.00  0.00     0.260 C 
ATOM      9  O   UNL d   1      23.559 -13.981  -3.898  0.00  0.00    -0.269 OA
ATOM     10  H   UNL d   1      24.780 -12.510  -5.410  0.00  0.00     0.190 HD
BRANCH   8  11
ATOM     11  C   UNL d   1      25.658 -14.987  -3.206  0.00  0.00     0.280 C 
BRANCH  11  12
ATOM     12  O   UNL d   1      24.880 -15.894  -2.412  0.00  0.00    -0.340 OA
BRANCH  12  13
ATOM     13  C   UNL d   1      25.599 -16.647  -1.515  0.00  0.00     0.092 A 
ATOM     14  C   UNL d   1      26.996 -16.586  -1.465  0.00  0.00     0.062 A 
ATOM     15  C   UNL d   1      27.701 -17.365  -0.545  0.00  0.00     0.036 A 
ATOM     16 CL   UNL d   1      29.421 -17.300  -0.524  0.00  0.00    -0.084 Cl
ATOM     17  C   UNL d   1      27.031 -18.199   0.345  0.00  0.00     0.026 A 
ATOM     18  C   UNL d   1      25.635 -18.228   0.340  0.00  0.00     0.028 A 
ATOM     19  C   UNL d   1      24.921 -17.439  -0.574  0.00  0.00     0.067 A 
ATOM     20 CL   UNL d   1      23.197 -17.494  -0.512  0.00  0.00    -0.081 Cl
ENDBRANCH  12  13
ENDBRANCH  11  12
ENDBRANCH   8  11
ENDBRANCH   1   7
BRANCH   4  21
ATOM     21  C   UNL d   1      29.676 -14.947  -6.434  0.00  0.00     0.126 C 
BRANCH  21  22
ATOM     22  C   UNL d   1      29.683 -16.219  -5.582  0.00  0.00     0.040 C 
BRANCH  22  23
ATOM     23  C   UNL d   1      30.405 -17.392  -6.261  0.00  0.00     0.130 C 
BRANCH  23  24
ATOM     24  N   UNL d   1      30.636 -18.515  -5.325  0.00  0.00    -0.352 N 
ATOM     25  C   UNL d   1      31.071 -18.410  -4.005  0.00  0.00     0.108 A 
ATOM     26  C   UNL d   1      31.155 -19.677  -3.506  0.00  0.00     0.106 A 
ATOM     27  N   UNL d   1      30.740 -20.513  -4.513  0.00  0.00    -0.361 N 
ATOM     28  C   UNL d   1      30.416 -19.813  -5.606  0.00  0.00     0.182 A 
ATOM     29  H   UNL d   1      30.679 -21.527  -4.444  0.00  0.00     0.166 HD
ENDBRANCH  23  24
ENDBRANCH  22  23
ENDBRANCH  21  22
ENDBRANCH   4  21
TORSDOF 8
ENDMDL
MODEL 2
REMARK VINA RESULT:    -6.975      1.248      2.408
REMARK INTER + INTRA:         -11.307
REMARK INTER:                  -9.361
REMARK INTRA:                  -1.945
REMARK CONF_INDEPENDENT:        2.386
REMARK UNBOUND:                -1.945
REMARK  8 active torsions:
REMARK  status: ('A' for Active; 'I' for Inactive)
REMARK    1  A    between atoms: C_2  and  C_3 
REMARK       I    between atoms: C_2  and  N_13 
REMARK    2  A    between atoms: C_3  and  O_4 
REMARK    3  A    between atoms: O_4  and  C_5 
REMARK    4  A    between atoms: N_13  and  N_14 
REMARK       I    between atoms: N_14  and  C_15 
REMARK       I    between atoms: C_15  and  N_17 
REMARK    5  A    between atoms: N_17  and  C_18 
REMARK    6  A    between atoms: C_18  and  C_19 
REMARK    7  A    between atoms: C_19  and  C_20 
REMARK    8  A    between atoms: C_20  and  N_21 
ROOT
ATOM      1  N   UNL d   1      27.500 -15.101  -4.325  0.00  0.00    -0.249 N 
ATOM      2  C   UNL d   1      28.416 -15.314  -5.351  0.00  0.00     0.334 C 
ATOM      3  O   UNL d   1      28.138 -15.201  -6.543  0.00  0.00    -0.246 OA
ATOM      4  N   UNL d   1      29.681 -15.668  -4.915  0.00  0.00    -0.342 N 
ATOM      5  H   UNL d   1      27.748 -15.209  -3.354  0.00  0.00     0.192 HD
ATOM      6  H   UNL d   1      29.851 -15.749  -3.925  0.00  0.00     0.164 HD
ENDROOT
BRANCH   1   7
ATOM      7  N   UNL d   1      26.175 -14.739  -4.664  0.00  0.00    -0.264 N 
ATOM      8  C   UNL d   1      25.156 -14.372  -3.801  0.00  0.00     0.260 C 
ATOM      9  O   UNL d   1      24.057 -14.072  -4.270  0.00  0.00    -0.269 OA
ATOM     10  H   UNL d   1      25.944 -14.742  -5.660  0.00  0.00     0.190 HD
BRANCH   8  11
ATOM     11  C   UNL d   1      25.439 -14.336  -2.292  0.00  0.00     0.280 C 
BRANCH  11  12
ATOM     12  O   UNL d   1      26.352 -15.363  -1.879  0.00  0.00    -0.340 OA
BRANCH  12  13
ATOM     13  C   UNL d   1      25.782 -16.411  -1.197  0.00  0.00     0.092 A 
ATOM     14  C   UNL d   1      24.407 -16.662  -1.262  0.00  0.00     0.062 A 
ATOM     15  C   UNL d   1      23.854 -17.733  -0.556  0.00  0.00     0.036 A 
ATOM     16 CL   UNL d   1      22.156 -18.004  -0.623  0.00  0.00    -0.084 Cl
ATOM     17  C   UNL d   1      24.658 -18.575   0.208  0.00  0.00     0.026 A 
ATOM     18  C   UNL d   1      26.037 -18.365   0.237  0.00  0.00     0.028 A 
ATOM     19  C   UNL d   1      26.600 -17.299  -0.479  0.00  0.00     0.067 A 
ATOM     20 CL   UNL d   1      28.315 -17.108  -0.428  0.00  0.00    -0.081 Cl
ENDBRANCH  12  13
ENDBRANCH  11  12
ENDBRANCH   8  11
ENDBRANCH   1   7
BRANCH   4  21
ATOM     21  C   UNL d   1      30.764 -15.925  -5.866  0.00  0.00     0.126 C 
BRANCH  21  22
ATOM     22  C   UNL d   1      30.431 -17.023  -6.880  0.00  0.00     0.040 C 
BRANCH  22  23
ATOM     23  C   UNL d   1      31.489 -18.135  -6.929  0.00  0.00     0.130 C 
BRANCH  23  24
ATOM     24  N   UNL d   1      31.212 -19.205  -5.944  0.00  0.00    -0.352 N 
ATOM     25  C   UNL d   1      31.310 -19.092  -4.558  0.00  0.00     0.108 A 
ATOM     26  C   UNL d   1      30.973 -20.305  -4.031  0.00  0.00     0.106 A 
ATOM     27  N   UNL d   1      30.648 -21.108  -5.096  0.00  0.00    -0.361 N 
ATOM     28  C   UNL d   1      30.780 -20.443  -6.249  0.00  0.00     0.182 A 
ATOM     29  H   UNL d   1      30.341 -22.077  -5.025  0.00  0.00     0.166 HD
ENDBRANCH  23  24
ENDBRANCH  22  23
ENDBRANCH  21  22
ENDBRANCH   4  21
TORSDOF 8
ENDMDL
MODEL 3
REMARK VINA RESULT:    -6.888      1.446      2.683
REMARK INTER + INTRA:         -11.211
REMARK INTER:                  -9.275
REMARK INTRA:                  -1.937
REMARK CONF_INDEPENDENT:        2.386
REMARK UNBOUND:                -1.937
REMARK  8 active torsions:
REMARK  status: ('A' for Active; 'I' for Inactive)
REMARK    1  A    between atoms: C_2  and  C_3 
REMARK       I    between atoms: C_2  and  N_13 
REMARK    2  A    between atoms: C_3  and  O_4 
REMARK    3  A    between atoms: O_4  and  C_5 
REMARK    4  A    between atoms: N_13  and  N_14 
REMARK       I    between atoms: N_14  and  C_15 
REMARK       I    between atoms: C_15  and  N_17 
REMARK    5  A    between atoms: N_17  and  C_18 
REMARK    6  A    between atoms: C_18  and  C_19 
REMARK    7  A    between atoms: C_19  and  C_20 
REMARK    8  A    between atoms: C_20  and  N_21 
ROOT
ATOM      1  N   UNL d   1      27.514 -14.984  -4.307  0.00  0.00    -0.249 N 
ATOM      2  C   UNL d   1      28.424 -15.232  -5.329  0.00  0.00     0.334 C 
ATOM      3  O   UNL d   1      28.129 -15.202  -6.522  0.00  0.00    -0.246 OA
ATOM      4  N   UNL d   1      29.706 -15.515  -4.889  0.00  0.00    -0.342 N 
ATOM      5  H   UNL d   1      27.776 -15.022  -3.334  0.00  0.00     0.192 HD
ATOM      6  H   UNL d   1      29.889 -15.528  -3.897  0.00  0.00     0.164 HD
ENDROOT
BRANCH   1   7
ATOM      7  N   UNL d   1      26.173 -14.688  -4.649  0.00  0.00    -0.264 N 
ATOM      8  C   UNL d   1      25.152 -14.304  -3.797  0.00  0.00     0.260 C 
ATOM      9  O   UNL d   1      24.038 -14.070  -4.270  0.00  0.00    -0.269 OA
ATOM     10  H   UNL d   1      25.932 -14.759  -5.641  0.00  0.00     0.190 HD
BRANCH   8  11
ATOM     11  C   UNL d   1      25.449 -14.167  -2.297  0.00  0.00     0.280 C 
BRANCH  11  12
ATOM     12  O   UNL d   1      26.389 -15.146  -1.831  0.00  0.00    -0.340 OA
BRANCH  12  13
ATOM     13  C   UNL d   1      25.836 -16.214  -1.165  0.00  0.00     0.092 A 
ATOM     14  C   UNL d   1      24.459 -16.459  -1.194  0.00  0.00     0.062 A 
ATOM     15  C   UNL d   1      23.926 -17.550  -0.505  0.00  0.00     0.036 A 
ATOM     16 CL   UNL d   1      22.224 -17.814  -0.526  0.00  0.00    -0.084 Cl
ATOM     17  C   UNL d   1      24.750 -18.418   0.206  0.00  0.00     0.026 A 
ATOM     18  C   UNL d   1      26.130 -18.213   0.198  0.00  0.00     0.028 A 
ATOM     19  C   UNL d   1      26.674 -17.126  -0.501  0.00  0.00     0.067 A 
ATOM     20 CL   UNL d   1      28.390 -16.941  -0.500  0.00  0.00    -0.081 Cl
ENDBRANCH  12  13
ENDBRANCH  11  12
ENDBRANCH   8  11
ENDBRANCH   1   7
BRANCH   4  21
ATOM     21  C   UNL d   1      30.786 -15.796  -5.836  0.00  0.00     0.126 C 
BRANCH  21  22
ATOM     22  C   UNL d   1      30.622 -17.134  -6.562  0.00  0.00     0.040 C 
BRANCH  22  23
ATOM     23  C   UNL d   1      30.403 -18.313  -5.604  0.00  0.00     0.130 C 
BRANCH  23  24
ATOM     24  N   UNL d   1      30.842 -19.596  -6.196  0.00  0.00    -0.352 N 
ATOM     25  C   UNL d   1      31.190 -19.811  -7.530  0.00  0.00     0.108 A 
ATOM     26  C   UNL d   1      31.528 -21.127  -7.651  0.00  0.00     0.106 A 
ATOM     27  N   UNL d   1      31.414 -21.669  -6.394  0.00  0.00    -0.361 N 
ATOM     28  C   UNL d   1      31.012 -20.745  -5.515  0.00  0.00     0.182 A 
ATOM     29  H   UNL d   1      31.613 -22.639  -6.156  0.00  0.00     0.166 HD
ENDBRANCH  23  24
ENDBRANCH  22  23
ENDBRANCH  21  22
ENDBRANCH   4  21
TORSDOF 8
ENDMDL
MODEL 4
REMARK VINA RESULT:    -6.570      1.971      3.072
REMARK INTER + INTRA:         -11.037
REMARK INTER:                  -8.957
REMARK INTRA:                  -2.081
REMARK CONF_INDEPENDENT:        2.386
REMARK UNBOUND:                -2.081
REMARK  8 active torsions:
REMARK  status: ('A' for Active; 'I' for Inactive)
REMARK    1  A    between atoms: C_2  and  C_3 
REMARK       I    between atoms: C_2  and  N_13 
REMARK    2  A    between atoms: C_3  and  O_4 
REMARK    3  A    between atoms: O_4  and  C_5 
REMARK    4  A    between atoms: N_13  and  N_14 
REMARK       I    between atoms: N_14  and  C_15 
REMARK       I    between atoms: C_15  and  N_17 
REMARK    5  A    between atoms: N_17  and  C_18 
REMARK    6  A    between atoms: C_18  and  C_19 
REMARK    7  A    between atoms: C_19  and  C_20 
REMARK    8  A    between atoms: C_20  and  N_21 
ROOT
ATOM      1  N   UNL d   1      27.472 -15.302  -4.388  0.00  0.00    -0.249 N 
ATOM      2  C   UNL d   1      28.456 -15.554  -5.338  0.00  0.00     0.334 C 
ATOM      3  O   UNL d   1      28.370 -15.206  -6.514  0.00  0.00    -0.246 OA
ATOM      4  N   UNL d   1      29.556 -16.235  -4.845  0.00  0.00    -0.342 N 
ATOM      5  H   UNL d   1      27.560 -15.604  -3.431  0.00  0.00     0.192 HD
ATOM      6  H   UNL d   1      29.571 -16.498  -3.871  0.00  0.00     0.164 HD
ENDROOT
BRANCH   1   7
ATOM      7  N   UNL d   1      26.302 -14.613  -4.790  0.00  0.00    -0.264 N 
ATOM      8  C   UNL d   1      25.188 -14.326  -4.021  0.00  0.00     0.260 C 
ATOM      9  O   UNL d   1      24.256 -13.701  -4.531  0.00  0.00    -0.269 OA
ATOM     10  H   UNL d   1      26.280 -14.284  -5.759  0.00  0.00     0.190 HD
BRANCH   8  11
ATOM     11  C   UNL d   1      25.161 -14.783  -2.555  0.00  0.00     0.280 C 
BRANCH  11  12
ATOM     12  O   UNL d   1      25.791 -16.057  -2.364  0.00  0.00    -0.340 OA
BRANCH  12  13
ATOM     13  C   UNL d   1      25.176 -16.880  -1.450  0.00  0.00     0.092 A 
ATOM     14  C   UNL d   1      23.854 -17.305  -1.623  0.00  0.00     0.062 A 
ATOM     15  C   UNL d   1      23.255 -18.139  -0.677  0.00  0.00     0.036 A 
ATOM     16 CL   UNL d   1      21.617 -18.621  -0.892  0.00  0.00    -0.084 Cl
ATOM     17  C   UNL d   1      23.962 -18.574   0.440  0.00  0.00     0.026 A 
ATOM     18  C   UNL d   1      25.298 -18.200   0.595  0.00  0.00     0.028 A 
ATOM     19  C   UNL d   1      25.910 -17.372  -0.357  0.00  0.00     0.067 A 
ATOM     20 CL   UNL d   1      27.572 -16.968  -0.128  0.00  0.00    -0.081 Cl
ENDBRANCH  12  13
ENDBRANCH  11  12
ENDBRANCH   8  11
ENDBRANCH   1   7
BRANCH   4  21
ATOM     21  C   UNL d   1      30.685 -16.578  -5.712  0.00  0.00     0.126 C 
BRANCH  21  22
ATOM     22  C   UNL d   1      31.765 -17.399  -5.004  0.00  0.00     0.040 C 
BRANCH  22  23
ATOM     23  C   UNL d   1      31.187 -18.458  -4.055  0.00  0.00     0.130 C 
BRANCH  23  24
ATOM     24  N   UNL d   1      31.082 -17.959  -2.666  0.00  0.00    -0.352 N 
ATOM     25  C   UNL d   1      31.235 -16.635  -2.254  0.00  0.00     0.108 A 
ATOM     26  C   UNL d   1      31.064 -16.613  -0.901  0.00  0.00     0.106 A 
ATOM     27  N   UNL d   1      30.780 -17.904  -0.529  0.00  0.00    -0.361 N 
ATOM     28  C   UNL d   1      30.779 -18.714  -1.594  0.00  0.00     0.182 A 
ATOM     29  H   UNL d   1      30.589 -18.209   0.424  0.00  0.00     0.166 HD
ENDBRANCH  23  24
ENDBRANCH  22  23
ENDBRANCH  21  22
ENDBRANCH   4  21
TORSDOF 8
ENDMDL
MODEL 5
REMARK VINA RESULT:    -6.330      4.605      8.319
REMARK INTER + INTRA:         -10.664
REMARK INTER:                  -8.717
REMARK INTRA:                  -1.947
REMARK CONF_INDEPENDENT:        2.386
REMARK UNBOUND:                -1.947
REMARK  8 active torsions:
REMARK  status: ('A' for Active; 'I' for Inactive)
REMARK    1  A    between atoms: C_2  and  C_3 
REMARK       I    between atoms: C_2  and  N_13 
REMARK    2  A    between atoms: C_3  and  O_4 
REMARK    3  A    between atoms: O_4  and  C_5 
REMARK    4  A    between atoms: N_13  and  N_14 
REMARK       I    between atoms: N_14  and  C_15 
REMARK       I    between atoms: C_15  and  N_17 
REMARK    5  A    between atoms: N_17  and  C_18 
REMARK    6  A    between atoms: C_18  and  C_19 
REMARK    7  A    between atoms: C_19  and  C_20 
REMARK    8  A    between atoms: C_20  and  N_21 
ROOT
ATOM      1  N   UNL d   1      25.945 -12.289  -4.878  0.00  0.00    -0.249 N 
ATOM      2  C   UNL d   1      26.315 -10.957  -4.721  0.00  0.00     0.334 C 
ATOM      3  O   UNL d   1      27.434 -10.526  -4.991  0.00  0.00    -0.246 OA
ATOM      4  N   UNL d   1      25.306 -10.145  -4.232  0.00  0.00    -0.342 N 
ATOM      5  H   UNL d   1      25.023 -12.621  -4.642  0.00  0.00     0.192 HD
ATOM      6  H   UNL d   1      24.407 -10.553  -4.026  0.00  0.00     0.164 HD
ENDROOT
BRANCH   1   7
ATOM      7  N   UNL d   1      26.906 -13.206  -5.369  0.00  0.00    -0.264 N 
ATOM      8  C   UNL d   1      26.809 -14.586  -5.407  0.00  0.00     0.260 C 
ATOM      9  O   UNL d   1      27.741 -15.235  -5.885  0.00  0.00    -0.269 OA
ATOM     10  H   UNL d   1      27.768 -12.802  -5.744  0.00  0.00     0.190 HD
BRANCH   8  11
ATOM     11  C   UNL d   1      25.536 -15.256  -4.869  0.00  0.00     0.280 C 
BRANCH  11  12
ATOM     12  O   UNL d   1      25.038 -14.618  -3.685  0.00  0.00    -0.340 OA
BRANCH  12  13
ATOM     13  C   UNL d   1      25.309 -15.278  -2.510  0.00  0.00     0.092 A 
ATOM     14  C   UNL d   1      24.614 -16.437  -2.146  0.00  0.00     0.062 A 
ATOM     15  C   UNL d   1      24.910 -17.085  -0.945  0.00  0.00     0.036 A 
ATOM     16 CL   UNL d   1      24.019 -18.490  -0.501  0.00  0.00    -0.084 Cl
ATOM     17  C   UNL d   1      25.906 -16.604  -0.100  0.00  0.00     0.026 A 
ATOM     18  C   UNL d   1      26.641 -15.479  -0.478  0.00  0.00     0.028 A 
ATOM     19  C   UNL d   1      26.358 -14.830  -1.689  0.00  0.00     0.067 A 
ATOM     20 CL   UNL d   1      27.320 -13.463  -2.116  0.00  0.00    -0.081 Cl
ENDBRANCH  12  13
ENDBRANCH  11  12
ENDBRANCH   8  11
ENDBRANCH   1   7
BRANCH   4  21
ATOM     21  C   UNL d   1      25.527  -8.714  -4.011  0.00  0.00     0.126 C 
BRANCH  21  22
ATOM     22  C   UNL d   1      25.434  -7.882  -5.294  0.00  0.00     0.040 C 
BRANCH  22  23
ATOM     23  C   UNL d   1      24.720  -6.540  -5.087  0.00  0.00     0.130 C 
BRANCH  23  24
ATOM     24  N   UNL d   1      23.386  -6.518  -5.729  0.00  0.00    -0.352 N 
ATOM     25  C   UNL d   1      23.134  -6.462  -7.099  0.00  0.00     0.108 A 
ATOM     26  C   UNL d   1      21.778  -6.457  -7.258  0.00  0.00     0.106 A 
ATOM     27  N   UNL d   1      21.244  -6.546  -5.997  0.00  0.00    -0.361 N 
ATOM     28  C   UNL d   1      22.212  -6.594  -5.075  0.00  0.00     0.182 A 
ATOM     29  H   UNL d   1      20.248  -6.577  -5.784  0.00  0.00     0.166 HD
ENDBRANCH  23  24
ENDBRANCH  22  23
ENDBRANCH  21  22
ENDBRANCH   4  21
TORSDOF 8
ENDMDL
MODEL 6
REMARK VINA RESULT:    -6.309      7.055      9.406
REMARK INTER + INTRA:         -10.496
REMARK INTER:                  -8.696
REMARK INTRA:                  -1.801
REMARK CONF_INDEPENDENT:        2.386
REMARK UNBOUND:                -1.801
REMARK  8 active torsions:
REMARK  status: ('A' for Active; 'I' for Inactive)
REMARK    1  A    between atoms: C_2  and  C_3 
REMARK       I    between atoms: C_2  and  N_13 
REMARK    2  A    between atoms: C_3  and  O_4 
REMARK    3  A    between atoms: O_4  and  C_5 
REMARK    4  A    between atoms: N_13  and  N_14 
REMARK       I    between atoms: N_14  and  C_15 
REMARK       I    between atoms: C_15  and  N_17 
REMARK    5  A    between atoms: N_17  and  C_18 
REMARK    6  A    between atoms: C_18  and  C_19 
REMARK    7  A    between atoms: C_19  and  C_20 
REMARK    8  A    between atoms: C_20  and  N_21 
ROOT
ATOM      1  N   UNL d   1      29.460 -14.817   1.592  0.00  0.00    -0.249 N 
ATOM      2  C   UNL d   1      28.981 -14.066   2.661  0.00  0.00     0.334 C 
ATOM      3  O   UNL d   1      28.987 -12.837   2.684  0.00  0.00    -0.246 OA
ATOM      4  N   UNL d   1      28.488 -14.825   3.709  0.00  0.00    -0.342 N 
ATOM      5  H   UNL d   1      29.452 -15.825   1.599  0.00  0.00     0.192 HD
ATOM      6  H   UNL d   1      28.510 -15.830   3.637  0.00  0.00     0.164 HD
ENDROOT
BRANCH   1   7
ATOM      7  N   UNL d   1      29.990 -14.138   0.470  0.00  0.00    -0.264 N 
ATOM      8  C   UNL d   1      30.038 -14.585  -0.840  0.00  0.00     0.260 C 
ATOM      9  O   UNL d   1      30.526 -13.853  -1.702  0.00  0.00    -0.269 OA
ATOM     10  H   UNL d   1      30.375 -13.206   0.643  0.00  0.00     0.190 HD
BRANCH   8  11
ATOM     11  C   UNL d   1      29.466 -15.972  -1.171  0.00  0.00     0.280 C 
BRANCH  11  12
ATOM     12  O   UNL d   1      28.458 -16.388  -0.238  0.00  0.00    -0.340 OA
BRANCH  12  13
ATOM     13  C   UNL d   1      27.168 -16.331  -0.710  0.00  0.00     0.092 A 
ATOM     14  C   UNL d   1      26.786 -15.397  -1.680  0.00  0.00     0.062 A 
ATOM     15  C   UNL d   1      25.467 -15.361  -2.138  0.00  0.00     0.036 A 
ATOM     16 CL   UNL d   1      25.010 -14.182  -3.307  0.00  0.00    -0.084 Cl
ATOM     17  C   UNL d   1      24.519 -16.258  -1.655  0.00  0.00     0.026 A 
ATOM     18  C   UNL d   1      24.902 -17.228  -0.727  0.00  0.00     0.028 A 
ATOM     19  C   UNL d   1      26.227 -17.278  -0.271  0.00  0.00     0.067 A 
ATOM     20 CL   UNL d   1      26.649 -18.518   0.853  0.00  0.00    -0.081 Cl
ENDBRANCH  12  13
ENDBRANCH  11  12
ENDBRANCH   8  11
ENDBRANCH   1   7
BRANCH   4  21
ATOM     21  C   UNL d   1      27.942 -14.190   4.911  0.00  0.00     0.126 C 
BRANCH  21  22
ATOM     22  C   UNL d   1      28.527 -14.751   6.210  0.00  0.00     0.040 C 
BRANCH  22  23
ATOM     23  C   UNL d   1      29.617 -13.855   6.813  0.00  0.00     0.130 C 
BRANCH  23  24
ATOM     24  N   UNL d   1      29.121 -13.089   7.978  0.00  0.00    -0.352 N 
ATOM     25  C   UNL d   1      28.721 -13.621   9.203  0.00  0.00     0.108 A 
ATOM     26  C   UNL d   1      28.334 -12.575   9.989  0.00  0.00     0.106 A 
ATOM     27  N   UNL d   1      28.538 -11.439   9.244  0.00  0.00    -0.361 N 
ATOM     28  C   UNL d   1      29.024 -11.747   8.036  0.00  0.00     0.182 A 
ATOM     29  H   UNL d   1      28.355 -10.490   9.563  0.00  0.00     0.166 HD
ENDBRANCH  23  24
ENDBRANCH  22  23
ENDBRANCH  21  22
ENDBRANCH   4  21
TORSDOF 8
ENDMDL
MODEL 7
REMARK VINA RESULT:    -6.115      2.024      4.127
REMARK INTER + INTRA:         -10.565
REMARK INTER:                  -8.502
REMARK INTRA:                  -2.063
REMARK CONF_INDEPENDENT:        2.386
REMARK UNBOUND:                -2.063
REMARK  8 active torsions:
REMARK  status: ('A' for Active; 'I' for Inactive)
REMARK    1  A    between atoms: C_2  and  C_3 
REMARK       I    between atoms: C_2  and  N_13 
REMARK    2  A    between atoms: C_3  and  O_4 
REMARK    3  A    between atoms: O_4  and  C_5 
REMARK    4  A    between atoms: N_13  and  N_14 
REMARK       I    between atoms: N_14  and  C_15 
REMARK       I    between atoms: C_15  and  N_17 
REMARK    5  A    between atoms: N_17  and  C_18 
REMARK    6  A    between atoms: C_18  and  C_19 
REMARK    7  A    between atoms: C_19  and  C_20 
REMARK    8  A    between atoms: C_20  and  N_21 
ROOT
ATOM      1  N   UNL d   1      27.475 -15.199  -4.389  0.00  0.00    -0.249 N 
ATOM      2  C   UNL d   1      28.407 -15.471  -5.385  0.00  0.00     0.334 C 
ATOM      3  O   UNL d   1      28.239 -15.183  -6.568  0.00  0.00    -0.246 OA
ATOM      4  N   UNL d   1      29.554 -16.097  -4.929  0.00  0.00    -0.342 N 
ATOM      5  H   UNL d   1      27.630 -15.451  -3.425  0.00  0.00     0.192 HD
ATOM      6  H   UNL d   1      29.636 -16.311  -3.947  0.00  0.00     0.164 HD
ENDROOT
BRANCH   1   7
ATOM      7  N   UNL d   1      26.263 -14.562  -4.749  0.00  0.00    -0.264 N 
ATOM      8  C   UNL d   1      25.179 -14.290  -3.932  0.00  0.00     0.260 C 
ATOM      9  O   UNL d   1      24.202 -13.712  -4.411  0.00  0.00    -0.269 OA
ATOM     10  H   UNL d   1      26.181 -14.262  -5.724  0.00  0.00     0.190 HD
BRANCH   8  11
ATOM     11  C   UNL d   1      25.242 -14.704  -2.455  0.00  0.00     0.280 C 
BRANCH  11  12
ATOM     12  O   UNL d   1      25.893 -15.968  -2.265  0.00  0.00    -0.340 OA
BRANCH  12  13
ATOM     13  C   UNL d   1      25.271 -16.817  -1.379  0.00  0.00     0.092 A 
ATOM     14  C   UNL d   1      23.947 -17.228  -1.569  0.00  0.00     0.062 A 
ATOM     15  C   UNL d   1      23.341 -18.088  -0.651  0.00  0.00     0.036 A 
ATOM     16 CL   UNL d   1      21.701 -18.555  -0.886  0.00  0.00    -0.084 Cl
ATOM     17  C   UNL d   1      24.042 -18.563   0.453  0.00  0.00     0.026 A 
ATOM     18  C   UNL d   1      25.380 -18.201   0.624  0.00  0.00     0.028 A 
ATOM     19  C   UNL d   1      25.999 -17.347  -0.301  0.00  0.00     0.067 A 
ATOM     20 CL   UNL d   1      27.662 -16.959  -0.054  0.00  0.00    -0.081 Cl
ENDBRANCH  12  13
ENDBRANCH  11  12
ENDBRANCH   8  11
ENDBRANCH   1   7
BRANCH   4  21
ATOM     21  C   UNL d   1      30.638 -16.452  -5.848  0.00  0.00     0.126 C 
BRANCH  21  22
ATOM     22  C   UNL d   1      31.873 -15.558  -5.701  0.00  0.00     0.040 C 
BRANCH  22  23
ATOM     23  C   UNL d   1      31.522 -14.102  -5.365  0.00  0.00     0.130 C 
BRANCH  23  24
ATOM     24  N   UNL d   1      30.735 -13.461  -6.442  0.00  0.00    -0.352 N 
ATOM     25  C   UNL d   1      29.789 -12.450  -6.278  0.00  0.00     0.108 A 
ATOM     26  C   UNL d   1      29.300 -12.152  -7.517  0.00  0.00     0.106 A 
ATOM     27  N   UNL d   1      29.979 -12.955  -8.400  0.00  0.00    -0.361 N 
ATOM     28  C   UNL d   1      30.852 -13.736  -7.754  0.00  0.00     0.182 A 
ATOM     29  H   UNL d   1      29.846 -12.957  -9.410  0.00  0.00     0.166 HD
ENDBRANCH  23  24
ENDBRANCH  22  23
ENDBRANCH  21  22
ENDBRANCH   4  21
TORSDOF 8
ENDMDL
MODEL 8
REMARK VINA RESULT:    -6.092      5.001      7.416
REMARK INTER + INTRA:         -10.670
REMARK INTER:                  -8.478
REMARK INTRA:                  -2.192
REMARK CONF_INDEPENDENT:        2.386
REMARK UNBOUND:                -2.192
REMARK  8 active torsions:
REMARK  status: ('A' for Active; 'I' for Inactive)
REMARK    1  A    between atoms: C_2  and  C_3 
REMARK       I    between atoms: C_2  and  N_13 
REMARK    2  A    between atoms: C_3  and  O_4 
REMARK    3  A    between atoms: O_4  and  C_5 
REMARK    4  A    between atoms: N_13  and  N_14 
REMARK       I    between atoms: N_14  and  C_15 
REMARK       I    between atoms: C_15  and  N_17 
REMARK    5  A    between atoms: N_17  and  C_18 
REMARK    6  A    between atoms: C_18  and  C_19 
REMARK    7  A    between atoms: C_19  and  C_20 
REMARK    8  A    between atoms: C_20  and  N_21 
ROOT
ATOM      1  N   UNL d   1      27.017 -13.926  -1.244  0.00  0.00    -0.249 N 
ATOM      2  C   UNL d   1      27.101 -13.523   0.085  0.00  0.00     0.334 C 
ATOM      3  O   UNL d   1      26.202 -12.922   0.669  0.00  0.00    -0.246 OA
ATOM      4  N   UNL d   1      28.292 -13.861   0.704  0.00  0.00    -0.342 N 
ATOM      5  H   UNL d   1      27.771 -14.411  -1.706  0.00  0.00     0.192 HD
ATOM      6  H   UNL d   1      28.995 -14.353   0.174  0.00  0.00     0.164 HD
ENDROOT
BRANCH   1   7
ATOM      7  N   UNL d   1      25.841 -13.626  -1.971  0.00  0.00    -0.264 N 
ATOM      8  C   UNL d   1      25.315 -14.321  -3.047  0.00  0.00     0.260 C 
ATOM      9  O   UNL d   1      24.265 -13.925  -3.557  0.00  0.00    -0.269 OA
ATOM     10  H   UNL d   1      25.314 -12.804  -1.664  0.00  0.00     0.190 HD
BRANCH   8  11
ATOM     11  C   UNL d   1      26.050 -15.571  -3.552  0.00  0.00     0.280 C 
BRANCH  11  12
ATOM     12  O   UNL d   1      26.873 -16.171  -2.543  0.00  0.00    -0.340 OA
BRANCH  12  13
ATOM     13  C   UNL d   1      26.190 -16.833  -1.551  0.00  0.00     0.092 A 
ATOM     14  C   UNL d   1      24.825 -17.120  -1.671  0.00  0.00     0.062 A 
ATOM     15  C   UNL d   1      24.156 -17.792  -0.645  0.00  0.00     0.036 A 
ATOM     16 CL   UNL d   1      22.470 -18.105  -0.800  0.00  0.00    -0.084 Cl
ATOM     17  C   UNL d   1      24.832 -18.201   0.500  0.00  0.00     0.026 A 
ATOM     18  C   UNL d   1      26.204 -17.966   0.607  0.00  0.00     0.028 A 
ATOM     19  C   UNL d   1      26.885 -17.303  -0.424  0.00  0.00     0.067 A 
ATOM     20 CL   UNL d   1      28.586 -17.069  -0.248  0.00  0.00    -0.081 Cl
ENDBRANCH  12  13
ENDBRANCH  11  12
ENDBRANCH   8  11
ENDBRANCH   1   7
BRANCH   4  21
ATOM     21  C   UNL d   1      28.541 -13.514   2.105  0.00  0.00     0.126 C 
BRANCH  21  22
ATOM     22  C   UNL d   1      28.157 -14.628   3.082  0.00  0.00     0.040 C 
BRANCH  22  23
ATOM     23  C   UNL d   1      29.013 -14.631   4.355  0.00  0.00     0.130 C 
BRANCH  23  24
ATOM     24  N   UNL d   1      28.533 -13.641   5.346  0.00  0.00    -0.352 N 
ATOM     25  C   UNL d   1      28.811 -13.644   6.712  0.00  0.00     0.108 A 
ATOM     26  C   UNL d   1      28.175 -12.566   7.255  0.00  0.00     0.106 A 
ATOM     27  N   UNL d   1      27.560 -11.919   6.211  0.00  0.00    -0.361 N 
ATOM     28  C   UNL d   1      27.785 -12.560   5.059  0.00  0.00     0.182 A 
ATOM     29  H   UNL d   1      27.012 -11.064   6.294  0.00  0.00     0.166 HD
ENDBRANCH  23  24
ENDBRANCH  22  23
ENDBRANCH  21  22
ENDBRANCH   4  21
TORSDOF 8
ENDMDL
MODEL 9
REMARK VINA RESULT:    -6.088      4.565      6.614
REMARK INTER + INTRA:         -10.453
REMARK INTER:                  -8.474
REMARK INTRA:                  -1.979
REMARK CONF_INDEPENDENT:        2.386
REMARK UNBOUND:                -1.979
REMARK  8 active torsions:
REMARK  status: ('A' for Active; 'I' for Inactive)
REMARK    1  A    between atoms: C_2  and  C_3 
REMARK       I    between atoms: C_2  and  N_13 
REMARK    2  A    between atoms: C_3  and  O_4 
REMARK    3  A    between atoms: O_4  and  C_5 
REMARK    4  A    between atoms: N_13  and  N_14 
REMARK       I    between atoms: N_14  and  C_15 
REMARK       I    between atoms: C_15  and  N_17 
REMARK    5  A    between atoms: N_17  and  C_18 
REMARK    6  A    between atoms: C_18  and  C_19 
REMARK    7  A    between atoms: C_19  and  C_20 
REMARK    8  A    between atoms: C_20  and  N_21 
ROOT
ATOM      1  N   UNL d   1      26.962 -13.551  -2.117  0.00  0.00    -0.249 N 
ATOM      2  C   UNL d   1      27.872 -12.882  -1.304  0.00  0.00     0.334 C 
ATOM      3  O   UNL d   1      29.039 -12.667  -1.625  0.00  0.00    -0.246 OA
ATOM      4  N   UNL d   1      27.349 -12.472  -0.090  0.00  0.00    -0.342 N 
ATOM      5  H   UNL d   1      26.012 -13.724  -1.829  0.00  0.00     0.192 HD
ATOM      6  H   UNL d   1      26.385 -12.678   0.121  0.00  0.00     0.164 HD
ENDROOT
BRANCH   1   7
ATOM      7  N   UNL d   1      27.397 -14.017  -3.381  0.00  0.00    -0.264 N 
ATOM      8  C   UNL d   1      26.817 -15.003  -4.160  0.00  0.00     0.260 C 
ATOM      9  O   UNL d   1      27.323 -15.277  -5.249  0.00  0.00    -0.269 OA
ATOM     10  H   UNL d   1      28.233 -13.570  -3.766  0.00  0.00     0.190 HD
BRANCH   8  11
ATOM     11  C   UNL d   1      25.553 -15.707  -3.644  0.00  0.00     0.280 C 
BRANCH  11  12
ATOM     12  O   UNL d   1      25.235 -15.347  -2.293  0.00  0.00    -0.340 OA
BRANCH  12  13
ATOM     13  C   UNL d   1      24.920 -16.400  -1.467  0.00  0.00     0.092 A 
ATOM     14  C   UNL d   1      23.656 -16.999  -1.498  0.00  0.00     0.062 A 
ATOM     15  C   UNL d   1      23.364 -18.066  -0.645  0.00  0.00     0.036 A 
ATOM     16 CL   UNL d   1      21.792 -18.766  -0.676  0.00  0.00    -0.084 Cl
ATOM     17  C   UNL d   1      24.324 -18.562   0.233  0.00  0.00     0.026 A 
ATOM     18  C   UNL d   1      25.604 -18.006   0.233  0.00  0.00     0.028 A 
ATOM     19  C   UNL d   1      25.908 -16.942  -0.628  0.00  0.00     0.067 A 
ATOM     20 CL   UNL d   1      27.517 -16.317  -0.603  0.00  0.00    -0.081 Cl
ENDBRANCH  12  13
ENDBRANCH  11  12
ENDBRANCH   8  11
ENDBRANCH   1   7
BRANCH   4  21
ATOM     21  C   UNL d   1      28.172 -11.750   0.883  0.00  0.00     0.126 C 
BRANCH  21  22
ATOM     22  C   UNL d   1      27.803 -12.061   2.336  0.00  0.00     0.040 C 
BRANCH  22  23
ATOM     23  C   UNL d   1      27.710 -13.566   2.623  0.00  0.00     0.130 C 
BRANCH  23  24
ATOM     24  N   UNL d   1      28.459 -13.944   3.842  0.00  0.00    -0.352 N 
ATOM     25  C   UNL d   1      27.929 -14.073   5.126  0.00  0.00     0.108 A 
ATOM     26  C   UNL d   1      28.955 -14.431   5.951  0.00  0.00     0.106 A 
ATOM     27  N   UNL d   1      30.067 -14.545   5.152  0.00  0.00    -0.361 N 
ATOM     28  C   UNL d   1      29.766 -14.263   3.880  0.00  0.00     0.182 A 
ATOM     29  H   UNL d   1      30.994 -14.812   5.476  0.00  0.00     0.166 HD
ENDBRANCH  23  24
ENDBRANCH  22  23
ENDBRANCH  21  22
ENDBRANCH   4  21
TORSDOF 8
ENDMDL
