MODEL 1
REMARK VINA RESULT:    -8.642      0.000      0.000
REMARK INTER + INTRA:         -11.611
REMARK INTER:                 -10.133
REMARK INTRA:                  -1.478
REMARK CONF_INDEPENDENT:        1.492
REMARK UNBOUND:                -1.478
REMARK  5 active torsions:
REMARK  status: ('A' for Active; 'I' for Inactive)
REMARK    1  A    between atoms: C_5  and  N_4 
REMARK    2  A    between atoms: C_17  and  N_19 
REMARK    3  A    between atoms: N_19  and  C_20 
REMARK    4  A    between atoms: C_20  and  C_21 
REMARK    5  A    between atoms: C_21  and  C_22 
ROOT
ATOM      1  C   UNL d   1      27.719 -10.697   4.869  0.00  0.00     0.073 C 
ATOM      2  C   UNL d   1      28.261 -12.011   5.331  0.00  0.00     0.069 C 
ATOM      3  N   UNL d   1      28.856 -12.163   6.482  0.00  0.00    -0.171 NA
ATOM      4  N   UNL d   1      29.109 -13.538   6.622  0.00  0.00    -0.200 N 
ATOM      5  C   UNL d   1      28.561 -14.305   5.603  0.00  0.00     0.280 C 
ATOM      6  O   UNL d   1      28.452 -15.523   5.505  0.00  0.00    -0.265 OA
ATOM      7  C   UNL d   1      28.166 -13.285   4.590  0.00  0.00     0.081 C 
ATOM      8  C   UNL d   1      27.970 -13.527   3.276  0.00  0.00     0.019 C 
ATOM      9  C   UNL d   1      27.802 -12.412   2.250  0.00  0.00     0.069 C 
ENDROOT
BRANCH   8  10
ATOM     10  N   UNL d   1      27.966 -14.813   2.725  0.00  0.00    -0.392 N 
ATOM     11  H   UNL d   1      28.159 -15.586   3.369  0.00  0.00     0.159 HD
BRANCH  10  12
ATOM     12  C   UNL d   1      27.991 -15.061   1.306  0.00  0.00     0.124 C 
BRANCH  12  13
ATOM     13  C   UNL d   1      27.405 -16.394   0.881  0.00  0.00     0.057 C 
BRANCH  13  14
ATOM     14  C   UNL d   1      26.583 -16.271  -0.377  0.00  0.00    -0.044 A 
ATOM     15  C   UNL d   1      26.415 -15.213  -1.188  0.00  0.00    -0.005 A 
ATOM     16  C   UNL d   1      26.911 -13.875  -1.220  0.00  0.00     0.014 A 
ATOM     17  C   UNL d   1      25.503 -15.687  -2.253  0.00  0.00     0.039 A 
ATOM     18  C   UNL d   1      26.539 -13.048  -2.202  0.00  0.00     0.001 A 
ATOM     19  C   UNL d   1      25.666 -13.491  -3.266  0.00  0.00     0.002 A 
ATOM     20  C   UNL d   1      25.154 -14.736  -3.333  0.00  0.00     0.030 A 
ATOM     21  N   UNL d   1      25.147 -16.904  -2.078  0.00  0.00    -0.381 N 
ATOM     22  C   UNL d   1      25.773 -17.455  -0.848  0.00  0.00     0.108 A 
ATOM     23  H   UNL d   1      24.544 -17.410  -2.724  0.00  0.00     0.160 HD
ATOM     24  C   UNL d   1      24.706 -17.859   0.160  0.00  0.00     0.037 C 
ENDBRANCH  13  14
ENDBRANCH  12  13
ENDBRANCH  10  12
ENDBRANCH   8  10
BRANCH   4  25
ATOM     25  C   UNL d   1      29.917 -14.075   7.714  0.00  0.00     0.280 C 
ATOM     26  N   UNL d   1      29.023 -14.688   8.678  0.00  0.00    -0.357 N 
ATOM     27  C   UNL d   1      28.899 -13.949   9.849  0.00  0.00     0.047 A 
ATOM     28  H   UNL d   1      28.740 -15.648   8.600  0.00  0.00     0.162 HD
ATOM     29  C   UNL d   1      27.896 -14.146  10.786  0.00  0.00     0.030 A 
ATOM     30  C   UNL d   1      29.752 -12.846   9.979  0.00  0.00     0.030 A 
ATOM     31  C   UNL d   1      27.780 -13.268  11.869  0.00  0.00     0.002 A 
ATOM     32  C   UNL d   1      28.674 -12.200  12.018  0.00  0.00     0.002 A 
ATOM     33  C   UNL d   1      29.673 -11.984  11.066  0.00  0.00     0.021 A 
ATOM     34  S   UNL d   1      30.836 -12.734   8.582  0.00  0.00    -0.079 SA
ENDBRANCH   4  25
TORSDOF 5
ENDMDL
MODEL 2
REMARK VINA RESULT:    -8.308      2.646      9.851
REMARK INTER + INTRA:         -11.284
REMARK INTER:                  -9.799
REMARK INTRA:                  -1.485
REMARK CONF_INDEPENDENT:        1.492
REMARK UNBOUND:                -1.485
REMARK  5 active torsions:
REMARK  status: ('A' for Active; 'I' for Inactive)
REMARK    1  A    between atoms: C_5  and  N_4 
REMARK    2  A    between atoms: C_17  and  N_19 
REMARK    3  A    between atoms: N_19  and  C_20 
REMARK    4  A    between atoms: C_20  and  C_21 
REMARK    5  A    between atoms: C_21  and  C_22 
ROOT
ATOM      1  C   UNL d   1      27.061 -10.917   0.982  0.00  0.00     0.073 C 
ATOM      2  C   UNL d   1      27.332 -12.373   0.782  0.00  0.00     0.069 C 
ATOM      3  N   UNL d   1      27.069 -12.992  -0.335  0.00  0.00    -0.171 NA
ATOM      4  N   UNL d   1      27.570 -14.297  -0.196  0.00  0.00    -0.200 N 
ATOM      5  C   UNL d   1      28.278 -14.492   0.982  0.00  0.00     0.280 C 
ATOM      6  O   UNL d   1      28.972 -15.439   1.337  0.00  0.00    -0.265 OA
ATOM      7  C   UNL d   1      27.951 -13.273   1.776  0.00  0.00     0.081 C 
ATOM      8  C   UNL d   1      28.051 -13.167   3.119  0.00  0.00     0.019 C 
ATOM      9  C   UNL d   1      27.481 -11.985   3.896  0.00  0.00     0.069 C 
ENDROOT
BRANCH   8  10
ATOM     10  N   UNL d   1      28.625 -14.154   3.925  0.00  0.00    -0.392 N 
ATOM     11  H   UNL d   1      28.909 -15.020   3.455  0.00  0.00     0.159 HD
BRANCH  10  12
ATOM     12  C   UNL d   1      28.571 -14.125   5.365  0.00  0.00     0.124 C 
BRANCH  12  13
ATOM     13  C   UNL d   1      29.755 -13.455   6.035  0.00  0.00     0.057 C 
BRANCH  13  14
ATOM     14  C   UNL d   1      29.370 -12.804   7.339  0.00  0.00    -0.044 A 
ATOM     15  C   UNL d   1      29.025 -13.371   8.507  0.00  0.00    -0.005 A 
ATOM     16  C   UNL d   1      28.904 -14.712   8.983  0.00  0.00     0.014 A 
ATOM     17  C   UNL d   1      28.753 -12.238   9.419  0.00  0.00     0.039 A 
ATOM     18  C   UNL d   1      28.530 -14.940  10.246  0.00  0.00     0.001 A 
ATOM     19  C   UNL d   1      28.279 -13.851  11.164  0.00  0.00     0.002 A 
ATOM     20  C   UNL d   1      28.378 -12.553  10.816  0.00  0.00     0.030 A 
ATOM     21  N   UNL d   1      28.903 -11.106   8.840  0.00  0.00    -0.381 N 
ATOM     22  C   UNL d   1      29.307 -11.299   7.423  0.00  0.00     0.108 A 
ATOM     23  H   UNL d   1      28.787 -10.213   9.316  0.00  0.00     0.160 HD
ATOM     24  C   UNL d   1      28.260 -10.714   6.485  0.00  0.00     0.037 C 
ENDBRANCH  13  14
ENDBRANCH  12  13
ENDBRANCH  10  12
ENDBRANCH   8  10
BRANCH   4  25
ATOM     25  C   UNL d   1      27.312 -15.341  -1.184  0.00  0.00     0.280 C 
ATOM     26  N   UNL d   1      25.919 -15.258  -1.579  0.00  0.00    -0.357 N 
ATOM     27  C   UNL d   1      25.149 -16.297  -1.072  0.00  0.00     0.047 A 
ATOM     28  H   UNL d   1      25.618 -14.664  -2.331  0.00  0.00     0.162 HD
ATOM     29  C   UNL d   1      23.762 -16.289  -1.042  0.00  0.00     0.030 A 
ATOM     30  C   UNL d   1      25.843 -17.320  -0.413  0.00  0.00     0.030 A 
ATOM     31  C   UNL d   1      23.079 -17.326  -0.395  0.00  0.00     0.002 A 
ATOM     32  C   UNL d   1      23.784 -18.373   0.211  0.00  0.00     0.002 A 
ATOM     33  C   UNL d   1      25.181 -18.374   0.203  0.00  0.00     0.021 A 
ATOM     34  S   UNL d   1      27.588 -17.017  -0.469  0.00  0.00    -0.079 SA
ENDBRANCH   4  25
TORSDOF 5
ENDMDL
MODEL 3
REMARK VINA RESULT:    -8.247      7.333     12.303
REMARK INTER + INTRA:         -11.386
REMARK INTER:                  -9.738
REMARK INTRA:                  -1.648
REMARK CONF_INDEPENDENT:        1.492
REMARK UNBOUND:                -1.648
REMARK  5 active torsions:
REMARK  status: ('A' for Active; 'I' for Inactive)
REMARK    1  A    between atoms: C_5  and  N_4 
REMARK    2  A    between atoms: C_17  and  N_19 
REMARK    3  A    between atoms: N_19  and  C_20 
REMARK    4  A    between atoms: C_20  and  C_21 
REMARK    5  A    between atoms: C_21  and  C_22 
ROOT
ATOM      1  C   UNL d   1      28.924 -13.867  -7.301  0.00  0.00     0.073 C 
ATOM      2  C   UNL d   1      29.332 -14.987  -6.399  0.00  0.00     0.069 C 
ATOM      3  N   UNL d   1      30.286 -15.823  -6.700  0.00  0.00    -0.171 NA
ATOM      4  N   UNL d   1      30.468 -16.644  -5.574  0.00  0.00    -0.200 N 
ATOM      5  C   UNL d   1      29.707 -16.255  -4.481  0.00  0.00     0.280 C 
ATOM      6  O   UNL d   1      29.745 -16.639  -3.317  0.00  0.00    -0.265 OA
ATOM      7  C   UNL d   1      28.755 -15.268  -5.068  0.00  0.00     0.081 C 
ATOM      8  C   UNL d   1      27.570 -14.912  -4.529  0.00  0.00     0.019 C 
ATOM      9  C   UNL d   1      26.536 -14.084  -5.286  0.00  0.00     0.069 C 
ENDROOT
BRANCH   8  10
ATOM     10  N   UNL d   1      27.152 -15.320  -3.258  0.00  0.00    -0.392 N 
ATOM     11  H   UNL d   1      27.615 -16.147  -2.869  0.00  0.00     0.159 HD
BRANCH  10  12
ATOM     12  C   UNL d   1      25.955 -14.825  -2.627  0.00  0.00     0.124 C 
BRANCH  12  13
ATOM     13  C   UNL d   1      25.892 -15.033  -1.126  0.00  0.00     0.057 C 
BRANCH  13  14
ATOM     14  C   UNL d   1      25.520 -16.450  -0.769  0.00  0.00    -0.044 A 
ATOM     15  C   UNL d   1      24.306 -17.018  -0.684  0.00  0.00    -0.005 A 
ATOM     16  C   UNL d   1      22.965 -16.576  -0.895  0.00  0.00     0.014 A 
ATOM     17  C   UNL d   1      24.566 -18.422  -0.295  0.00  0.00     0.039 A 
ATOM     18  C   UNL d   1      21.947 -17.425  -0.724  0.00  0.00     0.001 A 
ATOM     19  C   UNL d   1      22.174 -18.807  -0.363  0.00  0.00     0.002 A 
ATOM     20  C   UNL d   1      23.401 -19.325  -0.155  0.00  0.00     0.030 A 
ATOM     21  N   UNL d   1      25.815 -18.657  -0.142  0.00  0.00    -0.381 N 
ATOM     22  C   UNL d   1      26.610 -17.431  -0.411  0.00  0.00     0.108 A 
ATOM     23  H   UNL d   1      26.188 -19.574   0.097  0.00  0.00     0.160 HD
ATOM     24  C   UNL d   1      27.377 -17.008   0.834  0.00  0.00     0.037 C 
ENDBRANCH  13  14
ENDBRANCH  12  13
ENDBRANCH  10  12
ENDBRANCH   8  10
BRANCH   4  25
ATOM     25  C   UNL d   1      31.342 -17.814  -5.595  0.00  0.00     0.280 C 
ATOM     26  N   UNL d   1      32.354 -17.605  -6.612  0.00  0.00    -0.357 N 
ATOM     27  C   UNL d   1      32.163 -18.396  -7.739  0.00  0.00     0.047 A 
ATOM     28  H   UNL d   1      33.219 -17.136  -6.409  0.00  0.00     0.162 HD
ATOM     29  C   UNL d   1      32.793 -18.177  -8.955  0.00  0.00     0.030 A 
ATOM     30  C   UNL d   1      31.148 -19.358  -7.656  0.00  0.00     0.030 A 
ATOM     31  C   UNL d   1      32.438 -18.950 -10.067  0.00  0.00     0.002 A 
ATOM     32  C   UNL d   1      31.461 -19.948  -9.956  0.00  0.00     0.002 A 
ATOM     33  C   UNL d   1      30.807 -20.158  -8.740  0.00  0.00     0.021 A 
ATOM     34  S   UNL d   1      30.405 -19.335  -6.047  0.00  0.00    -0.079 SA
ENDBRANCH   4  25
TORSDOF 5
ENDMDL
MODEL 4
REMARK VINA RESULT:    -8.136      2.872      9.391
REMARK INTER + INTRA:         -11.341
REMARK INTER:                  -9.627
REMARK INTRA:                  -1.714
REMARK CONF_INDEPENDENT:        1.492
REMARK UNBOUND:                -1.714
REMARK  5 active torsions:
REMARK  status: ('A' for Active; 'I' for Inactive)
REMARK    1  A    between atoms: C_5  and  N_4 
REMARK    2  A    between atoms: C_17  and  N_19 
REMARK    3  A    between atoms: N_19  and  C_20 
REMARK    4  A    between atoms: C_20  and  C_21 
REMARK    5  A    between atoms: C_21  and  C_22 
ROOT
ATOM      1  C   UNL d   1      27.233 -11.162   0.737  0.00  0.00     0.073 C 
ATOM      2  C   UNL d   1      27.227 -12.643   0.532  0.00  0.00     0.069 C 
ATOM      3  N   UNL d   1      26.866 -13.197  -0.591  0.00  0.00    -0.171 NA
ATOM      4  N   UNL d   1      27.110 -14.574  -0.453  0.00  0.00    -0.200 N 
ATOM      5  C   UNL d   1      27.753 -14.903   0.733  0.00  0.00     0.280 C 
ATOM      6  O   UNL d   1      28.252 -15.964   1.091  0.00  0.00    -0.265 OA
ATOM      7  C   UNL d   1      27.651 -13.646   1.529  0.00  0.00     0.081 C 
ATOM      8  C   UNL d   1      27.752 -13.565   2.874  0.00  0.00     0.019 C 
ATOM      9  C   UNL d   1      27.404 -12.299   3.650  0.00  0.00     0.069 C 
ENDROOT
BRANCH   8  10
ATOM     10  N   UNL d   1      28.118 -14.646   3.682  0.00  0.00    -0.392 N 
ATOM     11  H   UNL d   1      28.351 -15.519   3.198  0.00  0.00     0.159 HD
BRANCH  10  12
ATOM     12  C   UNL d   1      27.911 -14.668   5.107  0.00  0.00     0.124 C 
BRANCH  12  13
ATOM     13  C   UNL d   1      29.158 -14.430   5.938  0.00  0.00     0.057 C 
BRANCH  13  14
ATOM     14  C   UNL d   1      29.049 -13.176   6.768  0.00  0.00    -0.044 A 
ATOM     15  C   UNL d   1      29.380 -11.913   6.455  0.00  0.00    -0.005 A 
ATOM     16  C   UNL d   1      29.912 -11.264   5.300  0.00  0.00     0.014 A 
ATOM     17  C   UNL d   1      29.052 -11.119   7.660  0.00  0.00     0.039 A 
ATOM     18  C   UNL d   1      30.128  -9.945   5.315  0.00  0.00     0.001 A 
ATOM     19  C   UNL d   1      29.798  -9.143   6.472  0.00  0.00     0.002 A 
ATOM     20  C   UNL d   1      29.280  -9.657   7.605  0.00  0.00     0.030 A 
ATOM     21  N   UNL d   1      28.590 -11.848   8.606  0.00  0.00    -0.381 N 
ATOM     22  C   UNL d   1      28.530 -13.271   8.182  0.00  0.00     0.108 A 
ATOM     23  H   UNL d   1      28.283 -11.474   9.502  0.00  0.00     0.160 HD
ATOM     24  C   UNL d   1      29.423 -14.129   9.066  0.00  0.00     0.037 C 
ENDBRANCH  13  14
ENDBRANCH  12  13
ENDBRANCH  10  12
ENDBRANCH   8  10
BRANCH   4  25
ATOM     25  C   UNL d   1      26.674 -15.548  -1.450  0.00  0.00     0.280 C 
ATOM     26  N   UNL d   1      25.248 -15.377  -1.656  0.00  0.00    -0.357 N 
ATOM     27  C   UNL d   1      24.494 -16.407  -1.105  0.00  0.00     0.047 A 
ATOM     28  H   UNL d   1      24.885 -14.729  -2.332  0.00  0.00     0.162 HD
ATOM     29  C   UNL d   1      23.125 -16.337  -0.895  0.00  0.00     0.030 A 
ATOM     30  C   UNL d   1      25.211 -17.496  -0.595  0.00  0.00     0.030 A 
ATOM     31  C   UNL d   1      22.476 -17.375  -0.217  0.00  0.00     0.002 A 
ATOM     32  C   UNL d   1      23.196 -18.486   0.239  0.00  0.00     0.002 A 
ATOM     33  C   UNL d   1      24.578 -18.552   0.050  0.00  0.00     0.021 A 
ATOM     34  S   UNL d   1      26.949 -17.272  -0.862  0.00  0.00    -0.079 SA
ENDBRANCH   4  25
TORSDOF 5
ENDMDL
MODEL 5
REMARK VINA RESULT:    -7.849      7.153      9.226
REMARK INTER + INTRA:         -12.152
REMARK INTER:                  -9.340
REMARK INTRA:                  -2.812
REMARK CONF_INDEPENDENT:        1.492
REMARK UNBOUND:                -2.812
REMARK  5 active torsions:
REMARK  status: ('A' for Active; 'I' for Inactive)
REMARK    1  A    between atoms: C_5  and  N_4 
REMARK    2  A    between atoms: C_17  and  N_19 
REMARK    3  A    between atoms: N_19  and  C_20 
REMARK    4  A    between atoms: C_20  and  C_21 
REMARK    5  A    between atoms: C_21  and  C_22 
ROOT
ATOM      1  C   UNL d   1      30.768 -18.496  -4.095  0.00  0.00     0.073 C 
ATOM      2  C   UNL d   1      30.137 -17.314  -3.432  0.00  0.00     0.069 C 
ATOM      3  N   UNL d   1      29.693 -17.347  -2.207  0.00  0.00    -0.171 NA
ATOM      4  N   UNL d   1      29.294 -16.038  -1.891  0.00  0.00    -0.200 N 
ATOM      5  C   UNL d   1      29.598 -15.116  -2.883  0.00  0.00     0.280 C 
ATOM      6  O   UNL d   1      29.541 -13.891  -2.865  0.00  0.00    -0.265 OA
ATOM      7  C   UNL d   1      29.971 -15.978  -4.040  0.00  0.00     0.081 C 
ATOM      8  C   UNL d   1      29.953 -15.596  -5.335  0.00  0.00     0.019 C 
ATOM      9  C   UNL d   1      30.114 -16.583  -6.487  0.00  0.00     0.069 C 
ENDROOT
BRANCH   8  10
ATOM     10  N   UNL d   1      29.722 -14.279  -5.743  0.00  0.00    -0.392 N 
ATOM     11  H   UNL d   1      29.736 -13.565  -5.008  0.00  0.00     0.159 HD
BRANCH  10  12
ATOM     12  C   UNL d   1      29.202 -13.937  -7.042  0.00  0.00     0.124 C 
BRANCH  12  13
ATOM     13  C   UNL d   1      28.518 -12.585  -7.121  0.00  0.00     0.057 C 
BRANCH  13  14
ATOM     14  C   UNL d   1      27.404 -12.459  -6.113  0.00  0.00    -0.044 A 
ATOM     15  C   UNL d   1      26.790 -13.414  -5.395  0.00  0.00    -0.005 A 
ATOM     16  C   UNL d   1      26.926 -14.829  -5.269  0.00  0.00     0.014 A 
ATOM     17  C   UNL d   1      25.783 -12.695  -4.583  0.00  0.00     0.039 A 
ATOM     18  C   UNL d   1      26.133 -15.505  -4.431  0.00  0.00     0.001 A 
ATOM     19  C   UNL d   1      25.155 -14.825  -3.611  0.00  0.00     0.002 A 
ATOM     20  C   UNL d   1      24.958 -13.492  -3.646  0.00  0.00     0.030 A 
ATOM     21  N   UNL d   1      25.786 -11.436  -4.814  0.00  0.00    -0.381 N 
ATOM     22  C   UNL d   1      26.812 -11.099  -5.834  0.00  0.00     0.108 A 
ATOM     23  H   UNL d   1      25.181 -10.776  -4.329  0.00  0.00     0.160 HD
ATOM     24  C   UNL d   1      26.160 -10.492  -7.068  0.00  0.00     0.037 C 
ENDBRANCH  13  14
ENDBRANCH  12  13
ENDBRANCH  10  12
ENDBRANCH   8  10
BRANCH   4  25
ATOM     25  C   UNL d   1      28.585 -15.715  -0.655  0.00  0.00     0.280 C 
ATOM     26  N   UNL d   1      28.174 -16.958  -0.031  0.00  0.00    -0.357 N 
ATOM     27  C   UNL d   1      26.806 -17.185  -0.124  0.00  0.00     0.047 A 
ATOM     28  H   UNL d   1      28.774 -17.453   0.605  0.00  0.00     0.162 HD
ATOM     29  C   UNL d   1      26.208 -18.415   0.113  0.00  0.00     0.030 A 
ATOM     30  C   UNL d   1      26.038 -16.138  -0.646  0.00  0.00     0.030 A 
ATOM     31  C   UNL d   1      24.839 -18.575  -0.130  0.00  0.00     0.002 A 
ATOM     32  C   UNL d   1      24.070 -17.503  -0.599  0.00  0.00     0.002 A 
ATOM     33  C   UNL d   1      24.671 -16.269  -0.860  0.00  0.00     0.021 A 
ATOM     34  S   UNL d   1      27.062 -14.736  -0.999  0.00  0.00    -0.079 SA
ENDBRANCH   4  25
TORSDOF 5
ENDMDL
MODEL 6
REMARK VINA RESULT:    -7.723      7.528     10.421
REMARK INTER + INTRA:         -11.040
REMARK INTER:                  -9.214
REMARK INTRA:                  -1.826
REMARK CONF_INDEPENDENT:        1.492
REMARK UNBOUND:                -1.826
REMARK  5 active torsions:
REMARK  status: ('A' for Active; 'I' for Inactive)
REMARK    1  A    between atoms: C_5  and  N_4 
REMARK    2  A    between atoms: C_17  and  N_19 
REMARK    3  A    between atoms: N_19  and  C_20 
REMARK    4  A    between atoms: C_20  and  C_21 
REMARK    5  A    between atoms: C_21  and  C_22 
ROOT
ATOM      1  C   UNL d   1      29.635 -12.297  -7.949  0.00  0.00     0.073 C 
ATOM      2  C   UNL d   1      28.721 -12.924  -6.946  0.00  0.00     0.069 C 
ATOM      3  N   UNL d   1      27.724 -12.283  -6.402  0.00  0.00    -0.171 NA
ATOM      4  N   UNL d   1      27.026 -13.219  -5.621  0.00  0.00    -0.200 N 
ATOM      5  C   UNL d   1      27.504 -14.515  -5.757  0.00  0.00     0.280 C 
ATOM      6  O   UNL d   1      27.034 -15.575  -5.358  0.00  0.00    -0.265 OA
ATOM      7  C   UNL d   1      28.796 -14.323  -6.477  0.00  0.00     0.081 C 
ATOM      8  C   UNL d   1      29.821 -15.202  -6.488  0.00  0.00     0.019 C 
ATOM      9  C   UNL d   1      31.199 -14.853  -7.039  0.00  0.00     0.069 C 
ENDROOT
BRANCH   8  10
ATOM     10  N   UNL d   1      29.735 -16.486  -5.941  0.00  0.00    -0.392 N 
ATOM     11  H   UNL d   1      29.281 -17.200  -6.520  0.00  0.00     0.159 HD
BRANCH  10  12
ATOM     12  C   UNL d   1      29.984 -16.767  -4.551  0.00  0.00     0.124 C 
BRANCH  12  13
ATOM     13  C   UNL d   1      29.456 -15.726  -3.584  0.00  0.00     0.057 C 
BRANCH  13  14
ATOM     14  C   UNL d   1      28.850 -16.355  -2.355  0.00  0.00    -0.044 A 
ATOM     15  C   UNL d   1      27.565 -16.405  -1.966  0.00  0.00    -0.005 A 
ATOM     16  C   UNL d   1      26.327 -15.945  -2.507  0.00  0.00     0.014 A 
ATOM     17  C   UNL d   1      27.580 -17.147  -0.685  0.00  0.00     0.039 A 
ATOM     18  C   UNL d   1      25.185 -16.170  -1.848  0.00  0.00     0.001 A 
ATOM     19  C   UNL d   1      25.169 -16.910  -0.605  0.00  0.00     0.002 A 
ATOM     20  C   UNL d   1      26.281 -17.397  -0.020  0.00  0.00     0.030 A 
ATOM     21  N   UNL d   1      28.764 -17.486  -0.338  0.00  0.00    -0.381 N 
ATOM     22  C   UNL d   1      29.753 -17.021  -1.345  0.00  0.00     0.108 A 
ATOM     23  H   UNL d   1      28.969 -18.027   0.500  0.00  0.00     0.160 HD
ATOM     24  C   UNL d   1      30.734 -16.041  -0.717  0.00  0.00     0.037 C 
ENDBRANCH  13  14
ENDBRANCH  12  13
ENDBRANCH  10  12
ENDBRANCH   8  10
BRANCH   4  25
ATOM     25  C   UNL d   1      25.940 -12.832  -4.725  0.00  0.00     0.280 C 
ATOM     26  N   UNL d   1      25.530 -11.483  -5.067  0.00  0.00    -0.357 N 
ATOM     27  C   UNL d   1      25.925 -10.541  -4.124  0.00  0.00     0.047 A 
ATOM     28  H   UNL d   1      24.831 -11.304  -5.766  0.00  0.00     0.162 HD
ATOM     29  C   UNL d   1      25.931  -9.173  -4.353  0.00  0.00     0.030 A 
ATOM     30  C   UNL d   1      26.497 -11.042  -2.949  0.00  0.00     0.030 A 
ATOM     31  C   UNL d   1      26.466  -8.313  -3.386  0.00  0.00     0.002 A 
ATOM     32  C   UNL d   1      26.984  -8.823  -2.190  0.00  0.00     0.002 A 
ATOM     33  C   UNL d   1      27.001 -10.201  -1.963  0.00  0.00     0.021 A 
ATOM     34  S   UNL d   1      26.501 -12.814  -2.970  0.00  0.00    -0.079 SA
ENDBRANCH   4  25
TORSDOF 5
ENDMDL
MODEL 7
REMARK VINA RESULT:    -7.707      6.974      9.312
REMARK INTER + INTRA:         -11.783
REMARK INTER:                  -9.198
REMARK INTRA:                  -2.584
REMARK CONF_INDEPENDENT:        1.492
REMARK UNBOUND:                -2.584
REMARK  5 active torsions:
REMARK  status: ('A' for Active; 'I' for Inactive)
REMARK    1  A    between atoms: C_5  and  N_4 
REMARK    2  A    between atoms: C_17  and  N_19 
REMARK    3  A    between atoms: N_19  and  C_20 
REMARK    4  A    between atoms: C_20  and  C_21 
REMARK    5  A    between atoms: C_21  and  C_22 
ROOT
ATOM      1  C   UNL d   1      27.208 -11.614  -0.244  0.00  0.00     0.073 C 
ATOM      2  C   UNL d   1      26.824 -12.677  -1.222  0.00  0.00     0.069 C 
ATOM      3  N   UNL d   1      26.994 -13.948  -0.986  0.00  0.00    -0.171 NA
ATOM      4  N   UNL d   1      26.406 -14.636  -2.060  0.00  0.00    -0.200 N 
ATOM      5  C   UNL d   1      25.735 -13.804  -2.946  0.00  0.00     0.280 C 
ATOM      6  O   UNL d   1      24.989 -14.083  -3.878  0.00  0.00    -0.265 OA
ATOM      7  C   UNL d   1      26.183 -12.443  -2.533  0.00  0.00     0.081 C 
ATOM      8  C   UNL d   1      26.148 -11.341  -3.311  0.00  0.00     0.019 C 
ATOM      9  C   UNL d   1      26.834 -10.036  -2.923  0.00  0.00     0.069 C 
ENDROOT
BRANCH   8  10
ATOM     10  N   UNL d   1      25.537 -11.310  -4.569  0.00  0.00    -0.392 N 
ATOM     11  H   UNL d   1      24.827 -12.026  -4.750  0.00  0.00     0.159 HD
BRANCH  10  12
ATOM     12  C   UNL d   1      26.046 -10.535  -5.672  0.00  0.00     0.124 C 
BRANCH  12  13
ATOM     13  C   UNL d   1      27.550 -10.596  -5.855  0.00  0.00     0.057 C 
BRANCH  13  14
ATOM     14  C   UNL d   1      27.997 -11.928  -6.401  0.00  0.00    -0.044 A 
ATOM     15  C   UNL d   1      28.403 -13.028  -5.745  0.00  0.00    -0.005 A 
ATOM     16  C   UNL d   1      28.555 -13.387  -4.371  0.00  0.00     0.014 A 
ATOM     17  C   UNL d   1      28.714 -14.015  -6.803  0.00  0.00     0.039 A 
ATOM     18  C   UNL d   1      28.993 -14.607  -4.045  0.00  0.00     0.001 A 
ATOM     19  C   UNL d   1      29.284 -15.596  -5.058  0.00  0.00     0.002 A 
ATOM     20  C   UNL d   1      29.160 -15.361  -6.379  0.00  0.00     0.030 A 
ATOM     21  N   UNL d   1      28.529 -13.538  -7.976  0.00  0.00    -0.381 N 
ATOM     22  C   UNL d   1      28.056 -12.131  -7.896  0.00  0.00     0.108 A 
ATOM     23  H   UNL d   1      28.664 -14.079  -8.829  0.00  0.00     0.160 HD
ATOM     24  C   UNL d   1      29.051 -11.194  -8.564  0.00  0.00     0.037 C 
ENDBRANCH  13  14
ENDBRANCH  12  13
ENDBRANCH  10  12
ENDBRANCH   8  10
BRANCH   4  25
ATOM     25  C   UNL d   1      26.544 -16.080  -2.231  0.00  0.00     0.280 C 
ATOM     26  N   UNL d   1      25.258 -16.614  -2.635  0.00  0.00    -0.357 N 
ATOM     27  C   UNL d   1      24.629 -17.335  -1.626  0.00  0.00     0.047 A 
ATOM     28  H   UNL d   1      24.986 -16.666  -3.600  0.00  0.00     0.162 HD
ATOM     29  C   UNL d   1      23.286 -17.683  -1.645  0.00  0.00     0.030 A 
ATOM     30  C   UNL d   1      25.381 -17.565  -0.467  0.00  0.00     0.030 A 
ATOM     31  C   UNL d   1      22.717 -18.299  -0.524  0.00  0.00     0.002 A 
ATOM     32  C   UNL d   1      23.493 -18.574   0.608  0.00  0.00     0.002 A 
ATOM     33  C   UNL d   1      24.840 -18.206   0.641  0.00  0.00     0.021 A 
ATOM     34  S   UNL d   1      27.012 -16.895  -0.646  0.00  0.00    -0.079 SA
ENDBRANCH   4  25
TORSDOF 5
ENDMDL
MODEL 8
REMARK VINA RESULT:    -7.028      5.140      7.952
REMARK INTER + INTRA:         -11.401
REMARK INTER:                  -8.520
REMARK INTRA:                  -2.882
REMARK CONF_INDEPENDENT:        1.492
REMARK UNBOUND:                -2.882
REMARK  5 active torsions:
REMARK  status: ('A' for Active; 'I' for Inactive)
REMARK    1  A    between atoms: C_5  and  N_4 
REMARK    2  A    between atoms: C_17  and  N_19 
REMARK    3  A    between atoms: N_19  and  C_20 
REMARK    4  A    between atoms: C_20  and  C_21 
REMARK    5  A    between atoms: C_21  and  C_22 
ROOT
ATOM      1  C   UNL d   1      29.591 -14.084   2.763  0.00  0.00     0.073 C 
ATOM      2  C   UNL d   1      28.759 -14.280   1.537  0.00  0.00     0.069 C 
ATOM      3  N   UNL d   1      28.501 -15.458   1.041  0.00  0.00    -0.171 NA
ATOM      4  N   UNL d   1      27.598 -15.256  -0.017  0.00  0.00    -0.200 N 
ATOM      5  C   UNL d   1      27.169 -13.942  -0.131  0.00  0.00     0.280 C 
ATOM      6  O   UNL d   1      26.278 -13.461  -0.823  0.00  0.00    -0.265 OA
ATOM      7  C   UNL d   1      28.104 -13.204   0.766  0.00  0.00     0.081 C 
ATOM      8  C   UNL d   1      28.371 -11.882   0.697  0.00  0.00     0.019 C 
ATOM      9  C   UNL d   1      29.506 -11.230   1.479  0.00  0.00     0.069 C 
ENDROOT
BRANCH   8  10
ATOM     10  N   UNL d   1      27.679 -11.003  -0.142  0.00  0.00    -0.392 N 
ATOM     11  H   UNL d   1      26.662 -11.118  -0.185  0.00  0.00     0.159 HD
BRANCH  10  12
ATOM     12  C   UNL d   1      28.332 -10.174  -1.124  0.00  0.00     0.124 C 
BRANCH  12  13
ATOM     13  C   UNL d   1      28.719 -10.886  -2.405  0.00  0.00     0.057 C 
BRANCH  13  14
ATOM     14  C   UNL d   1      27.541 -11.577  -3.044  0.00  0.00    -0.044 A 
ATOM     15  C   UNL d   1      27.451 -12.815  -3.556  0.00  0.00    -0.005 A 
ATOM     16  C   UNL d   1      28.344 -13.921  -3.689  0.00  0.00     0.014 A 
ATOM     17  C   UNL d   1      26.057 -12.931  -4.039  0.00  0.00     0.039 A 
ATOM     18  C   UNL d   1      27.924 -15.053  -4.264  0.00  0.00     0.001 A 
ATOM     19  C   UNL d   1      26.561 -15.200  -4.725  0.00  0.00     0.002 A 
ATOM     20  C   UNL d   1      25.639 -14.221  -4.634  0.00  0.00     0.030 A 
ATOM     21  N   UNL d   1      25.389 -11.855  -3.849  0.00  0.00    -0.381 N 
ATOM     22  C   UNL d   1      26.240 -10.826  -3.197  0.00  0.00     0.108 A 
ATOM     23  H   UNL d   1      24.405 -11.756  -4.092  0.00  0.00     0.160 HD
ATOM     24  C   UNL d   1      26.384  -9.605  -4.094  0.00  0.00     0.037 C 
ENDBRANCH  13  14
ENDBRANCH  12  13
ENDBRANCH  10  12
ENDBRANCH   8  10
BRANCH   4  25
ATOM     25  C   UNL d   1      27.207 -16.332  -0.924  0.00  0.00     0.280 C 
ATOM     26  N   UNL d   1      25.951 -15.964  -1.549  0.00  0.00    -0.357 N 
ATOM     27  C   UNL d   1      24.872 -16.699  -1.073  0.00  0.00     0.047 A 
ATOM     28  H   UNL d   1      25.920 -15.425  -2.396  0.00  0.00     0.162 HD
ATOM     29  C   UNL d   1      23.546 -16.345  -1.272  0.00  0.00     0.030 A 
ATOM     30  C   UNL d   1      25.177 -17.759  -0.209  0.00  0.00     0.030 A 
ATOM     31  C   UNL d   1      22.533 -17.080  -0.645  0.00  0.00     0.002 A 
ATOM     32  C   UNL d   1      22.849 -18.173   0.172  0.00  0.00     0.002 A 
ATOM     33  C   UNL d   1      24.183 -18.521   0.394  0.00  0.00     0.021 A 
ATOM     34  S   UNL d   1      26.931 -17.907  -0.008  0.00  0.00    -0.079 SA
ENDBRANCH   4  25
TORSDOF 5
ENDMDL
MODEL 9
REMARK VINA RESULT:    -6.906      2.887      4.696
REMARK INTER + INTRA:         -11.032
REMARK INTER:                  -8.398
REMARK INTRA:                  -2.635
REMARK CONF_INDEPENDENT:        1.492
REMARK UNBOUND:                -2.635
REMARK  5 active torsions:
REMARK  status: ('A' for Active; 'I' for Inactive)
REMARK    1  A    between atoms: C_5  and  N_4 
REMARK    2  A    between atoms: C_17  and  N_19 
REMARK    3  A    between atoms: N_19  and  C_20 
REMARK    4  A    between atoms: C_20  and  C_21 
REMARK    5  A    between atoms: C_21  and  C_22 
ROOT
ATOM      1  C   UNL d   1      27.648 -10.214   0.520  0.00  0.00     0.073 C 
ATOM      2  C   UNL d   1      27.563 -11.670   0.849  0.00  0.00     0.069 C 
ATOM      3  N   UNL d   1      27.933 -12.155   2.001  0.00  0.00    -0.171 NA
ATOM      4  N   UNL d   1      27.592 -13.518   1.988  0.00  0.00    -0.200 N 
ATOM      5  C   UNL d   1      26.878 -13.896   0.860  0.00  0.00     0.280 C 
ATOM      6  O   UNL d   1      26.293 -14.945   0.611  0.00  0.00    -0.265 OA
ATOM      7  C   UNL d   1      27.029 -12.719  -0.044  0.00  0.00     0.081 C 
ATOM      8  C   UNL d   1      26.876 -12.741  -1.385  0.00  0.00     0.019 C 
ATOM      9  C   UNL d   1      27.274 -11.570  -2.278  0.00  0.00     0.069 C 
ENDROOT
BRANCH   8  10
ATOM     10  N   UNL d   1      26.403 -13.855  -2.085  0.00  0.00    -0.392 N 
ATOM     11  H   UNL d   1      25.854 -14.533  -1.547  0.00  0.00     0.159 HD
BRANCH  10  12
ATOM     12  C   UNL d   1      26.876 -14.221  -3.395  0.00  0.00     0.124 C 
BRANCH  12  13
ATOM     13  C   UNL d   1      27.686 -15.501  -3.448  0.00  0.00     0.057 C 
BRANCH  13  14
ATOM     14  C   UNL d   1      27.624 -16.260  -2.147  0.00  0.00    -0.044 A 
ATOM     15  C   UNL d   1      26.566 -16.815  -1.532  0.00  0.00    -0.005 A 
ATOM     16  C   UNL d   1      25.174 -16.934  -1.825  0.00  0.00     0.014 A 
ATOM     17  C   UNL d   1      27.113 -17.419  -0.296  0.00  0.00     0.039 A 
ATOM     18  C   UNL d   1      24.365 -17.576  -0.975  0.00  0.00     0.001 A 
ATOM     19  C   UNL d   1      24.877 -18.192   0.228  0.00  0.00     0.002 A 
ATOM     20  C   UNL d   1      26.176 -18.147   0.588  0.00  0.00     0.030 A 
ATOM     21  N   UNL d   1      28.373 -17.222  -0.180  0.00  0.00    -0.381 N 
ATOM     22  C   UNL d   1      28.885 -16.443  -1.338  0.00  0.00     0.108 A 
ATOM     23  H   UNL d   1      28.929 -17.587   0.591  0.00  0.00     0.160 HD
ATOM     24  C   UNL d   1      29.466 -15.115  -0.873  0.00  0.00     0.037 C 
ENDBRANCH  13  14
ENDBRANCH  12  13
ENDBRANCH  10  12
ENDBRANCH   8  10
BRANCH   4  25
ATOM     25  C   UNL d   1      28.004 -14.435   3.047  0.00  0.00     0.280 C 
ATOM     26  N   UNL d   1      27.293 -14.077   4.259  0.00  0.00    -0.357 N 
ATOM     27  C   UNL d   1      28.108 -13.469   5.207  0.00  0.00     0.047 A 
ATOM     28  H   UNL d   1      26.388 -14.457   4.473  0.00  0.00     0.162 HD
ATOM     29  C   UNL d   1      27.629 -12.766   6.303  0.00  0.00     0.030 A 
ATOM     30  C   UNL d   1      29.478 -13.442   4.921  0.00  0.00     0.030 A 
ATOM     31  C   UNL d   1      28.526 -12.081   7.130  0.00  0.00     0.002 A 
ATOM     32  C   UNL d   1      29.901 -12.109   6.865  0.00  0.00     0.002 A 
ATOM     33  C   UNL d   1      30.387 -12.796   5.750  0.00  0.00     0.021 A 
ATOM     34  S   UNL d   1      29.807 -14.282   3.395  0.00  0.00    -0.079 SA
ENDBRANCH   4  25
TORSDOF 5
ENDMDL
