MODEL 1
REMARK VINA RESULT:    -8.365      0.000      0.000
REMARK INTER + INTRA:         -11.000
REMARK INTER:                 -10.155
REMARK INTRA:                  -0.845
REMARK CONF_INDEPENDENT:        1.790
REMARK UNBOUND:                -0.845
REMARK  6 active torsions:
REMARK  status: ('A' for Active; 'I' for Inactive)
REMARK    1  A    between atoms: C_3  and  C_19 
REMARK    2  A    between atoms: C_4  and  C_5 
REMARK    3  A    between atoms: C_8  and  C_9 
REMARK    4  A    between atoms: C_13  and  N_14 
REMARK       I    between atoms: C_19  and  N_21 
REMARK    5  A    between atoms: N_21  and  C_22 
REMARK    6  A    between atoms: C_24  and  C_25 
ROOT
ATOM      1  N   UNL d   1      26.109 -14.598   0.541  0.00  0.00    -0.096 N 
ATOM      2  C   UNL d   1      26.094 -15.021  -0.646  0.00  0.00     0.025 C 
ATOM      3  C   UNL d   1      26.077 -15.530  -2.078  0.00  0.00     0.101 C 
ATOM      4  C   UNL d   1      25.380 -16.667  -2.333  0.00  0.00     0.064 C 
ENDROOT
BRANCH   3   5
ATOM      5  C   UNL d   1      26.801 -14.725  -3.113  0.00  0.00     0.265 C 
ATOM      6  O   UNL d   1      27.281 -13.640  -2.770  0.00  0.00    -0.267 OA
ATOM      7  N   UNL d   1      26.821 -15.175  -4.429  0.00  0.00    -0.321 N 
ATOM      8  H   UNL d   1      26.168 -15.879  -4.747  0.00  0.00     0.169 HD
BRANCH   7   9
ATOM      9  C   UNL d   1      27.623 -14.564  -5.441  0.00  0.00     0.057 A 
ATOM     10  C   UNL d   1      28.781 -15.234  -5.889  0.00  0.00     0.047 A 
ATOM     11  C   UNL d   1      29.665 -14.622  -6.810  0.00  0.00     0.050 A 
ATOM     12  C   UNL d   1      29.328 -13.377  -7.352  0.00  0.00     0.018 A 
ATOM     13  C   UNL d   1      28.198 -12.701  -6.906  0.00  0.00     0.027 A 
ATOM     14  C   UNL d   1      27.364 -13.270  -5.940  0.00  0.00     0.060 A 
ATOM     15 CL   UNL d   1      26.169 -12.203  -5.275  0.00  0.00    -0.082 Cl
BRANCH  11  16
ATOM     16  C   UNL d   1      31.014 -15.223  -7.143  0.00  0.00     0.417 C 
ATOM     17  F   UNL d   1      31.525 -14.699  -8.292  0.00  0.00    -0.166 F 
ATOM     18  F   UNL d   1      31.953 -15.021  -6.183  0.00  0.00    -0.166 F 
ATOM     19  F   UNL d   1      30.968 -16.571  -7.348  0.00  0.00    -0.166 F 
ENDBRANCH  11  16
ENDBRANCH   7   9
ENDBRANCH   3   5
BRANCH   4  20
ATOM     20  C   UNL d   1      24.585 -17.316  -1.322  0.00  0.00     0.077 A 
ATOM     21  C   UNL d   1      24.936 -17.600  -0.003  0.00  0.00     0.040 A 
ATOM     22  C   UNL d   1      23.880 -18.297   0.605  0.00  0.00     0.041 A 
ATOM     23  C   UNL d   1      22.882 -18.372  -0.331  0.00  0.00     0.086 A 
ATOM     24  O   UNL d   1      23.281 -17.769  -1.497  0.00  0.00    -0.310 OA
BRANCH  23  25
ATOM     25  C   UNL d   1      21.536 -18.917  -0.241  0.00  0.00     0.000 A 
ATOM     26  C   UNL d   1      20.763 -19.166  -1.380  0.00  0.00     0.014 A 
ATOM     27  C   UNL d   1      19.473 -19.698  -1.263  0.00  0.00     0.003 A 
ATOM     28  C   UNL d   1      18.964 -20.051  -0.011  0.00  0.00     0.036 A 
ATOM     29  C   UNL d   1      19.747 -19.834   1.128  0.00  0.00     0.103 A 
ATOM     30  C   UNL d   1      21.029 -19.281   1.017  0.00  0.00     0.050 A 
BRANCH  29  31
ATOM     31  N   UNL d   1      19.201 -20.148   2.456  0.00  0.00    -0.116 N 
ATOM     32  O   UNL d   1      19.997 -20.450   3.352  0.00  0.00    -0.532 OA
ATOM     33  O   UNL d   1      17.967 -20.102   2.595  0.00  0.00    -0.532 OA
ENDBRANCH  29  31
ENDBRANCH  23  25
ENDBRANCH   4  20
TORSDOF 6
ENDMDL
MODEL 2
REMARK VINA RESULT:    -8.189      3.265      3.800
REMARK INTER + INTRA:         -10.594
REMARK INTER:                  -9.979
REMARK INTRA:                  -0.615
REMARK CONF_INDEPENDENT:        1.790
REMARK UNBOUND:                -0.615
REMARK  6 active torsions:
REMARK  status: ('A' for Active; 'I' for Inactive)
REMARK    1  A    between atoms: C_3  and  C_19 
REMARK    2  A    between atoms: C_4  and  C_5 
REMARK    3  A    between atoms: C_8  and  C_9 
REMARK    4  A    between atoms: C_13  and  N_14 
REMARK       I    between atoms: C_19  and  N_21 
REMARK    5  A    between atoms: N_21  and  C_22 
REMARK    6  A    between atoms: C_24  and  C_25 
ROOT
ATOM      1  N   UNL d   1      27.162 -16.150   0.523  0.00  0.00    -0.096 N 
ATOM      2  C   UNL d   1      26.591 -15.754  -0.529  0.00  0.00     0.025 C 
ATOM      3  C   UNL d   1      25.904 -15.276  -1.798  0.00  0.00     0.101 C 
ATOM      4  C   UNL d   1      24.808 -15.959  -2.215  0.00  0.00     0.064 C 
ENDROOT
BRANCH   3   5
ATOM      5  C   UNL d   1      26.464 -14.065  -2.480  0.00  0.00     0.265 C 
ATOM      6  O   UNL d   1      27.422 -13.494  -1.949  0.00  0.00    -0.267 OA
ATOM      7  N   UNL d   1      25.831 -13.576  -3.618  0.00  0.00    -0.321 N 
ATOM      8  H   UNL d   1      24.887 -13.856  -3.847  0.00  0.00     0.169 HD
BRANCH   7   9
ATOM      9  C   UNL d   1      26.388 -12.535  -4.423  0.00  0.00     0.057 A 
ATOM     10  C   UNL d   1      25.841 -11.238  -4.332  0.00  0.00     0.047 A 
ATOM     11  C   UNL d   1      26.286 -10.201  -5.186  0.00  0.00     0.050 A 
ATOM     12  C   UNL d   1      27.350 -10.448  -6.062  0.00  0.00     0.018 A 
ATOM     13  C   UNL d   1      27.884 -11.726  -6.170  0.00  0.00     0.027 A 
ATOM     14  C   UNL d   1      27.395 -12.772  -5.382  0.00  0.00     0.060 A 
ATOM     15 CL   UNL d   1      27.951 -14.353  -5.826  0.00  0.00    -0.082 Cl
BRANCH  11  16
ATOM     16  C   UNL d   1      25.576  -8.865  -5.259  0.00  0.00     0.417 C 
ATOM     17  F   UNL d   1      24.814  -8.644  -4.151  0.00  0.00    -0.166 F 
ATOM     18  F   UNL d   1      26.418  -7.805  -5.358  0.00  0.00    -0.166 F 
ATOM     19  F   UNL d   1      24.719  -8.767  -6.315  0.00  0.00    -0.166 F 
ENDBRANCH  11  16
ENDBRANCH   7   9
ENDBRANCH   3   5
BRANCH   4  20
ATOM     20  C   UNL d   1      24.234 -17.027  -1.437  0.00  0.00     0.077 A 
ATOM     21  C   UNL d   1      24.888 -17.927  -0.598  0.00  0.00     0.040 A 
ATOM     22  C   UNL d   1      23.947 -18.837  -0.090  0.00  0.00     0.041 A 
ATOM     23  C   UNL d   1      22.729 -18.440  -0.578  0.00  0.00     0.086 A 
ATOM     24  O   UNL d   1      22.879 -17.337  -1.379  0.00  0.00    -0.310 OA
BRANCH  23  25
ATOM     25  C   UNL d   1      21.394 -18.962  -0.334  0.00  0.00     0.000 A 
ATOM     26  C   UNL d   1      20.488 -19.190  -1.375  0.00  0.00     0.014 A 
ATOM     27  C   UNL d   1      19.211 -19.699  -1.110  0.00  0.00     0.003 A 
ATOM     28  C   UNL d   1      18.846 -20.051   0.191  0.00  0.00     0.036 A 
ATOM     29  C   UNL d   1      19.760 -19.855   1.232  0.00  0.00     0.103 A 
ATOM     30  C   UNL d   1      21.031 -19.324   0.974  0.00  0.00     0.050 A 
BRANCH  29  31
ATOM     31  N   UNL d   1      19.368 -20.166   2.613  0.00  0.00    -0.116 N 
ATOM     32  O   UNL d   1      20.265 -20.317   3.450  0.00  0.00    -0.532 OA
ATOM     33  O   UNL d   1      18.153 -20.273   2.855  0.00  0.00    -0.532 OA
ENDBRANCH  29  31
ENDBRANCH  23  25
ENDBRANCH   4  20
TORSDOF 6
ENDMDL
MODEL 3
REMARK VINA RESULT:    -7.977      2.148      2.596
REMARK INTER + INTRA:         -10.669
REMARK INTER:                  -9.767
REMARK INTRA:                  -0.902
REMARK CONF_INDEPENDENT:        1.790
REMARK UNBOUND:                -0.902
REMARK  6 active torsions:
REMARK  status: ('A' for Active; 'I' for Inactive)
REMARK    1  A    between atoms: C_3  and  C_19 
REMARK    2  A    between atoms: C_4  and  C_5 
REMARK    3  A    between atoms: C_8  and  C_9 
REMARK    4  A    between atoms: C_13  and  N_14 
REMARK       I    between atoms: C_19  and  N_21 
REMARK    5  A    between atoms: N_21  and  C_22 
REMARK    6  A    between atoms: C_24  and  C_25 
ROOT
ATOM      1  N   UNL d   1      26.216 -14.406   0.504  0.00  0.00    -0.096 N 
ATOM      2  C   UNL d   1      26.184 -14.788  -0.697  0.00  0.00     0.025 C 
ATOM      3  C   UNL d   1      26.146 -15.249  -2.145  0.00  0.00     0.101 C 
ATOM      4  C   UNL d   1      25.476 -16.395  -2.424  0.00  0.00     0.064 C 
ENDROOT
BRANCH   3   5
ATOM      5  C   UNL d   1      26.823 -14.388  -3.167  0.00  0.00     0.265 C 
ATOM      6  O   UNL d   1      27.044 -13.209  -2.875  0.00  0.00    -0.267 OA
ATOM      7  N   UNL d   1      27.084 -14.913  -4.429  0.00  0.00    -0.321 N 
ATOM      8  H   UNL d   1      26.619 -15.753  -4.748  0.00  0.00     0.169 HD
BRANCH   7   9
ATOM      9  C   UNL d   1      27.871 -14.225  -5.403  0.00  0.00     0.057 A 
ATOM     10  C   UNL d   1      27.374 -13.025  -5.955  0.00  0.00     0.047 A 
ATOM     11  C   UNL d   1      28.064 -12.365  -6.999  0.00  0.00     0.050 A 
ATOM     12  C   UNL d   1      29.303 -12.862  -7.418  0.00  0.00     0.018 A 
ATOM     13  C   UNL d   1      29.793 -14.052  -6.892  0.00  0.00     0.027 A 
ATOM     14  C   UNL d   1      29.077 -14.748  -5.914  0.00  0.00     0.060 A 
ATOM     15 CL   UNL d   1      29.659 -16.343  -5.567  0.00  0.00    -0.082 Cl
BRANCH  11  16
ATOM     16  C   UNL d   1      27.453 -11.201  -7.751  0.00  0.00     0.417 C 
ATOM     17  F   UNL d   1      28.120 -10.039  -7.502  0.00  0.00    -0.166 F 
ATOM     18  F   UNL d   1      27.456 -11.360  -9.099  0.00  0.00    -0.166 F 
ATOM     19  F   UNL d   1      26.157 -10.956  -7.402  0.00  0.00    -0.166 F 
ENDBRANCH  11  16
ENDBRANCH   7   9
ENDBRANCH   3   5
BRANCH   4  20
ATOM     20  C   UNL d   1      24.724 -17.102  -1.418  0.00  0.00     0.077 A 
ATOM     21  C   UNL d   1      25.136 -17.472  -0.139  0.00  0.00     0.040 A 
ATOM     22  C   UNL d   1      24.103 -18.198   0.475  0.00  0.00     0.041 A 
ATOM     23  C   UNL d   1      23.059 -18.205  -0.413  0.00  0.00     0.086 A 
ATOM     24  O   UNL d   1      23.408 -17.531  -1.556  0.00  0.00    -0.310 OA
BRANCH  23  25
ATOM     25  C   UNL d   1      21.714 -18.744  -0.292  0.00  0.00     0.000 A 
ATOM     26  C   UNL d   1      20.905 -18.971  -1.411  0.00  0.00     0.014 A 
ATOM     27  C   UNL d   1      19.616 -19.498  -1.264  0.00  0.00     0.003 A 
ATOM     28  C   UNL d   1      19.143 -19.867  -0.003  0.00  0.00     0.036 A 
ATOM     29  C   UNL d   1      19.960 -19.672   1.116  0.00  0.00     0.103 A 
ATOM     30  C   UNL d   1      21.241 -19.124   0.976  0.00  0.00     0.050 A 
BRANCH  29  31
ATOM     31  N   UNL d   1      19.452 -20.001   2.454  0.00  0.00    -0.116 N 
ATOM     32  O   UNL d   1      20.276 -20.200   3.354  0.00  0.00    -0.532 OA
ATOM     33  O   UNL d   1      18.219 -20.074   2.599  0.00  0.00    -0.532 OA
ENDBRANCH  29  31
ENDBRANCH  23  25
ENDBRANCH   4  20
TORSDOF 6
ENDMDL
MODEL 4
REMARK VINA RESULT:    -7.889      5.644      6.976
REMARK INTER + INTRA:         -10.751
REMARK INTER:                  -9.679
REMARK INTRA:                  -1.073
REMARK CONF_INDEPENDENT:        1.790
REMARK UNBOUND:                -1.073
REMARK  6 active torsions:
REMARK  status: ('A' for Active; 'I' for Inactive)
REMARK    1  A    between atoms: C_3  and  C_19 
REMARK    2  A    between atoms: C_4  and  C_5 
REMARK    3  A    between atoms: C_8  and  C_9 
REMARK    4  A    between atoms: C_13  and  N_14 
REMARK       I    between atoms: C_19  and  N_21 
REMARK    5  A    between atoms: N_21  and  C_22 
REMARK    6  A    between atoms: C_24  and  C_25 
ROOT
ATOM      1  N   UNL d   1      27.199 -11.266  -2.072  0.00  0.00    -0.096 N 
ATOM      2  C   UNL d   1      26.666 -11.618  -3.159  0.00  0.00     0.025 C 
ATOM      3  C   UNL d   1      26.023 -12.043  -4.469  0.00  0.00     0.101 C 
ATOM      4  C   UNL d   1      25.831 -13.370  -4.675  0.00  0.00     0.064 C 
ENDROOT
BRANCH   3   5
ATOM      5  C   UNL d   1      25.616 -10.965  -5.426  0.00  0.00     0.265 C 
ATOM      6  O   UNL d   1      25.115 -11.306  -6.503  0.00  0.00    -0.267 OA
ATOM      7  N   UNL d   1      25.903  -9.640  -5.115  0.00  0.00    -0.321 N 
ATOM      8  H   UNL d   1      26.582  -9.410  -4.401  0.00  0.00     0.169 HD
BRANCH   7   9
ATOM      9  C   UNL d   1      25.406  -8.542  -5.883  0.00  0.00     0.057 A 
ATOM     10  C   UNL d   1      24.304  -7.811  -5.391  0.00  0.00     0.047 A 
ATOM     11  C   UNL d   1      23.709  -6.786  -6.164  0.00  0.00     0.050 A 
ATOM     12  C   UNL d   1      24.287  -6.433  -7.389  0.00  0.00     0.018 A 
ATOM     13  C   UNL d   1      25.363  -7.157  -7.889  0.00  0.00     0.027 A 
ATOM     14  C   UNL d   1      25.905  -8.221  -7.163  0.00  0.00     0.060 A 
ATOM     15 CL   UNL d   1      27.040  -9.205  -8.029  0.00  0.00    -0.082 Cl
BRANCH  11  16
ATOM     16  C   UNL d   1      22.404  -6.133  -5.758  0.00  0.00     0.417 C 
ATOM     17  F   UNL d   1      21.489  -6.174  -6.766  0.00  0.00    -0.166 F 
ATOM     18  F   UNL d   1      21.813  -6.718  -4.685  0.00  0.00    -0.166 F 
ATOM     19  F   UNL d   1      22.538  -4.812  -5.442  0.00  0.00    -0.166 F 
ENDBRANCH  11  16
ENDBRANCH   7   9
ENDBRANCH   3   5
BRANCH   4  20
ATOM     20  C   UNL d   1      26.112 -14.348  -3.655  0.00  0.00     0.077 A 
ATOM     21  C   UNL d   1      27.350 -14.697  -3.117  0.00  0.00     0.040 A 
ATOM     22  C   UNL d   1      27.164 -15.739  -2.195  0.00  0.00     0.041 A 
ATOM     23  C   UNL d   1      25.813 -15.966  -2.140  0.00  0.00     0.086 A 
ATOM     24  O   UNL d   1      25.159 -15.122  -3.002  0.00  0.00    -0.310 OA
BRANCH  23  25
ATOM     25  C   UNL d   1      25.036 -16.875  -1.313  0.00  0.00     0.000 A 
ATOM     26  C   UNL d   1      25.562 -17.446  -0.149  0.00  0.00     0.014 A 
ATOM     27  C   UNL d   1      24.787 -18.313   0.632  0.00  0.00     0.003 A 
ATOM     28  C   UNL d   1      23.456 -18.568   0.296  0.00  0.00     0.036 A 
ATOM     29  C   UNL d   1      22.915 -17.973  -0.850  0.00  0.00     0.103 A 
ATOM     30  C   UNL d   1      23.694 -17.124  -1.646  0.00  0.00     0.050 A 
BRANCH  29  31
ATOM     31  N   UNL d   1      21.534 -18.279  -1.246  0.00  0.00    -0.116 N 
ATOM     32  O   UNL d   1      21.329 -19.325  -1.872  0.00  0.00    -0.532 OA
ATOM     33  O   UNL d   1      20.653 -17.458  -0.938  0.00  0.00    -0.532 OA
ENDBRANCH  29  31
ENDBRANCH  23  25
ENDBRANCH   4  20
TORSDOF 6
ENDMDL
MODEL 5
REMARK VINA RESULT:    -7.724      5.981      7.360
REMARK INTER + INTRA:         -10.612
REMARK INTER:                  -9.514
REMARK INTRA:                  -1.098
REMARK CONF_INDEPENDENT:        1.790
REMARK UNBOUND:                -1.098
REMARK  6 active torsions:
REMARK  status: ('A' for Active; 'I' for Inactive)
REMARK    1  A    between atoms: C_3  and  C_19 
REMARK    2  A    between atoms: C_4  and  C_5 
REMARK    3  A    between atoms: C_8  and  C_9 
REMARK    4  A    between atoms: C_13  and  N_14 
REMARK       I    between atoms: C_19  and  N_21 
REMARK    5  A    between atoms: N_21  and  C_22 
REMARK    6  A    between atoms: C_24  and  C_25 
ROOT
ATOM      1  N   UNL d   1      27.757 -11.512  -1.219  0.00  0.00    -0.096 N 
ATOM      2  C   UNL d   1      26.942 -11.333  -2.165  0.00  0.00     0.025 C 
ATOM      3  C   UNL d   1      25.961 -11.118  -3.305  0.00  0.00     0.101 C 
ATOM      4  C   UNL d   1      25.512 -12.216  -3.965  0.00  0.00     0.064 C 
ENDROOT
BRANCH   3   5
ATOM      5  C   UNL d   1      25.532  -9.713  -3.599  0.00  0.00     0.265 C 
ATOM      6  O   UNL d   1      25.670  -8.868  -2.709  0.00  0.00    -0.267 OA
ATOM      7  N   UNL d   1      24.911  -9.434  -4.812  0.00  0.00    -0.321 N 
ATOM      8  H   UNL d   1      24.526 -10.177  -5.380  0.00  0.00     0.169 HD
BRANCH   7   9
ATOM      9  C   UNL d   1      24.624  -8.103  -5.243  0.00  0.00     0.057 A 
ATOM     10  C   UNL d   1      23.324  -7.803  -5.704  0.00  0.00     0.047 A 
ATOM     11  C   UNL d   1      23.020  -6.529  -6.242  0.00  0.00     0.050 A 
ATOM     12  C   UNL d   1      24.000  -5.530  -6.223  0.00  0.00     0.018 A 
ATOM     13  C   UNL d   1      25.287  -5.821  -5.787  0.00  0.00     0.027 A 
ATOM     14  C   UNL d   1      25.612  -7.099  -5.326  0.00  0.00     0.060 A 
ATOM     15 CL   UNL d   1      27.304  -7.393  -5.091  0.00  0.00    -0.082 Cl
BRANCH  11  16
ATOM     16  C   UNL d   1      21.703  -6.248  -6.934  0.00  0.00     0.417 C 
ATOM     17  F   UNL d   1      20.643  -6.592  -6.151  0.00  0.00    -0.166 F 
ATOM     18  F   UNL d   1      21.527  -4.942  -7.261  0.00  0.00    -0.166 F 
ATOM     19  F   UNL d   1      21.542  -6.952  -8.092  0.00  0.00    -0.166 F 
ENDBRANCH  11  16
ENDBRANCH   7   9
ENDBRANCH   3   5
BRANCH   4  20
ATOM     20  C   UNL d   1      25.850 -13.551  -3.542  0.00  0.00     0.077 A 
ATOM     21  C   UNL d   1      26.925 -14.337  -3.954  0.00  0.00     0.040 A 
ATOM     22  C   UNL d   1      26.832 -15.591  -3.332  0.00  0.00     0.041 A 
ATOM     23  C   UNL d   1      25.740 -15.529  -2.505  0.00  0.00     0.086 A 
ATOM     24  O   UNL d   1      25.144 -14.297  -2.604  0.00  0.00    -0.310 OA
BRANCH  23  25
ATOM     25  C   UNL d   1      25.203 -16.502  -1.568  0.00  0.00     0.000 A 
ATOM     26  C   UNL d   1      25.981 -17.044  -0.539  0.00  0.00     0.014 A 
ATOM     27  C   UNL d   1      25.434 -17.974   0.354  0.00  0.00     0.003 A 
ATOM     28  C   UNL d   1      24.084 -18.325   0.270  0.00  0.00     0.036 A 
ATOM     29  C   UNL d   1      23.294 -17.761  -0.737  0.00  0.00     0.103 A 
ATOM     30  C   UNL d   1      23.843 -16.847  -1.646  0.00  0.00     0.050 A 
BRANCH  29  31
ATOM     31  N   UNL d   1      21.888 -18.166  -0.871  0.00  0.00    -0.116 N 
ATOM     32  O   UNL d   1      21.639 -19.373  -0.965  0.00  0.00    -0.532 OA
ATOM     33  O   UNL d   1      21.031 -17.265  -0.895  0.00  0.00    -0.532 OA
ENDBRANCH  29  31
ENDBRANCH  23  25
ENDBRANCH   4  20
TORSDOF 6
ENDMDL
MODEL 6
REMARK VINA RESULT:    -7.366      4.502      6.224
REMARK INTER + INTRA:         -10.356
REMARK INTER:                  -9.155
REMARK INTRA:                  -1.201
REMARK CONF_INDEPENDENT:        1.790
REMARK UNBOUND:                -1.201
REMARK  6 active torsions:
REMARK  status: ('A' for Active; 'I' for Inactive)
REMARK    1  A    between atoms: C_3  and  C_19 
REMARK    2  A    between atoms: C_4  and  C_5 
REMARK    3  A    between atoms: C_8  and  C_9 
REMARK    4  A    between atoms: C_13  and  N_14 
REMARK       I    between atoms: C_19  and  N_21 
REMARK    5  A    between atoms: N_21  and  C_22 
REMARK    6  A    between atoms: C_24  and  C_25 
ROOT
ATOM      1  N   UNL d   1      27.610 -14.726  -5.493  0.00  0.00    -0.096 N 
ATOM      2  C   UNL d   1      26.919 -13.691  -5.291  0.00  0.00     0.025 C 
ATOM      3  C   UNL d   1      26.086 -12.443  -5.048  0.00  0.00     0.101 C 
ATOM      4  C   UNL d   1      25.516 -12.296  -3.826  0.00  0.00     0.064 C 
ENDROOT
BRANCH   3   5
ATOM      5  C   UNL d   1      25.979 -11.449  -6.164  0.00  0.00     0.265 C 
ATOM      6  O   UNL d   1      24.850 -11.099  -6.520  0.00  0.00    -0.267 OA
ATOM      7  N   UNL d   1      27.136 -11.037  -6.816  0.00  0.00    -0.321 N 
ATOM      8  H   UNL d   1      27.996 -11.563  -6.729  0.00  0.00     0.169 HD
BRANCH   7   9
ATOM      9  C   UNL d   1      27.147  -9.974  -7.771  0.00  0.00     0.057 A 
ATOM     10  C   UNL d   1      26.984  -8.649  -7.315  0.00  0.00     0.047 A 
ATOM     11  C   UNL d   1      26.880  -7.574  -8.230  0.00  0.00     0.050 A 
ATOM     12  C   UNL d   1      27.039  -7.825  -9.598  0.00  0.00     0.018 A 
ATOM     13  C   UNL d   1      27.184  -9.129 -10.057  0.00  0.00     0.027 A 
ATOM     14  C   UNL d   1      27.211 -10.201  -9.162  0.00  0.00     0.060 A 
ATOM     15 CL   UNL d   1      27.105 -11.772  -9.887  0.00  0.00    -0.082 Cl
BRANCH  11  16
ATOM     16  C   UNL d   1      26.494  -6.179  -7.784  0.00  0.00     0.417 C 
ATOM     17  F   UNL d   1      25.167  -6.099  -7.486  0.00  0.00    -0.166 F 
ATOM     18  F   UNL d   1      27.159  -5.757  -6.678  0.00  0.00    -0.166 F 
ATOM     19  F   UNL d   1      26.710  -5.229  -8.739  0.00  0.00    -0.166 F 
ENDBRANCH  11  16
ENDBRANCH   7   9
ENDBRANCH   3   5
BRANCH   4  20
ATOM     20  C   UNL d   1      25.774 -13.217  -2.748  0.00  0.00     0.077 A 
ATOM     21  C   UNL d   1      26.675 -13.075  -1.694  0.00  0.00     0.040 A 
ATOM     22  C   UNL d   1      26.642 -14.241  -0.912  0.00  0.00     0.041 A 
ATOM     23  C   UNL d   1      25.679 -15.045  -1.465  0.00  0.00     0.086 A 
ATOM     24  O   UNL d   1      25.130 -14.435  -2.565  0.00  0.00    -0.310 OA
BRANCH  23  25
ATOM     25  C   UNL d   1      25.164 -16.337  -1.041  0.00  0.00     0.000 A 
ATOM     26  C   UNL d   1      25.956 -17.254  -0.341  0.00  0.00     0.014 A 
ATOM     27  C   UNL d   1      25.430 -18.488   0.062  0.00  0.00     0.003 A 
ATOM     28  C   UNL d   1      24.088 -18.795  -0.172  0.00  0.00     0.036 A 
ATOM     29  C   UNL d   1      23.283 -17.868  -0.843  0.00  0.00     0.103 A 
ATOM     30  C   UNL d   1      23.811 -16.641  -1.267  0.00  0.00     0.050 A 
BRANCH  29  31
ATOM     31  N   UNL d   1      21.885 -18.202  -1.146  0.00  0.00    -0.116 N 
ATOM     32  O   UNL d   1      21.649 -19.308  -1.644  0.00  0.00    -0.532 OA
ATOM     33  O   UNL d   1      21.022 -17.344  -0.895  0.00  0.00    -0.532 OA
ENDBRANCH  29  31
ENDBRANCH  23  25
ENDBRANCH   4  20
TORSDOF 6
ENDMDL
MODEL 7
REMARK VINA RESULT:    -7.299      8.578     11.682
REMARK INTER + INTRA:         -10.290
REMARK INTER:                  -9.089
REMARK INTRA:                  -1.202
REMARK CONF_INDEPENDENT:        1.790
REMARK UNBOUND:                -1.202
REMARK  6 active torsions:
REMARK  status: ('A' for Active; 'I' for Inactive)
REMARK    1  A    between atoms: C_3  and  C_19 
REMARK    2  A    between atoms: C_4  and  C_5 
REMARK    3  A    between atoms: C_8  and  C_9 
REMARK    4  A    between atoms: C_13  and  N_14 
REMARK       I    between atoms: C_19  and  N_21 
REMARK    5  A    between atoms: N_21  and  C_22 
REMARK    6  A    between atoms: C_24  and  C_25 
ROOT
ATOM      1  N   UNL d   1      26.731 -11.444   2.274  0.00  0.00    -0.096 N 
ATOM      2  C   UNL d   1      27.364 -12.150   3.105  0.00  0.00     0.025 C 
ATOM      3  C   UNL d   1      28.128 -13.001   4.107  0.00  0.00     0.101 C 
ATOM      4  C   UNL d   1      28.657 -14.170   3.665  0.00  0.00     0.064 C 
ENDROOT
BRANCH   3   5
ATOM      5  C   UNL d   1      28.271 -12.474   5.501  0.00  0.00     0.265 C 
ATOM      6  O   UNL d   1      27.448 -11.640   5.892  0.00  0.00    -0.267 OA
ATOM      7  N   UNL d   1      29.369 -12.862   6.262  0.00  0.00    -0.321 N 
ATOM      8  H   UNL d   1      30.181 -13.279   5.826  0.00  0.00     0.169 HD
BRANCH   7   9
ATOM      9  C   UNL d   1      29.498 -12.544   7.649  0.00  0.00     0.057 A 
ATOM     10  C   UNL d   1      28.768 -13.300   8.591  0.00  0.00     0.047 A 
ATOM     11  C   UNL d   1      28.778 -12.956   9.964  0.00  0.00     0.050 A 
ATOM     12  C   UNL d   1      29.602 -11.912  10.398  0.00  0.00     0.018 A 
ATOM     13  C   UNL d   1      30.312 -11.151   9.477  0.00  0.00     0.027 A 
ATOM     14  C   UNL d   1      30.245 -11.440   8.111  0.00  0.00     0.060 A 
ATOM     15 CL   UNL d   1      30.941 -10.244   7.067  0.00  0.00    -0.082 Cl
BRANCH  11  16
ATOM     16  C   UNL d   1      27.844 -13.612  10.959  0.00  0.00     0.417 C 
ATOM     17  F   UNL d   1      27.508 -14.875  10.572  0.00  0.00    -0.166 F 
ATOM     18  F   UNL d   1      28.368 -13.725  12.206  0.00  0.00    -0.166 F 
ATOM     19  F   UNL d   1      26.661 -12.949  11.105  0.00  0.00    -0.166 F 
ENDBRANCH  11  16
ENDBRANCH   7   9
ENDBRANCH   3   5
BRANCH   4  20
ATOM     20  C   UNL d   1      28.608 -14.552   2.277  0.00  0.00     0.077 A 
ATOM     21  C   UNL d   1      29.643 -14.536   1.344  0.00  0.00     0.040 A 
ATOM     22  C   UNL d   1      29.134 -14.932   0.097  0.00  0.00     0.041 A 
ATOM     23  C   UNL d   1      27.814 -15.241   0.303  0.00  0.00     0.086 A 
ATOM     24  O   UNL d   1      27.482 -15.036   1.619  0.00  0.00    -0.310 OA
BRANCH  23  25
ATOM     25  C   UNL d   1      26.810 -15.769  -0.606  0.00  0.00     0.000 A 
ATOM     26  C   UNL d   1      25.866 -16.717  -0.195  0.00  0.00     0.014 A 
ATOM     27  C   UNL d   1      24.906 -17.202  -1.092  0.00  0.00     0.003 A 
ATOM     28  C   UNL d   1      24.835 -16.698  -2.392  0.00  0.00     0.036 A 
ATOM     29  C   UNL d   1      25.756 -15.727  -2.799  0.00  0.00     0.103 A 
ATOM     30  C   UNL d   1      26.732 -15.255  -1.912  0.00  0.00     0.050 A 
BRANCH  29  31
ATOM     31  N   UNL d   1      25.729 -15.231  -4.181  0.00  0.00    -0.116 N 
ATOM     32  O   UNL d   1      24.781 -14.513  -4.520  0.00  0.00    -0.532 OA
ATOM     33  O   UNL d   1      26.656 -15.575  -4.934  0.00  0.00    -0.532 OA
ENDBRANCH  29  31
ENDBRANCH  23  25
ENDBRANCH   4  20
TORSDOF 6
ENDMDL
MODEL 8
REMARK VINA RESULT:    -7.295      8.562     11.636
REMARK INTER + INTRA:         -10.234
REMARK INTER:                  -9.085
REMARK INTRA:                  -1.149
REMARK CONF_INDEPENDENT:        1.790
REMARK UNBOUND:                -1.149
REMARK  6 active torsions:
REMARK  status: ('A' for Active; 'I' for Inactive)
REMARK    1  A    between atoms: C_3  and  C_19 
REMARK    2  A    between atoms: C_4  and  C_5 
REMARK    3  A    between atoms: C_8  and  C_9 
REMARK    4  A    between atoms: C_13  and  N_14 
REMARK       I    between atoms: C_19  and  N_21 
REMARK    5  A    between atoms: N_21  and  C_22 
REMARK    6  A    between atoms: C_24  and  C_25 
ROOT
ATOM      1  N   UNL d   1      27.057 -11.346   2.634  0.00  0.00    -0.096 N 
ATOM      2  C   UNL d   1      27.565 -12.203   3.407  0.00  0.00     0.025 C 
ATOM      3  C   UNL d   1      28.178 -13.236   4.338  0.00  0.00     0.101 C 
ATOM      4  C   UNL d   1      28.559 -14.422   3.799  0.00  0.00     0.064 C 
ENDROOT
BRANCH   3   5
ATOM      5  C   UNL d   1      28.349 -12.861   5.778  0.00  0.00     0.265 C 
ATOM      6  O   UNL d   1      27.412 -12.288   6.342  0.00  0.00    -0.267 OA
ATOM      7  N   UNL d   1      29.578 -13.078   6.393  0.00  0.00    -0.321 N 
ATOM      8  H   UNL d   1      30.411 -13.245   5.843  0.00  0.00     0.169 HD
BRANCH   7   9
ATOM      9  C   UNL d   1      29.779 -12.908   7.797  0.00  0.00     0.057 A 
ATOM     10  C   UNL d   1      29.917 -14.054   8.609  0.00  0.00     0.047 A 
ATOM     11  C   UNL d   1      30.010 -13.940  10.017  0.00  0.00     0.050 A 
ATOM     12  C   UNL d   1      30.063 -12.667  10.595  0.00  0.00     0.018 A 
ATOM     13  C   UNL d   1      29.911 -11.532   9.806  0.00  0.00     0.027 A 
ATOM     14  C   UNL d   1      29.743 -11.644   8.423  0.00  0.00     0.060 A 
ATOM     15 CL   UNL d   1      29.281 -10.182   7.615  0.00  0.00    -0.082 Cl
BRANCH  11  16
ATOM     16  C   UNL d   1      29.945 -15.152  10.923  0.00  0.00     0.417 C 
ATOM     17  F   UNL d   1      28.771 -15.197  11.613  0.00  0.00    -0.166 F 
ATOM     18  F   UNL d   1      30.043 -16.333  10.261  0.00  0.00    -0.166 F 
ATOM     19  F   UNL d   1      30.925 -15.168  11.871  0.00  0.00    -0.166 F 
ENDBRANCH  11  16
ENDBRANCH   7   9
ENDBRANCH   3   5
BRANCH   4  20
ATOM     20  C   UNL d   1      28.500 -14.669   2.381  0.00  0.00     0.077 A 
ATOM     21  C   UNL d   1      29.494 -14.447   1.428  0.00  0.00     0.040 A 
ATOM     22  C   UNL d   1      28.984 -14.771   0.161  0.00  0.00     0.041 A 
ATOM     23  C   UNL d   1      27.713 -15.241   0.368  0.00  0.00     0.086 A 
ATOM     24  O   UNL d   1      27.409 -15.205   1.706  0.00  0.00    -0.310 OA
BRANCH  23  25
ATOM     25  C   UNL d   1      26.739 -15.784  -0.564  0.00  0.00     0.000 A 
ATOM     26  C   UNL d   1      25.814 -16.762  -0.182  0.00  0.00     0.014 A 
ATOM     27  C   UNL d   1      24.882 -17.261  -1.100  0.00  0.00     0.003 A 
ATOM     28  C   UNL d   1      24.818 -16.741  -2.395  0.00  0.00     0.036 A 
ATOM     29  C   UNL d   1      25.719 -15.740  -2.773  0.00  0.00     0.103 A 
ATOM     30  C   UNL d   1      26.668 -15.254  -1.864  0.00  0.00     0.050 A 
BRANCH  29  31
ATOM     31  N   UNL d   1      25.700 -15.226  -4.149  0.00  0.00    -0.116 N 
ATOM     32  O   UNL d   1      26.608 -15.576  -4.911  0.00  0.00    -0.532 OA
ATOM     33  O   UNL d   1      24.776 -14.456  -4.462  0.00  0.00    -0.532 OA
ENDBRANCH  29  31
ENDBRANCH  23  25
ENDBRANCH   4  20
TORSDOF 6
ENDMDL
MODEL 9
REMARK VINA RESULT:    -7.251      5.687      7.428
REMARK INTER + INTRA:         -10.109
REMARK INTER:                  -9.041
REMARK INTRA:                  -1.068
REMARK CONF_INDEPENDENT:        1.790
REMARK UNBOUND:                -1.068
REMARK  6 active torsions:
REMARK  status: ('A' for Active; 'I' for Inactive)
REMARK    1  A    between atoms: C_3  and  C_19 
REMARK    2  A    between atoms: C_4  and  C_5 
REMARK    3  A    between atoms: C_8  and  C_9 
REMARK    4  A    between atoms: C_13  and  N_14 
REMARK       I    between atoms: C_19  and  N_21 
REMARK    5  A    between atoms: N_21  and  C_22 
REMARK    6  A    between atoms: C_24  and  C_25 
ROOT
ATOM      1  N   UNL d   1      25.147 -13.946  -3.632  0.00  0.00    -0.096 N 
ATOM      2  C   UNL d   1      26.339 -14.352  -3.576  0.00  0.00     0.025 C 
ATOM      3  C   UNL d   1      27.776 -14.843  -3.509  0.00  0.00     0.101 C 
ATOM      4  C   UNL d   1      28.389 -14.832  -2.298  0.00  0.00     0.064 C 
ENDROOT
BRANCH   3   5
ATOM      5  C   UNL d   1      28.404 -15.334  -4.777  0.00  0.00     0.265 C 
ATOM      6  O   UNL d   1      27.766 -15.204  -5.827  0.00  0.00    -0.267 OA
ATOM      7  N   UNL d   1      29.623 -16.001  -4.715  0.00  0.00    -0.321 N 
ATOM      8  H   UNL d   1      29.966 -16.374  -3.839  0.00  0.00     0.169 HD
BRANCH   7   9
ATOM      9  C   UNL d   1      30.370 -16.353  -5.881  0.00  0.00     0.057 A 
ATOM     10  C   UNL d   1      30.405 -17.705  -6.284  0.00  0.00     0.047 A 
ATOM     11  C   UNL d   1      31.217 -18.119  -7.367  0.00  0.00     0.050 A 
ATOM     12  C   UNL d   1      31.915 -17.155  -8.103  0.00  0.00     0.018 A 
ATOM     13  C   UNL d   1      31.901 -15.824  -7.703  0.00  0.00     0.027 A 
ATOM     14  C   UNL d   1      31.161 -15.423  -6.588  0.00  0.00     0.060 A 
ATOM     15 CL   UNL d   1      31.465 -13.806  -6.042  0.00  0.00    -0.082 Cl
BRANCH  11  16
ATOM     16  C   UNL d   1      31.437 -19.583  -7.686  0.00  0.00     0.417 C 
ATOM     17  F   UNL d   1      31.367 -19.818  -9.027  0.00  0.00    -0.166 F 
ATOM     18  F   UNL d   1      32.644 -20.054  -7.281  0.00  0.00    -0.166 F 
ATOM     19  F   UNL d   1      30.503 -20.403  -7.124  0.00  0.00    -0.166 F 
ENDBRANCH  11  16
ENDBRANCH   7   9
ENDBRANCH   3   5
BRANCH   4  20
ATOM     20  C   UNL d   1      27.685 -14.483  -1.091  0.00  0.00     0.077 A 
ATOM     21  C   UNL d   1      26.558 -15.095  -0.545  0.00  0.00     0.040 A 
ATOM     22  C   UNL d   1      26.172 -14.389   0.605  0.00  0.00     0.041 A 
ATOM     23  C   UNL d   1      27.104 -13.398   0.776  0.00  0.00     0.086 A 
ATOM     24  O   UNL d   1      28.037 -13.450  -0.228  0.00  0.00    -0.310 OA
BRANCH  23  25
ATOM     25  C   UNL d   1      27.253 -12.409   1.831  0.00  0.00     0.000 A 
ATOM     26  C   UNL d   1      28.047 -12.646   2.959  0.00  0.00     0.014 A 
ATOM     27  C   UNL d   1      28.178 -11.672   3.956  0.00  0.00     0.003 A 
ATOM     28  C   UNL d   1      27.572 -10.422   3.807  0.00  0.00     0.036 A 
ATOM     29  C   UNL d   1      26.804 -10.168   2.666  0.00  0.00     0.103 A 
ATOM     30  C   UNL d   1      26.652 -11.149   1.677  0.00  0.00     0.050 A 
BRANCH  29  31
ATOM     31  N   UNL d   1      26.114  -8.879   2.525  0.00  0.00    -0.116 N 
ATOM     32  O   UNL d   1      26.516  -7.929   3.206  0.00  0.00    -0.532 OA
ATOM     33  O   UNL d   1      25.154  -8.824   1.736  0.00  0.00    -0.532 OA
ENDBRANCH  29  31
ENDBRANCH  23  25
ENDBRANCH   4  20
TORSDOF 6
ENDMDL
