MODEL 1
REMARK VINA RESULT:   -10.413      0.000      0.000
REMARK INTER + INTRA:         -15.548
REMARK INTER:                 -13.694
REMARK INTRA:                  -1.853
REMARK CONF_INDEPENDENT:        3.281
REMARK UNBOUND:                -1.853
REMARK  11 active torsions:
REMARK  status: ('A' for Active; 'I' for Inactive)
REMARK    1  A    between atoms: C_2  and  C_5 
REMARK       I    between atoms: C_5  and  N_7 
REMARK    2  A    between atoms: N_7  and  C_8 
REMARK    3  A    between atoms: C_12  and  N_13 
REMARK       I    between atoms: N_13  and  C_14 
REMARK    4  A    between atoms: C_14  and  C_16 
REMARK    5  A    between atoms: C_16  and  N_17 
REMARK    6  A    between atoms: N_17  and  C_18 
REMARK    7  A    between atoms: C_22  and  O_23 
REMARK    8  A    between atoms: O_23  and  C_24 
REMARK    9  A    between atoms: C_24  and  C_25 
REMARK   10  A    between atoms: C_25  and  C_26 
REMARK   11  A    between atoms: C_26  and  C_27 
ROOT
ATOM      1  C   UNL d   1      27.758 -14.968   1.523  0.00  0.00     0.223 C 
ENDROOT
BRANCH   1   2
ATOM      2  C   UNL d   1      27.707 -14.104   2.779  0.00  0.00     0.239 C 
ATOM      3  N   UNL d   1      28.406 -14.566   3.895  0.00  0.00    -0.326 N 
ATOM      4  H   UNL d   1      28.934 -15.427   3.822  0.00  0.00     0.169 HD
ATOM      5  O   UNL d   1      27.053 -13.055   2.703  0.00  0.00    -0.271 OA
BRANCH   3   6
ATOM      6  C   UNL d   1      28.481 -13.862   5.131  0.00  0.00     0.036 A 
ATOM      7  C   UNL d   1      27.794 -12.667   5.347  0.00  0.00     0.029 A 
ATOM      8  C   UNL d   1      27.836 -12.055   6.619  0.00  0.00     0.004 A 
ATOM      9  C   UNL d   1      28.592 -12.608   7.667  0.00  0.00     0.029 A 
ATOM     10  C   UNL d   1      29.304 -13.776   7.443  0.00  0.00     0.036 A 
ATOM     11  C   UNL d   1      29.225 -14.369   6.191  0.00  0.00     0.059 A 
BRANCH  10  12
ATOM     12  N   UNL d   1      30.056 -14.434   8.445  0.00  0.00    -0.326 N 
ATOM     13  C   UNL d   1      29.568 -14.610   9.739  0.00  0.00     0.229 C 
ATOM     14  O   UNL d   1      28.400 -14.353  10.061  0.00  0.00    -0.272 OA
ATOM     15  H   UNL d   1      30.946 -14.830   8.177  0.00  0.00     0.169 HD
BRANCH  13  16
ATOM     16  C   UNL d   1      30.526 -15.223  10.774  0.00  0.00     0.030 C 
ATOM     17  C   UNL d   1      30.777 -16.700  10.396  0.00  0.00     0.025 C 
ATOM     18  C   UNL d   1      29.931 -15.181  12.186  0.00  0.00     0.025 C 
ATOM     19  C   UNL d   1      31.863 -14.479  10.742  0.00  0.00     0.025 C 
ENDBRANCH  13  16
ENDBRANCH  10  12
ENDBRANCH   3   6
ENDBRANCH   1   2
BRANCH   1  20
ATOM     20  N   UNL d   1      26.730 -14.466   0.604  0.00  0.00    -0.381 N 
ATOM     21  H   UNL d   1      26.011 -13.904   1.080  0.00  0.00     0.160 HD
BRANCH  20  22
ATOM     22  C   UNL d   1      26.315 -15.086  -0.549  0.00  0.00     0.030 A 
ATOM     23  C   UNL d   1      26.880 -14.690  -1.763  0.00  0.00     0.029 A 
ATOM     24  C   UNL d   1      26.476 -15.265  -2.968  0.00  0.00     0.005 A 
ATOM     25  C   UNL d   1      25.523 -16.283  -2.963  0.00  0.00     0.037 A 
ATOM     26  C   UNL d   1      24.956 -16.700  -1.760  0.00  0.00     0.070 A 
ATOM     27  C   UNL d   1      25.369 -16.107  -0.564  0.00  0.00     0.065 A 
BRANCH  26  28
ATOM     28  O   UNL d   1      23.993 -17.673  -1.852  0.00  0.00    -0.351 OA
BRANCH  28  29
ATOM     29  C   UNL d   1      23.914 -18.552  -0.727  0.00  0.00     0.176 C 
BRANCH  29  30
ATOM     30  C   UNL d   1      22.677 -18.217   0.083  0.00  0.00     0.031 C 
BRANCH  30  31
ATOM     31  C   UNL d   1      21.420 -18.351  -0.778  0.00  0.00     0.041 C 
BRANCH  31  32
ATOM     32  C   UNL d   1      20.429 -19.267  -0.111  0.00  0.00    -0.058 A 
ATOM     33  C   UNL d   1      19.323 -19.752  -0.816  0.00  0.00     0.007 A 
ATOM     34  C   UNL d   1      18.319 -20.450  -0.146  0.00  0.00     0.001 A 
ATOM     35  C   UNL d   1      18.453 -20.735   1.212  0.00  0.00     0.000 A 
ATOM     36  C   UNL d   1      19.574 -20.294   1.911  0.00  0.00     0.001 A 
ATOM     37  C   UNL d   1      20.557 -19.559   1.253  0.00  0.00     0.007 A 
ENDBRANCH  31  32
ENDBRANCH  30  31
ENDBRANCH  29  30
ENDBRANCH  28  29
ENDBRANCH  26  28
ENDBRANCH  20  22
ENDBRANCH   1  20
TORSDOF 11
ENDMDL
MODEL 2
REMARK VINA RESULT:   -10.243      1.317      1.735
REMARK INTER + INTRA:         -14.815
REMARK INTER:                 -13.524
REMARK INTRA:                  -1.291
REMARK CONF_INDEPENDENT:        3.281
REMARK UNBOUND:                -1.291
REMARK  11 active torsions:
REMARK  status: ('A' for Active; 'I' for Inactive)
REMARK    1  A    between atoms: C_2  and  C_5 
REMARK       I    between atoms: C_5  and  N_7 
REMARK    2  A    between atoms: N_7  and  C_8 
REMARK    3  A    between atoms: C_12  and  N_13 
REMARK       I    between atoms: N_13  and  C_14 
REMARK    4  A    between atoms: C_14  and  C_16 
REMARK    5  A    between atoms: C_16  and  N_17 
REMARK    6  A    between atoms: N_17  and  C_18 
REMARK    7  A    between atoms: C_22  and  O_23 
REMARK    8  A    between atoms: O_23  and  C_24 
REMARK    9  A    between atoms: C_24  and  C_25 
REMARK   10  A    between atoms: C_25  and  C_26 
REMARK   11  A    between atoms: C_26  and  C_27 
ROOT
ATOM      1  C   UNL d   1      28.899 -15.893   0.511  0.00  0.00     0.223 C 
ENDROOT
BRANCH   1   2
ATOM      2  C   UNL d   1      28.367 -14.926   1.563  0.00  0.00     0.239 C 
ATOM      3  N   UNL d   1      29.098 -14.811   2.746  0.00  0.00    -0.326 N 
ATOM      4  H   UNL d   1      29.954 -15.343   2.848  0.00  0.00     0.169 HD
ATOM      5  O   UNL d   1      27.329 -14.312   1.278  0.00  0.00    -0.271 OA
BRANCH   3   6
ATOM      6  C   UNL d   1      28.751 -13.931   3.811  0.00  0.00     0.036 A 
ATOM      7  C   UNL d   1      28.181 -12.678   3.582  0.00  0.00     0.029 A 
ATOM      8  C   UNL d   1      27.779 -11.882   4.676  0.00  0.00     0.004 A 
ATOM      9  C   UNL d   1      27.976 -12.311   6.000  0.00  0.00     0.029 A 
ATOM     10  C   UNL d   1      28.575 -13.539   6.229  0.00  0.00     0.036 A 
ATOM     11  C   UNL d   1      28.939 -14.313   5.135  0.00  0.00     0.059 A 
BRANCH  10  12
ATOM     12  N   UNL d   1      28.776 -14.080   7.522  0.00  0.00    -0.326 N 
ATOM     13  C   UNL d   1      28.839 -13.274   8.657  0.00  0.00     0.229 C 
ATOM     14  O   UNL d   1      28.569 -12.065   8.644  0.00  0.00    -0.272 OA
ATOM     15  H   UNL d   1      28.816 -15.086   7.607  0.00  0.00     0.169 HD
BRANCH  13  16
ATOM     16  C   UNL d   1      29.191 -13.960   9.988  0.00  0.00     0.030 C 
ATOM     17  C   UNL d   1      29.871 -12.922  10.909  0.00  0.00     0.025 C 
ATOM     18  C   UNL d   1      30.159 -15.129   9.781  0.00  0.00     0.025 C 
ATOM     19  C   UNL d   1      27.910 -14.448  10.669  0.00  0.00     0.025 C 
ENDBRANCH  13  16
ENDBRANCH  10  12
ENDBRANCH   3   6
ENDBRANCH   1   2
BRANCH   1  20
ATOM     20  N   UNL d   1      27.785 -16.761   0.112  0.00  0.00    -0.381 N 
ATOM     21  H   UNL d   1      28.062 -17.748   0.021  0.00  0.00     0.160 HD
BRANCH  20  22
ATOM     22  C   UNL d   1      26.714 -16.384  -0.661  0.00  0.00     0.030 A 
ATOM     23  C   UNL d   1      26.859 -15.291  -1.519  0.00  0.00     0.029 A 
ATOM     24  C   UNL d   1      25.796 -14.846  -2.306  0.00  0.00     0.005 A 
ATOM     25  C   UNL d   1      24.580 -15.526  -2.273  0.00  0.00     0.037 A 
ATOM     26  C   UNL d   1      24.419 -16.626  -1.432  0.00  0.00     0.070 A 
ATOM     27  C   UNL d   1      25.494 -17.052  -0.646  0.00  0.00     0.065 A 
BRANCH  26  28
ATOM     28  O   UNL d   1      23.176 -17.206  -1.427  0.00  0.00    -0.351 OA
BRANCH  28  29
ATOM     29  C   UNL d   1      23.168 -18.619  -1.643  0.00  0.00     0.176 C 
BRANCH  29  30
ATOM     30  C   UNL d   1      22.899 -19.324  -0.328  0.00  0.00     0.031 C 
BRANCH  30  31
ATOM     31  C   UNL d   1      21.849 -18.562   0.484  0.00  0.00     0.041 C 
BRANCH  31  32
ATOM     32  C   UNL d   1      20.636 -19.425   0.703  0.00  0.00    -0.058 A 
ATOM     33  C   UNL d   1      19.829 -19.804  -0.375  0.00  0.00     0.007 A 
ATOM     34  C   UNL d   1      18.615 -20.449  -0.145  0.00  0.00     0.001 A 
ATOM     35  C   UNL d   1      18.238 -20.789   1.155  0.00  0.00     0.000 A 
ATOM     36  C   UNL d   1      19.059 -20.454   2.229  0.00  0.00     0.001 A 
ATOM     37  C   UNL d   1      20.251 -19.771   2.006  0.00  0.00     0.007 A 
ENDBRANCH  31  32
ENDBRANCH  30  31
ENDBRANCH  29  30
ENDBRANCH  28  29
ENDBRANCH  26  28
ENDBRANCH  20  22
ENDBRANCH   1  20
TORSDOF 11
ENDMDL
MODEL 3
REMARK VINA RESULT:   -10.175      6.326      9.827
REMARK INTER + INTRA:         -15.129
REMARK INTER:                 -13.456
REMARK INTRA:                  -1.672
REMARK CONF_INDEPENDENT:        3.281
REMARK UNBOUND:                -1.672
REMARK  11 active torsions:
REMARK  status: ('A' for Active; 'I' for Inactive)
REMARK    1  A    between atoms: C_2  and  C_5 
REMARK       I    between atoms: C_5  and  N_7 
REMARK    2  A    between atoms: N_7  and  C_8 
REMARK    3  A    between atoms: C_12  and  N_13 
REMARK       I    between atoms: N_13  and  C_14 
REMARK    4  A    between atoms: C_14  and  C_16 
REMARK    5  A    between atoms: C_16  and  N_17 
REMARK    6  A    between atoms: N_17  and  C_18 
REMARK    7  A    between atoms: C_22  and  O_23 
REMARK    8  A    between atoms: O_23  and  C_24 
REMARK    9  A    between atoms: C_24  and  C_25 
REMARK   10  A    between atoms: C_25  and  C_26 
REMARK   11  A    between atoms: C_26  and  C_27 
ROOT
ATOM      1  C   UNL d   1      25.064 -13.954  -3.158  0.00  0.00     0.223 C 
ENDROOT
BRANCH   1   2
ATOM      2  C   UNL d   1      25.974 -14.508  -4.249  0.00  0.00     0.239 C 
ATOM      3  N   UNL d   1      27.288 -14.038  -4.278  0.00  0.00    -0.326 N 
ATOM      4  H   UNL d   1      27.589 -13.380  -3.569  0.00  0.00     0.169 HD
ATOM      5  O   UNL d   1      25.474 -15.340  -5.018  0.00  0.00    -0.271 OA
BRANCH   3   6
ATOM      6  C   UNL d   1      28.268 -14.479  -5.212  0.00  0.00     0.036 A 
ATOM      7  C   UNL d   1      28.622 -13.721  -6.329  0.00  0.00     0.029 A 
ATOM      8  C   UNL d   1      29.660 -14.167  -7.176  0.00  0.00     0.004 A 
ATOM      9  C   UNL d   1      30.322 -15.384  -6.938  0.00  0.00     0.029 A 
ATOM     10  C   UNL d   1      29.945 -16.155  -5.850  0.00  0.00     0.036 A 
ATOM     11  C   UNL d   1      28.938 -15.682  -5.020  0.00  0.00     0.059 A 
BRANCH  10  12
ATOM     12  N   UNL d   1      30.579 -17.371  -5.501  0.00  0.00    -0.326 N 
ATOM     13  C   UNL d   1      30.789 -18.388  -6.431  0.00  0.00     0.229 C 
ATOM     14  O   UNL d   1      30.589 -18.246  -7.645  0.00  0.00    -0.272 OA
ATOM     15  H   UNL d   1      30.932 -17.461  -4.558  0.00  0.00     0.169 HD
BRANCH  13  16
ATOM     16  C   UNL d   1      31.368 -19.713  -5.906  0.00  0.00     0.030 C 
ATOM     17  C   UNL d   1      31.708 -20.613  -7.115  0.00  0.00     0.025 C 
ATOM     18  C   UNL d   1      30.363 -20.455  -5.020  0.00  0.00     0.025 C 
ATOM     19  C   UNL d   1      32.658 -19.438  -5.128  0.00  0.00     0.025 C 
ENDBRANCH  13  16
ENDBRANCH  10  12
ENDBRANCH   3   6
ENDBRANCH   1   2
BRANCH   1  20
ATOM     20  N   UNL d   1      25.753 -14.142  -1.876  0.00  0.00    -0.381 N 
ATOM     21  H   UNL d   1      26.540 -13.491  -1.748  0.00  0.00     0.160 HD
BRANCH  20  22
ATOM     22  C   UNL d   1      25.863 -15.328  -1.193  0.00  0.00     0.030 A 
ATOM     23  C   UNL d   1      27.026 -15.571  -0.456  0.00  0.00     0.029 A 
ATOM     24  C   UNL d   1      27.204 -16.771   0.233  0.00  0.00     0.005 A 
ATOM     25  C   UNL d   1      26.192 -17.729   0.227  0.00  0.00     0.037 A 
ATOM     26  C   UNL d   1      25.020 -17.500  -0.492  0.00  0.00     0.070 A 
ATOM     27  C   UNL d   1      24.863 -16.295  -1.183  0.00  0.00     0.065 A 
BRANCH  26  28
ATOM     28  O   UNL d   1      24.097 -18.515  -0.482  0.00  0.00    -0.351 OA
BRANCH  28  29
ATOM     29  C   UNL d   1      23.279 -18.598  -1.651  0.00  0.00     0.176 C 
BRANCH  29  30
ATOM     30  C   UNL d   1      21.827 -18.735  -1.236  0.00  0.00     0.031 C 
BRANCH  30  31
ATOM     31  C   UNL d   1      21.706 -18.768   0.289  0.00  0.00     0.041 C 
BRANCH  31  32
ATOM     32  C   UNL d   1      20.515 -19.590   0.698  0.00  0.00    -0.058 A 
ATOM     33  C   UNL d   1      19.611 -20.060  -0.261  0.00  0.00     0.007 A 
ATOM     34  C   UNL d   1      18.421 -20.665   0.137  0.00  0.00     0.001 A 
ATOM     35  C   UNL d   1      18.162 -20.875   1.492  0.00  0.00     0.000 A 
ATOM     36  C   UNL d   1      19.078 -20.450   2.451  0.00  0.00     0.001 A 
ATOM     37  C   UNL d   1      20.248 -19.806   2.057  0.00  0.00     0.007 A 
ENDBRANCH  31  32
ENDBRANCH  30  31
ENDBRANCH  29  30
ENDBRANCH  28  29
ENDBRANCH  26  28
ENDBRANCH  20  22
ENDBRANCH   1  20
TORSDOF 11
ENDMDL
MODEL 4
REMARK VINA RESULT:    -9.835      1.886      2.830
REMARK INTER + INTRA:         -14.668
REMARK INTER:                 -13.117
REMARK INTRA:                  -1.552
REMARK CONF_INDEPENDENT:        3.281
REMARK UNBOUND:                -1.552
REMARK  11 active torsions:
REMARK  status: ('A' for Active; 'I' for Inactive)
REMARK    1  A    between atoms: C_2  and  C_5 
REMARK       I    between atoms: C_5  and  N_7 
REMARK    2  A    between atoms: N_7  and  C_8 
REMARK    3  A    between atoms: C_12  and  N_13 
REMARK       I    between atoms: N_13  and  C_14 
REMARK    4  A    between atoms: C_14  and  C_16 
REMARK    5  A    between atoms: C_16  and  N_17 
REMARK    6  A    between atoms: N_17  and  C_18 
REMARK    7  A    between atoms: C_22  and  O_23 
REMARK    8  A    between atoms: O_23  and  C_24 
REMARK    9  A    between atoms: C_24  and  C_25 
REMARK   10  A    between atoms: C_25  and  C_26 
REMARK   11  A    between atoms: C_26  and  C_27 
ROOT
ATOM      1  C   UNL d   1      29.733 -16.186  -1.029  0.00  0.00     0.223 C 
ENDROOT
BRANCH   1   2
ATOM      2  C   UNL d   1      29.208 -15.047  -0.162  0.00  0.00     0.239 C 
ATOM      3  N   UNL d   1      28.952 -15.336   1.179  0.00  0.00    -0.326 N 
ATOM      4  H   UNL d   1      29.149 -16.267   1.526  0.00  0.00     0.169 HD
ATOM      5  O   UNL d   1      29.058 -13.951  -0.719  0.00  0.00    -0.271 OA
BRANCH   3   6
ATOM      6  C   UNL d   1      28.489 -14.376   2.123  0.00  0.00     0.036 A 
ATOM      7  C   UNL d   1      27.512 -13.433   1.803  0.00  0.00     0.029 A 
ATOM      8  C   UNL d   1      27.029 -12.560   2.803  0.00  0.00     0.004 A 
ATOM      9  C   UNL d   1      27.543 -12.595   4.111  0.00  0.00     0.029 A 
ATOM     10  C   UNL d   1      28.539 -13.507   4.420  0.00  0.00     0.036 A 
ATOM     11  C   UNL d   1      28.979 -14.370   3.425  0.00  0.00     0.059 A 
BRANCH  10  12
ATOM     12  N   UNL d   1      29.088 -13.652   5.716  0.00  0.00    -0.326 N 
ATOM     13  C   UNL d   1      28.561 -12.985   6.820  0.00  0.00     0.229 C 
ATOM     14  O   UNL d   1      27.495 -12.353   6.783  0.00  0.00    -0.272 OA
ATOM     15  H   UNL d   1      29.848 -14.307   5.832  0.00  0.00     0.169 HD
BRANCH  13  16
ATOM     16  C   UNL d   1      29.319 -13.117   8.151  0.00  0.00     0.030 C 
ATOM     17  C   UNL d   1      28.910 -14.450   8.818  0.00  0.00     0.025 C 
ATOM     18  C   UNL d   1      28.978 -11.973   9.111  0.00  0.00     0.025 C 
ATOM     19  C   UNL d   1      30.826 -13.152   7.883  0.00  0.00     0.025 C 
ENDBRANCH  13  16
ENDBRANCH  10  12
ENDBRANCH   3   6
ENDBRANCH   1   2
BRANCH   1  20
ATOM     20  N   UNL d   1      28.652 -16.574  -1.943  0.00  0.00    -0.381 N 
ATOM     21  H   UNL d   1      28.896 -16.430  -2.932  0.00  0.00     0.160 HD
BRANCH  20  22
ATOM     22  C   UNL d   1      27.309 -16.521  -1.662  0.00  0.00     0.030 A 
ATOM     23  C   UNL d   1      26.557 -15.465  -2.183  0.00  0.00     0.029 A 
ATOM     24  C   UNL d   1      25.195 -15.345  -1.906  0.00  0.00     0.005 A 
ATOM     25  C   UNL d   1      24.558 -16.315  -1.134  0.00  0.00     0.037 A 
ATOM     26  C   UNL d   1      25.289 -17.383  -0.615  0.00  0.00     0.070 A 
ATOM     27  C   UNL d   1      26.654 -17.482  -0.897  0.00  0.00     0.065 A 
BRANCH  26  28
ATOM     28  O   UNL d   1      24.593 -18.265   0.173  0.00  0.00    -0.351 OA
BRANCH  28  29
ATOM     29  C   UNL d   1      23.482 -18.898  -0.467  0.00  0.00     0.176 C 
BRANCH  29  30
ATOM     30  C   UNL d   1      22.208 -18.166  -0.095  0.00  0.00     0.031 C 
BRANCH  30  31
ATOM     31  C   UNL d   1      21.024 -18.709  -0.898  0.00  0.00     0.041 C 
BRANCH  31  32
ATOM     32  C   UNL d   1      20.047 -19.396   0.017  0.00  0.00    -0.058 A 
ATOM     33  C   UNL d   1      20.279 -19.447   1.396  0.00  0.00     0.007 A 
ATOM     34  C   UNL d   1      19.468 -20.234   2.212  0.00  0.00     0.001 A 
ATOM     35  C   UNL d   1      18.375 -20.910   1.669  0.00  0.00     0.000 A 
ATOM     36  C   UNL d   1      18.111 -20.827   0.304  0.00  0.00     0.001 A 
ATOM     37  C   UNL d   1      18.946 -20.076  -0.520  0.00  0.00     0.007 A 
ENDBRANCH  31  32
ENDBRANCH  30  31
ENDBRANCH  29  30
ENDBRANCH  28  29
ENDBRANCH  26  28
ENDBRANCH  20  22
ENDBRANCH   1  20
TORSDOF 11
ENDMDL
MODEL 5
REMARK VINA RESULT:    -9.457      6.894      9.258
REMARK INTER + INTRA:         -14.289
REMARK INTER:                 -12.738
REMARK INTRA:                  -1.550
REMARK CONF_INDEPENDENT:        3.281
REMARK UNBOUND:                -1.550
REMARK  11 active torsions:
REMARK  status: ('A' for Active; 'I' for Inactive)
REMARK    1  A    between atoms: C_2  and  C_5 
REMARK       I    between atoms: C_5  and  N_7 
REMARK    2  A    between atoms: N_7  and  C_8 
REMARK    3  A    between atoms: C_12  and  N_13 
REMARK       I    between atoms: N_13  and  C_14 
REMARK    4  A    between atoms: C_14  and  C_16 
REMARK    5  A    between atoms: C_16  and  N_17 
REMARK    6  A    between atoms: N_17  and  C_18 
REMARK    7  A    between atoms: C_22  and  O_23 
REMARK    8  A    between atoms: O_23  and  C_24 
REMARK    9  A    between atoms: C_24  and  C_25 
REMARK   10  A    between atoms: C_25  and  C_26 
REMARK   11  A    between atoms: C_26  and  C_27 
ROOT
ATOM      1  C   UNL d   1      26.852 -13.802  -4.280  0.00  0.00     0.223 C 
ENDROOT
BRANCH   1   2
ATOM      2  C   UNL d   1      27.597 -14.815  -5.143  0.00  0.00     0.239 C 
ATOM      3  N   UNL d   1      28.879 -15.180  -4.729  0.00  0.00    -0.326 N 
ATOM      4  H   UNL d   1      29.248 -14.787  -3.871  0.00  0.00     0.169 HD
ATOM      5  O   UNL d   1      26.998 -15.239  -6.141  0.00  0.00    -0.271 OA
BRANCH   3   6
ATOM      6  C   UNL d   1      29.690 -16.133  -5.407  0.00  0.00     0.036 A 
ATOM      7  C   UNL d   1      30.328 -15.841  -6.613  0.00  0.00     0.029 A 
ATOM      8  C   UNL d   1      31.188 -16.795  -7.199  0.00  0.00     0.004 A 
ATOM      9  C   UNL d   1      31.387 -18.055  -6.609  0.00  0.00     0.029 A 
ATOM     10  C   UNL d   1      30.725 -18.361  -5.431  0.00  0.00     0.036 A 
ATOM     11  C   UNL d   1      29.904 -17.395  -4.864  0.00  0.00     0.059 A 
BRANCH  10  12
ATOM     12  N   UNL d   1      30.893 -19.582  -4.737  0.00  0.00    -0.326 N 
ATOM     13  C   UNL d   1      31.458 -19.636  -3.463  0.00  0.00     0.229 C 
ATOM     14  O   UNL d   1      31.702 -18.626  -2.789  0.00  0.00    -0.272 OA
ATOM     15  H   UNL d   1      30.535 -20.421  -5.172  0.00  0.00     0.169 HD
BRANCH  13  16
ATOM     16  C   UNL d   1      31.709 -21.029  -2.864  0.00  0.00     0.030 C 
ATOM     17  C   UNL d   1      31.417 -20.970  -1.347  0.00  0.00     0.025 C 
ATOM     18  C   UNL d   1      33.162 -21.474  -3.058  0.00  0.00     0.025 C 
ATOM     19  C   UNL d   1      30.756 -22.044  -3.502  0.00  0.00     0.025 C 
ENDBRANCH  13  16
ENDBRANCH  10  12
ENDBRANCH   3   6
ENDBRANCH   1   2
BRANCH   1  20
ATOM     20  N   UNL d   1      25.803 -14.532  -3.558  0.00  0.00    -0.381 N 
ATOM     21  H   UNL d   1      24.917 -14.011  -3.509  0.00  0.00     0.160 HD
BRANCH  20  22
ATOM     22  C   UNL d   1      26.008 -15.427  -2.536  0.00  0.00     0.030 A 
ATOM     23  C   UNL d   1      27.319 -15.787  -2.215  0.00  0.00     0.029 A 
ATOM     24  C   UNL d   1      27.585 -16.713  -1.207  0.00  0.00     0.005 A 
ATOM     25  C   UNL d   1      26.533 -17.259  -0.473  0.00  0.00     0.037 A 
ATOM     26  C   UNL d   1      25.218 -16.903  -0.771  0.00  0.00     0.070 A 
ATOM     27  C   UNL d   1      24.971 -15.979  -1.790  0.00  0.00     0.065 A 
BRANCH  26  28
ATOM     28  O   UNL d   1      24.242 -17.523  -0.032  0.00  0.00    -0.351 OA
BRANCH  28  29
ATOM     29  C   UNL d   1      22.925 -17.434  -0.578  0.00  0.00     0.176 C 
BRANCH  29  30
ATOM     30  C   UNL d   1      22.237 -18.779  -0.445  0.00  0.00     0.031 C 
BRANCH  30  31
ATOM     31  C   UNL d   1      20.776 -18.680  -0.891  0.00  0.00     0.041 C 
BRANCH  31  32
ATOM     32  C   UNL d   1      19.894 -19.458   0.046  0.00  0.00    -0.058 A 
ATOM     33  C   UNL d   1      20.230 -19.586   1.398  0.00  0.00     0.007 A 
ATOM     34  C   UNL d   1      19.509 -20.451   2.219  0.00  0.00     0.001 A 
ATOM     35  C   UNL d   1      18.401 -21.132   1.714  0.00  0.00     0.000 A 
ATOM     36  C   UNL d   1      18.032 -20.975   0.381  0.00  0.00     0.001 A 
ATOM     37  C   UNL d   1      18.778 -20.144  -0.452  0.00  0.00     0.007 A 
ENDBRANCH  31  32
ENDBRANCH  30  31
ENDBRANCH  29  30
ENDBRANCH  28  29
ENDBRANCH  26  28
ENDBRANCH  20  22
ENDBRANCH   1  20
TORSDOF 11
ENDMDL
MODEL 6
REMARK VINA RESULT:    -9.436      6.633     10.959
REMARK INTER + INTRA:         -14.571
REMARK INTER:                 -12.717
REMARK INTRA:                  -1.854
REMARK CONF_INDEPENDENT:        3.281
REMARK UNBOUND:                -1.854
REMARK  11 active torsions:
REMARK  status: ('A' for Active; 'I' for Inactive)
REMARK    1  A    between atoms: C_2  and  C_5 
REMARK       I    between atoms: C_5  and  N_7 
REMARK    2  A    between atoms: N_7  and  C_8 
REMARK    3  A    between atoms: C_12  and  N_13 
REMARK       I    between atoms: N_13  and  C_14 
REMARK    4  A    between atoms: C_14  and  C_16 
REMARK    5  A    between atoms: C_16  and  N_17 
REMARK    6  A    between atoms: N_17  and  C_18 
REMARK    7  A    between atoms: C_22  and  O_23 
REMARK    8  A    between atoms: O_23  and  C_24 
REMARK    9  A    between atoms: C_24  and  C_25 
REMARK   10  A    between atoms: C_25  and  C_26 
REMARK   11  A    between atoms: C_26  and  C_27 
ROOT
ATOM      1  C   UNL d   1      25.498 -13.999  -2.568  0.00  0.00     0.223 C 
ENDROOT
BRANCH   1   2
ATOM      2  C   UNL d   1      25.643 -13.358  -3.944  0.00  0.00     0.239 C 
ATOM      3  N   UNL d   1      26.062 -12.027  -3.983  0.00  0.00    -0.326 N 
ATOM      4  H   UNL d   1      26.277 -11.555  -3.113  0.00  0.00     0.169 HD
ATOM      5  O   UNL d   1      25.385 -14.076  -4.920  0.00  0.00    -0.271 OA
BRANCH   3   6
ATOM      6  C   UNL d   1      26.275 -11.297  -5.187  0.00  0.00     0.036 A 
ATOM      7  C   UNL d   1      27.001 -11.825  -6.256  0.00  0.00     0.029 A 
ATOM      8  C   UNL d   1      27.109 -11.091  -7.457  0.00  0.00     0.004 A 
ATOM      9  C   UNL d   1      26.529  -9.817  -7.587  0.00  0.00     0.029 A 
ATOM     10  C   UNL d   1      25.839  -9.277  -6.514  0.00  0.00     0.036 A 
ATOM     11  C   UNL d   1      25.728 -10.029  -5.352  0.00  0.00     0.059 A 
BRANCH  10  12
ATOM     12  N   UNL d   1      25.183  -8.024  -6.560  0.00  0.00    -0.326 N 
ATOM     13  C   UNL d   1      23.934  -7.823  -5.975  0.00  0.00     0.229 C 
ATOM     14  O   UNL d   1      23.386  -8.662  -5.245  0.00  0.00    -0.272 OA
ATOM     15  H   UNL d   1      25.677  -7.252  -6.985  0.00  0.00     0.169 HD
BRANCH  13  16
ATOM     16  C   UNL d   1      23.262  -6.458  -6.202  0.00  0.00     0.030 C 
ATOM     17  C   UNL d   1      22.179  -6.259  -5.118  0.00  0.00     0.025 C 
ATOM     18  C   UNL d   1      22.589  -6.382  -7.576  0.00  0.00     0.025 C 
ATOM     19  C   UNL d   1      24.302  -5.343  -6.059  0.00  0.00     0.025 C 
ENDBRANCH  13  16
ENDBRANCH  10  12
ENDBRANCH   3   6
ENDBRANCH   1   2
BRANCH   1  20
ATOM     20  N   UNL d   1      25.916 -15.401  -2.693  0.00  0.00    -0.381 N 
ATOM     21  H   UNL d   1      25.690 -15.804  -3.612  0.00  0.00     0.160 HD
BRANCH  20  22
ATOM     22  C   UNL d   1      25.993 -16.307  -1.664  0.00  0.00     0.030 A 
ATOM     23  C   UNL d   1      27.253 -16.646  -1.163  0.00  0.00     0.029 A 
ATOM     24  C   UNL d   1      27.393 -17.583  -0.138  0.00  0.00     0.005 A 
ATOM     25  C   UNL d   1      26.259 -18.162   0.429  0.00  0.00     0.037 A 
ATOM     26  C   UNL d   1      24.993 -17.828  -0.049  0.00  0.00     0.070 A 
ATOM     27  C   UNL d   1      24.873 -16.893  -1.081  0.00  0.00     0.065 A 
BRANCH  26  28
ATOM     28  O   UNL d   1      23.936 -18.480   0.534  0.00  0.00    -0.351 OA
BRANCH  28  29
ATOM     29  C   UNL d   1      22.646 -17.973   0.182  0.00  0.00     0.176 C 
BRANCH  29  30
ATOM     30  C   UNL d   1      21.971 -18.941  -0.770  0.00  0.00     0.031 C 
BRANCH  30  31
ATOM     31  C   UNL d   1      20.484 -18.609  -0.906  0.00  0.00     0.041 C 
BRANCH  31  32
ATOM     32  C   UNL d   1      19.674 -19.456   0.036  0.00  0.00    -0.058 A 
ATOM     33  C   UNL d   1      19.969 -19.480   1.404  0.00  0.00     0.007 A 
ATOM     34  C   UNL d   1      19.335 -20.398   2.239  0.00  0.00     0.001 A 
ATOM     35  C   UNL d   1      18.347 -21.241   1.730  0.00  0.00     0.000 A 
ATOM     36  C   UNL d   1      18.016 -21.192   0.378  0.00  0.00     0.001 A 
ATOM     37  C   UNL d   1      18.679 -20.305  -0.467  0.00  0.00     0.007 A 
ENDBRANCH  31  32
ENDBRANCH  30  31
ENDBRANCH  29  30
ENDBRANCH  28  29
ENDBRANCH  26  28
ENDBRANCH  20  22
ENDBRANCH   1  20
TORSDOF 11
ENDMDL
MODEL 7
REMARK VINA RESULT:    -8.807      2.361      3.956
REMARK INTER + INTRA:         -14.045
REMARK INTER:                 -12.089
REMARK INTRA:                  -1.956
REMARK CONF_INDEPENDENT:        3.281
REMARK UNBOUND:                -1.956
REMARK  11 active torsions:
REMARK  status: ('A' for Active; 'I' for Inactive)
REMARK    1  A    between atoms: C_2  and  C_5 
REMARK       I    between atoms: C_5  and  N_7 
REMARK    2  A    between atoms: N_7  and  C_8 
REMARK    3  A    between atoms: C_12  and  N_13 
REMARK       I    between atoms: N_13  and  C_14 
REMARK    4  A    between atoms: C_14  and  C_16 
REMARK    5  A    between atoms: C_16  and  N_17 
REMARK    6  A    between atoms: N_17  and  C_18 
REMARK    7  A    between atoms: C_22  and  O_23 
REMARK    8  A    between atoms: O_23  and  C_24 
REMARK    9  A    between atoms: C_24  and  C_25 
REMARK   10  A    between atoms: C_25  and  C_26 
REMARK   11  A    between atoms: C_26  and  C_27 
ROOT
ATOM      1  C   UNL d   1      28.598 -14.780   0.935  0.00  0.00     0.223 C 
ENDROOT
BRANCH   1   2
ATOM      2  C   UNL d   1      28.339 -13.987   2.213  0.00  0.00     0.239 C 
ATOM      3  N   UNL d   1      28.910 -14.476   3.389  0.00  0.00    -0.326 N 
ATOM      4  H   UNL d   1      29.487 -15.307   3.345  0.00  0.00     0.169 HD
ATOM      5  O   UNL d   1      27.648 -12.966   2.100  0.00  0.00    -0.271 OA
BRANCH   3   6
ATOM      6  C   UNL d   1      28.788 -13.837   4.655  0.00  0.00     0.036 A 
ATOM      7  C   UNL d   1      28.918 -14.537   5.855  0.00  0.00     0.029 A 
ATOM      8  C   UNL d   1      28.872 -13.837   7.081  0.00  0.00     0.004 A 
ATOM      9  C   UNL d   1      28.659 -12.448   7.120  0.00  0.00     0.029 A 
ATOM     10  C   UNL d   1      28.493 -11.758   5.930  0.00  0.00     0.036 A 
ATOM     11  C   UNL d   1      28.567 -12.466   4.738  0.00  0.00     0.059 A 
BRANCH  10  12
ATOM     12  N   UNL d   1      28.319 -10.355   5.860  0.00  0.00    -0.326 N 
ATOM     13  C   UNL d   1      29.392  -9.487   5.669  0.00  0.00     0.229 C 
ATOM     14  O   UNL d   1      30.535  -9.876   5.388  0.00  0.00    -0.272 OA
ATOM     15  H   UNL d   1      27.375  -9.999   5.897  0.00  0.00     0.169 HD
BRANCH  13  16
ATOM     16  C   UNL d   1      29.099  -7.979   5.741  0.00  0.00     0.030 C 
ATOM     17  C   UNL d   1      30.157  -7.233   4.898  0.00  0.00     0.025 C 
ATOM     18  C   UNL d   1      29.173  -7.458   7.180  0.00  0.00     0.025 C 
ATOM     19  C   UNL d   1      27.717  -7.695   5.146  0.00  0.00     0.025 C 
ENDBRANCH  13  16
ENDBRANCH  10  12
ENDBRANCH   3   6
ENDBRANCH   1   2
BRANCH   1  20
ATOM     20  N   UNL d   1      27.785 -14.175  -0.126  0.00  0.00    -0.381 N 
ATOM     21  H   UNL d   1      27.517 -13.203   0.082  0.00  0.00     0.160 HD
BRANCH  20  22
ATOM     22  C   UNL d   1      26.925 -14.849  -0.959  0.00  0.00     0.030 A 
ATOM     23  C   UNL d   1      27.105 -14.736  -2.340  0.00  0.00     0.029 A 
ATOM     24  C   UNL d   1      26.244 -15.375  -3.233  0.00  0.00     0.005 A 
ATOM     25  C   UNL d   1      25.213 -16.177  -2.746  0.00  0.00     0.037 A 
ATOM     26  C   UNL d   1      25.025 -16.311  -1.372  0.00  0.00     0.070 A 
ATOM     27  C   UNL d   1      25.893 -15.657  -0.493  0.00  0.00     0.065 A 
BRANCH  26  28
ATOM     28  O   UNL d   1      23.958 -17.080  -0.980  0.00  0.00    -0.351 OA
BRANCH  28  29
ATOM     29  C   UNL d   1      24.297 -18.388  -0.512  0.00  0.00     0.176 C 
BRANCH  29  30
ATOM     30  C   UNL d   1      23.038 -19.228  -0.423  0.00  0.00     0.031 C 
BRANCH  30  31
ATOM     31  C   UNL d   1      21.955 -18.490   0.366  0.00  0.00     0.041 C 
BRANCH  31  32
ATOM     32  C   UNL d   1      20.722 -19.344   0.479  0.00  0.00    -0.058 A 
ATOM     33  C   UNL d   1      19.968 -19.659  -0.657  0.00  0.00     0.007 A 
ATOM     34  C   UNL d   1      18.735 -20.297  -0.522  0.00  0.00     0.001 A 
ATOM     35  C   UNL d   1      18.287 -20.693   0.737  0.00  0.00     0.000 A 
ATOM     36  C   UNL d   1      19.054 -20.423   1.868  0.00  0.00     0.001 A 
ATOM     37  C   UNL d   1      20.264 -19.747   1.741  0.00  0.00     0.007 A 
ENDBRANCH  31  32
ENDBRANCH  30  31
ENDBRANCH  29  30
ENDBRANCH  28  29
ENDBRANCH  26  28
ENDBRANCH  20  22
ENDBRANCH   1  20
TORSDOF 11
ENDMDL
MODEL 8
REMARK VINA RESULT:    -8.458      3.220      5.558
REMARK INTER + INTRA:         -14.185
REMARK INTER:                 -11.740
REMARK INTRA:                  -2.446
REMARK CONF_INDEPENDENT:        3.281
REMARK UNBOUND:                -2.446
REMARK  11 active torsions:
REMARK  status: ('A' for Active; 'I' for Inactive)
REMARK    1  A    between atoms: C_2  and  C_5 
REMARK       I    between atoms: C_5  and  N_7 
REMARK    2  A    between atoms: N_7  and  C_8 
REMARK    3  A    between atoms: C_12  and  N_13 
REMARK       I    between atoms: N_13  and  C_14 
REMARK    4  A    between atoms: C_14  and  C_16 
REMARK    5  A    between atoms: C_16  and  N_17 
REMARK    6  A    between atoms: N_17  and  C_18 
REMARK    7  A    between atoms: C_22  and  O_23 
REMARK    8  A    between atoms: O_23  and  C_24 
REMARK    9  A    between atoms: C_24  and  C_25 
REMARK   10  A    between atoms: C_25  and  C_26 
REMARK   11  A    between atoms: C_26  and  C_27 
ROOT
ATOM      1  C   UNL d   1      28.116 -15.235   1.429  0.00  0.00     0.223 C 
ENDROOT
BRANCH   1   2
ATOM      2  C   UNL d   1      27.888 -14.318   2.626  0.00  0.00     0.239 C 
ATOM      3  N   UNL d   1      28.592 -14.614   3.795  0.00  0.00    -0.326 N 
ATOM      4  H   UNL d   1      29.237 -15.395   3.795  0.00  0.00     0.169 HD
ATOM      5  O   UNL d   1      27.099 -13.377   2.461  0.00  0.00    -0.271 OA
BRANCH   3   6
ATOM      6  C   UNL d   1      28.512 -13.838   4.986  0.00  0.00     0.036 A 
ATOM      7  C   UNL d   1      28.011 -12.536   4.992  0.00  0.00     0.029 A 
ATOM      8  C   UNL d   1      27.877 -11.843   6.215  0.00  0.00     0.004 A 
ATOM      9  C   UNL d   1      28.273 -12.428   7.430  0.00  0.00     0.029 A 
ATOM     10  C   UNL d   1      28.804 -13.708   7.422  0.00  0.00     0.036 A 
ATOM     11  C   UNL d   1      28.904 -14.375   6.208  0.00  0.00     0.059 A 
BRANCH  10  12
ATOM     12  N   UNL d   1      29.190 -14.399   8.594  0.00  0.00    -0.326 N 
ATOM     13  C   UNL d   1      29.591 -13.728   9.749  0.00  0.00     0.229 C 
ATOM     14  O   UNL d   1      29.487 -12.502   9.888  0.00  0.00    -0.272 OA
ATOM     15  H   UNL d   1      29.112 -15.406   8.591  0.00  0.00     0.169 HD
BRANCH  13  16
ATOM     16  C   UNL d   1      30.111 -14.585  10.915  0.00  0.00     0.030 C 
ATOM     17  C   UNL d   1      30.559 -15.954  10.356  0.00  0.00     0.025 C 
ATOM     18  C   UNL d   1      29.024 -14.825  11.967  0.00  0.00     0.025 C 
ATOM     19  C   UNL d   1      31.323 -13.901  11.554  0.00  0.00     0.025 C 
ENDBRANCH  13  16
ENDBRANCH  10  12
ENDBRANCH   3   6
ENDBRANCH   1   2
BRANCH   1  20
ATOM     20  N   UNL d   1      27.531 -14.576   0.256  0.00  0.00    -0.381 N 
ATOM     21  H   UNL d   1      27.450 -13.556   0.371  0.00  0.00     0.160 HD
BRANCH  20  22
ATOM     22  C   UNL d   1      26.622 -15.137  -0.608  0.00  0.00     0.030 A 
ATOM     23  C   UNL d   1      26.222 -16.458  -0.392  0.00  0.00     0.029 A 
ATOM     24  C   UNL d   1      25.324 -17.089  -1.254  0.00  0.00     0.005 A 
ATOM     25  C   UNL d   1      24.779 -16.381  -2.324  0.00  0.00     0.037 A 
ATOM     26  C   UNL d   1      25.158 -15.058  -2.549  0.00  0.00     0.070 A 
ATOM     27  C   UNL d   1      26.064 -14.446  -1.678  0.00  0.00     0.065 A 
BRANCH  26  28
ATOM     28  O   UNL d   1      24.610 -14.452  -3.651  0.00  0.00    -0.351 OA
BRANCH  28  29
ATOM     29  C   UNL d   1      25.556 -13.955  -4.599  0.00  0.00     0.176 C 
BRANCH  29  30
ATOM     30  C   UNL d   1      26.281 -15.122  -5.241  0.00  0.00     0.031 C 
BRANCH  30  31
ATOM     31  C   UNL d   1      27.708 -14.724  -5.621  0.00  0.00     0.041 C 
BRANCH  31  32
ATOM     32  C   UNL d   1      28.701 -15.575  -4.877  0.00  0.00    -0.058 A 
ATOM     33  C   UNL d   1      29.659 -16.321  -5.571  0.00  0.00     0.007 A 
ATOM     34  C   UNL d   1      30.455 -17.242  -4.891  0.00  0.00     0.001 A 
ATOM     35  C   UNL d   1      30.353 -17.364  -3.505  0.00  0.00     0.000 A 
ATOM     36  C   UNL d   1      29.433 -16.592  -2.802  0.00  0.00     0.001 A 
ATOM     37  C   UNL d   1      28.606 -15.704  -3.485  0.00  0.00     0.007 A 
ENDBRANCH  31  32
ENDBRANCH  30  31
ENDBRANCH  29  30
ENDBRANCH  28  29
ENDBRANCH  26  28
ENDBRANCH  20  22
ENDBRANCH   1  20
TORSDOF 11
ENDMDL
MODEL 9
REMARK VINA RESULT:    -7.667      3.675      9.313
REMARK INTER + INTRA:         -14.234
REMARK INTER:                 -10.948
REMARK INTRA:                  -3.286
REMARK CONF_INDEPENDENT:        3.281
REMARK UNBOUND:                -3.286
REMARK  11 active torsions:
REMARK  status: ('A' for Active; 'I' for Inactive)
REMARK    1  A    between atoms: C_2  and  C_5 
REMARK       I    between atoms: C_5  and  N_7 
REMARK    2  A    between atoms: N_7  and  C_8 
REMARK    3  A    between atoms: C_12  and  N_13 
REMARK       I    between atoms: N_13  and  C_14 
REMARK    4  A    between atoms: C_14  and  C_16 
REMARK    5  A    between atoms: C_16  and  N_17 
REMARK    6  A    between atoms: N_17  and  C_18 
REMARK    7  A    between atoms: C_22  and  O_23 
REMARK    8  A    between atoms: O_23  and  C_24 
REMARK    9  A    between atoms: C_24  and  C_25 
REMARK   10  A    between atoms: C_25  and  C_26 
REMARK   11  A    between atoms: C_26  and  C_27 
ROOT
ATOM      1  C   UNL d   1      32.107 -14.579   2.436  0.00  0.00     0.223 C 
ENDROOT
BRANCH   1   2
ATOM      2  C   UNL d   1      31.208 -14.593   1.204  0.00  0.00     0.239 C 
ATOM      3  N   UNL d   1      30.456 -15.747   0.981  0.00  0.00    -0.326 N 
ATOM      4  H   UNL d   1      30.513 -16.506   1.649  0.00  0.00     0.169 HD
ATOM      5  O   UNL d   1      31.213 -13.571   0.504  0.00  0.00    -0.271 OA
BRANCH   3   6
ATOM      6  C   UNL d   1      29.548 -15.904  -0.104  0.00  0.00     0.036 A 
ATOM      7  C   UNL d   1      29.906 -15.609  -1.420  0.00  0.00     0.029 A 
ATOM      8  C   UNL d   1      28.994 -15.863  -2.467  0.00  0.00     0.004 A 
ATOM      9  C   UNL d   1      27.711 -16.376  -2.207  0.00  0.00     0.029 A 
ATOM     10  C   UNL d   1      27.341 -16.636  -0.898  0.00  0.00     0.036 A 
ATOM     11  C   UNL d   1      28.266 -16.399   0.111  0.00  0.00     0.059 A 
BRANCH  10  12
ATOM     12  N   UNL d   1      26.092 -17.194  -0.537  0.00  0.00    -0.326 N 
ATOM     13  C   UNL d   1      24.973 -17.095  -1.362  0.00  0.00     0.229 C 
ATOM     14  O   UNL d   1      25.025 -16.662  -2.522  0.00  0.00    -0.272 OA
ATOM     15  H   UNL d   1      26.047 -17.724   0.322  0.00  0.00     0.169 HD
BRANCH  13  16
ATOM     16  C   UNL d   1      23.641 -17.625  -0.807  0.00  0.00     0.030 C 
ATOM     17  C   UNL d   1      23.892 -18.200   0.605  0.00  0.00     0.025 C 
ATOM     18  C   UNL d   1      23.068 -18.741  -1.687  0.00  0.00     0.025 C 
ATOM     19  C   UNL d   1      22.637 -16.475  -0.692  0.00  0.00     0.025 C 
ENDBRANCH  13  16
ENDBRANCH  10  12
ENDBRANCH   3   6
ENDBRANCH   1   2
BRANCH   1  20
ATOM     20  N   UNL d   1      31.405 -13.825   3.481  0.00  0.00    -0.381 N 
ATOM     21  H   UNL d   1      32.027 -13.528   4.245  0.00  0.00     0.160 HD
BRANCH  20  22
ATOM     22  C   UNL d   1      30.087 -13.984   3.834  0.00  0.00     0.030 A 
ATOM     23  C   UNL d   1      29.788 -14.648   5.026  0.00  0.00     0.029 A 
ATOM     24  C   UNL d   1      28.467 -14.864   5.420  0.00  0.00     0.005 A 
ATOM     25  C   UNL d   1      27.424 -14.371   4.638  0.00  0.00     0.037 A 
ATOM     26  C   UNL d   1      27.702 -13.695   3.451  0.00  0.00     0.070 A 
ATOM     27  C   UNL d   1      29.032 -13.496   3.070  0.00  0.00     0.065 A 
BRANCH  26  28
ATOM     28  O   UNL d   1      26.615 -13.286   2.719  0.00  0.00    -0.351 OA
BRANCH  28  29
ATOM     29  C   UNL d   1      26.653 -13.638   1.335  0.00  0.00     0.176 C 
BRANCH  29  30
ATOM     30  C   UNL d   1      27.057 -12.423   0.522  0.00  0.00     0.031 C 
BRANCH  30  31
ATOM     31  C   UNL d   1      27.806 -12.850  -0.743  0.00  0.00     0.041 C 
BRANCH  31  32
ATOM     32  C   UNL d   1      26.878 -12.831  -1.927  0.00  0.00    -0.058 A 
ATOM     33  C   UNL d   1      25.891 -13.812  -2.072  0.00  0.00     0.007 A 
ATOM     34  C   UNL d   1      25.157 -13.894  -3.254  0.00  0.00     0.001 A 
ATOM     35  C   UNL d   1      25.348 -12.950  -4.263  0.00  0.00     0.000 A 
ATOM     36  C   UNL d   1      26.297 -11.943  -4.106  0.00  0.00     0.001 A 
ATOM     37  C   UNL d   1      27.063 -11.886  -2.945  0.00  0.00     0.007 A 
ENDBRANCH  31  32
ENDBRANCH  30  31
ENDBRANCH  29  30
ENDBRANCH  28  29
ENDBRANCH  26  28
ENDBRANCH  20  22
ENDBRANCH   1  20
TORSDOF 11
ENDMDL
