MODEL 1
REMARK VINA RESULT:    -9.881      0.000      0.000
REMARK INTER + INTRA:         -11.744
REMARK INTER:                 -11.372
REMARK INTRA:                  -0.371
REMARK CONF_INDEPENDENT:        1.492
REMARK UNBOUND:                -0.371
REMARK  5 active torsions:
REMARK  status: ('A' for Active; 'I' for Inactive)
REMARK    1  A    between atoms: C_6  and  C_7 
REMARK    2  A    between atoms: C_10  and  N_11 
REMARK    3  A    between atoms: N_11  and  C_12 
REMARK    4  A    between atoms: C_16  and  C_17 
REMARK       I    between atoms: C_17  and  N_19 
REMARK    5  A    between atoms: N_19  and  C_20 
ROOT
ATOM      1  N   UNL d   1      24.901 -15.225  -2.051  0.00  0.00    -0.188 N 
ATOM      2  H   UNL d   1      24.329 -14.398  -2.011  0.00  0.00     0.184 HD
ENDROOT
BRANCH   1   3
ATOM      3  C   UNL d   1      25.928 -15.157  -2.988  0.00  0.00     0.726 A 
ATOM      4  N   UNL d   1      25.611 -15.230  -4.292  0.00  0.00    -0.074 NA
ATOM      5  C   UNL d   1      26.644 -15.178  -5.170  0.00  0.00     0.150 A 
ATOM      6  C   UNL d   1      27.975 -15.066  -4.812  0.00  0.00     0.010 A 
ATOM      7  C   UNL d   1      28.179 -15.014  -3.454  0.00  0.00     0.150 A 
ATOM      8  N   UNL d   1      27.192 -15.052  -2.545  0.00  0.00    -0.074 NA
BRANCH   6   9
ATOM      9  C   UNL d   1      29.075 -14.991  -5.767  0.00  0.00    -0.023 A 
ATOM     10  C   UNL d   1      29.439 -13.769  -6.351  0.00  0.00     0.012 A 
ATOM     11  C   UNL d   1      30.474 -13.704  -7.283  0.00  0.00     0.001 A 
ATOM     12  C   UNL d   1      31.161 -14.862  -7.644  0.00  0.00     0.007 A 
ATOM     13  C   UNL d   1      30.820 -16.092  -7.077  0.00  0.00    -0.061 A 
ATOM     14  C   UNL d   1      31.556 -17.346  -7.445  0.00  0.00     0.048 C 
ATOM     15  C   UNL d   1      29.776 -16.148  -6.143  0.00  0.00     0.019 A 
ENDBRANCH   6   9
ENDBRANCH   1   3
BRANCH   1  16
ATOM     16  C   UNL d   1      24.579 -16.334  -1.257  0.00  0.00     0.050 A 
ATOM     17  C   UNL d   1      25.593 -17.046  -0.604  0.00  0.00     0.030 A 
ATOM     18  C   UNL d   1      25.307 -18.191   0.133  0.00  0.00     0.003 A 
ATOM     19  C   UNL d   1      23.998 -18.661   0.210  0.00  0.00     0.017 A 
ATOM     20  C   UNL d   1      22.962 -17.982  -0.440  0.00  0.00     0.034 A 
ATOM     21  C   UNL d   1      23.264 -16.811  -1.169  0.00  0.00     0.047 A 
BRANCH  20  22
ATOM     22  C   UNL d   1      21.543 -18.464  -0.406  0.00  0.00     0.252 C 
ATOM     23  O   UNL d   1      20.662 -17.756  -0.896  0.00  0.00    -0.268 OA
ATOM     24  N   UNL d   1      21.274 -19.694   0.174  0.00  0.00    -0.353 N 
ATOM     25  H   UNL d   1      22.008 -20.232   0.605  0.00  0.00     0.163 HD
BRANCH  24  26
ATOM     26  C   UNL d   1      19.925 -20.256   0.230  0.00  0.00     0.076 C 
ATOM     27  C   UNL d   1      19.256 -19.954   1.571  0.00  0.00     0.032 C 
ATOM     28  C   UNL d   1      19.047 -19.700  -0.895  0.00  0.00     0.032 C 
ENDBRANCH  24  26
ENDBRANCH  20  22
ENDBRANCH   1  16
TORSDOF 5
ENDMDL
MODEL 2
REMARK VINA RESULT:    -9.766      0.350      1.392
REMARK INTER + INTRA:         -11.680
REMARK INTER:                 -11.258
REMARK INTRA:                  -0.422
REMARK CONF_INDEPENDENT:        1.492
REMARK UNBOUND:                -0.422
REMARK  5 active torsions:
REMARK  status: ('A' for Active; 'I' for Inactive)
REMARK    1  A    between atoms: C_6  and  C_7 
REMARK    2  A    between atoms: C_10  and  N_11 
REMARK    3  A    between atoms: N_11  and  C_12 
REMARK    4  A    between atoms: C_16  and  C_17 
REMARK       I    between atoms: C_17  and  N_19 
REMARK    5  A    between atoms: N_19  and  C_20 
ROOT
ATOM      1  N   UNL d   1      24.830 -15.200  -2.216  0.00  0.00    -0.188 N 
ATOM      2  H   UNL d   1      24.222 -14.398  -2.215  0.00  0.00     0.184 HD
ENDROOT
BRANCH   1   3
ATOM      3  C   UNL d   1      25.869 -15.121  -3.140  0.00  0.00     0.726 A 
ATOM      4  N   UNL d   1      25.579 -15.265  -4.443  0.00  0.00    -0.074 NA
ATOM      5  C   UNL d   1      26.623 -15.199  -5.307  0.00  0.00     0.150 A 
ATOM      6  C   UNL d   1      27.940 -15.006  -4.934  0.00  0.00     0.010 A 
ATOM      7  C   UNL d   1      28.118 -14.885  -3.576  0.00  0.00     0.150 A 
ATOM      8  N   UNL d   1      27.118 -14.933  -2.682  0.00  0.00    -0.074 NA
BRANCH   6   9
ATOM      9  C   UNL d   1      29.052 -14.916  -5.874  0.00  0.00    -0.023 A 
ATOM     10  C   UNL d   1      29.870 -16.027  -6.128  0.00  0.00     0.012 A 
ATOM     11  C   UNL d   1      30.949 -15.932  -7.007  0.00  0.00     0.001 A 
ATOM     12  C   UNL d   1      31.225 -14.723  -7.645  0.00  0.00     0.007 A 
ATOM     13  C   UNL d   1      30.425 -13.602  -7.409  0.00  0.00    -0.061 A 
ATOM     14  C   UNL d   1      30.700 -12.297  -8.096  0.00  0.00     0.048 C 
ATOM     15  C   UNL d   1      29.345 -13.706  -6.523  0.00  0.00     0.019 A 
ENDBRANCH   6   9
ENDBRANCH   1   3
BRANCH   1  16
ATOM     16  C   UNL d   1      24.543 -16.293  -1.387  0.00  0.00     0.050 A 
ATOM     17  C   UNL d   1      25.581 -16.971  -0.737  0.00  0.00     0.030 A 
ATOM     18  C   UNL d   1      25.330 -18.101   0.034  0.00  0.00     0.003 A 
ATOM     19  C   UNL d   1      24.031 -18.591   0.151  0.00  0.00     0.017 A 
ATOM     20  C   UNL d   1      22.970 -17.945  -0.496  0.00  0.00     0.034 A 
ATOM     21  C   UNL d   1      23.238 -16.788  -1.260  0.00  0.00     0.047 A 
BRANCH  20  22
ATOM     22  C   UNL d   1      21.560 -18.449  -0.420  0.00  0.00     0.252 C 
ATOM     23  O   UNL d   1      20.656 -17.761  -0.895  0.00  0.00    -0.268 OA
ATOM     24  N   UNL d   1      21.326 -19.677   0.181  0.00  0.00    -0.353 N 
ATOM     25  H   UNL d   1      22.079 -20.197   0.599  0.00  0.00     0.163 HD
BRANCH  24  26
ATOM     26  C   UNL d   1      19.988 -20.259   0.277  0.00  0.00     0.076 C 
ATOM     27  C   UNL d   1      19.326 -19.904   1.608  0.00  0.00     0.032 C 
ATOM     28  C   UNL d   1      19.090 -19.774  -0.865  0.00  0.00     0.032 C 
ENDBRANCH  24  26
ENDBRANCH  20  22
ENDBRANCH   1  16
TORSDOF 5
ENDMDL
MODEL 3
REMARK VINA RESULT:    -9.379      3.444      4.668
REMARK INTER + INTRA:         -11.492
REMARK INTER:                 -10.870
REMARK INTRA:                  -0.621
REMARK CONF_INDEPENDENT:        1.492
REMARK UNBOUND:                -0.621
REMARK  5 active torsions:
REMARK  status: ('A' for Active; 'I' for Inactive)
REMARK    1  A    between atoms: C_6  and  C_7 
REMARK    2  A    between atoms: C_10  and  N_11 
REMARK    3  A    between atoms: N_11  and  C_12 
REMARK    4  A    between atoms: C_16  and  C_17 
REMARK       I    between atoms: C_17  and  N_19 
REMARK    5  A    between atoms: N_19  and  C_20 
ROOT
ATOM      1  N   UNL d   1      25.881 -16.158  -2.869  0.00  0.00    -0.188 N 
ATOM      2  H   UNL d   1      26.385 -16.700  -3.551  0.00  0.00     0.184 HD
ENDROOT
BRANCH   1   3
ATOM      3  C   UNL d   1      25.834 -14.795  -3.152  0.00  0.00     0.726 A 
ATOM      4  N   UNL d   1      25.154 -14.391  -4.238  0.00  0.00    -0.074 NA
ATOM      5  C   UNL d   1      25.150 -13.057  -4.487  0.00  0.00     0.150 A 
ATOM      6  C   UNL d   1      25.796 -12.111  -3.713  0.00  0.00     0.010 A 
ATOM      7  C   UNL d   1      26.469 -12.642  -2.639  0.00  0.00     0.150 A 
ATOM      8  N   UNL d   1      26.497 -13.951  -2.344  0.00  0.00    -0.074 NA
BRANCH   6   9
ATOM      9  C   UNL d   1      25.767 -10.677  -3.980  0.00  0.00    -0.023 A 
ATOM     10  C   UNL d   1      25.697 -10.191  -5.294  0.00  0.00     0.012 A 
ATOM     11  C   UNL d   1      25.697  -8.819  -5.548  0.00  0.00     0.001 A 
ATOM     12  C   UNL d   1      25.766  -7.914  -4.490  0.00  0.00     0.007 A 
ATOM     13  C   UNL d   1      25.836  -8.372  -3.172  0.00  0.00    -0.061 A 
ATOM     14  C   UNL d   1      25.899  -7.412  -2.022  0.00  0.00     0.048 C 
ATOM     15  C   UNL d   1      25.838  -9.752  -2.927  0.00  0.00     0.019 A 
ENDBRANCH   6   9
ENDBRANCH   1   3
BRANCH   1  16
ATOM     16  C   UNL d   1      25.370 -16.782  -1.723  0.00  0.00     0.050 A 
ATOM     17  C   UNL d   1      26.232 -17.151  -0.683  0.00  0.00     0.030 A 
ATOM     18  C   UNL d   1      25.761 -17.835   0.433  0.00  0.00     0.003 A 
ATOM     19  C   UNL d   1      24.415 -18.186   0.518  0.00  0.00     0.017 A 
ATOM     20  C   UNL d   1      23.528 -17.844  -0.508  0.00  0.00     0.034 A 
ATOM     21  C   UNL d   1      24.017 -17.134  -1.626  0.00  0.00     0.047 A 
BRANCH  20  22
ATOM     22  C   UNL d   1      22.078 -18.222  -0.473  0.00  0.00     0.252 C 
ATOM     23  O   UNL d   1      21.243 -17.421  -0.895  0.00  0.00    -0.268 OA
ATOM     24  N   UNL d   1      21.728 -19.465   0.033  0.00  0.00    -0.353 N 
ATOM     25  H   UNL d   1      22.428 -20.082   0.412  0.00  0.00     0.163 HD
BRANCH  24  26
ATOM     26  C   UNL d   1      20.343 -19.929   0.085  0.00  0.00     0.076 C 
ATOM     27  C   UNL d   1      19.613 -19.356   1.299  0.00  0.00     0.032 C 
ATOM     28  C   UNL d   1      19.578 -19.530  -1.182  0.00  0.00     0.032 C 
ENDBRANCH  24  26
ENDBRANCH  20  22
ENDBRANCH   1  16
TORSDOF 5
ENDMDL
MODEL 4
REMARK VINA RESULT:    -9.308      2.362     10.113
REMARK INTER + INTRA:         -11.435
REMARK INTER:                 -10.800
REMARK INTRA:                  -0.635
REMARK CONF_INDEPENDENT:        1.492
REMARK UNBOUND:                -0.635
REMARK  5 active torsions:
REMARK  status: ('A' for Active; 'I' for Inactive)
REMARK    1  A    between atoms: C_6  and  C_7 
REMARK    2  A    between atoms: C_10  and  N_11 
REMARK    3  A    between atoms: N_11  and  C_12 
REMARK    4  A    between atoms: C_16  and  C_17 
REMARK       I    between atoms: C_17  and  N_19 
REMARK    5  A    between atoms: N_19  and  C_20 
ROOT
ATOM      1  N   UNL d   1      25.624 -16.460  -1.430  0.00  0.00    -0.188 N 
ATOM      2  H   UNL d   1      26.435 -16.803  -0.943  0.00  0.00     0.184 HD
ENDROOT
BRANCH   1   3
ATOM      3  C   UNL d   1      24.440 -17.104  -1.079  0.00  0.00     0.726 A 
ATOM      4  N   UNL d   1      23.340 -16.359  -0.884  0.00  0.00    -0.074 NA
ATOM      5  C   UNL d   1      22.214 -17.024  -0.525  0.00  0.00     0.150 A 
ATOM      6  C   UNL d   1      22.134 -18.392  -0.342  0.00  0.00     0.010 A 
ATOM      7  C   UNL d   1      23.323 -19.048  -0.555  0.00  0.00     0.150 A 
ATOM      8  N   UNL d   1      24.461 -18.438  -0.920  0.00  0.00    -0.074 NA
BRANCH   6   9
ATOM      9  C   UNL d   1      20.912 -19.099   0.025  0.00  0.00    -0.023 A 
ATOM     10  C   UNL d   1      19.949 -19.422  -0.942  0.00  0.00     0.012 A 
ATOM     11  C   UNL d   1      18.769 -20.074  -0.584  0.00  0.00     0.001 A 
ATOM     12  C   UNL d   1      18.536 -20.413   0.747  0.00  0.00     0.007 A 
ATOM     13  C   UNL d   1      19.479 -20.105   1.730  0.00  0.00    -0.061 A 
ATOM     14  C   UNL d   1      19.250 -20.474   3.166  0.00  0.00     0.048 C 
ATOM     15  C   UNL d   1      20.660 -19.447   1.362  0.00  0.00     0.019 A 
ENDBRANCH   6   9
ENDBRANCH   1   3
BRANCH   1  16
ATOM     16  C   UNL d   1      25.768 -15.475  -2.416  0.00  0.00     0.050 A 
ATOM     17  C   UNL d   1      24.825 -14.446  -2.521  0.00  0.00     0.030 A 
ATOM     18  C   UNL d   1      24.906 -13.497  -3.535  0.00  0.00     0.003 A 
ATOM     19  C   UNL d   1      25.924 -13.575  -4.483  0.00  0.00     0.017 A 
ATOM     20  C   UNL d   1      26.877 -14.598  -4.416  0.00  0.00     0.034 A 
ATOM     21  C   UNL d   1      26.792 -15.543  -3.370  0.00  0.00     0.047 A 
BRANCH  20  22
ATOM     22  C   UNL d   1      27.975 -14.737  -5.427  0.00  0.00     0.252 C 
ATOM     23  O   UNL d   1      27.739 -15.317  -6.487  0.00  0.00    -0.268 OA
ATOM     24  N   UNL d   1      29.220 -14.203  -5.131  0.00  0.00    -0.353 N 
ATOM     25  H   UNL d   1      29.397 -13.772  -4.239  0.00  0.00     0.163 HD
BRANCH  24  26
ATOM     26  C   UNL d   1      30.343 -14.269  -6.065  0.00  0.00     0.076 C 
ATOM     27  C   UNL d   1      30.578 -15.700  -6.546  0.00  0.00     0.032 C 
ATOM     28  C   UNL d   1      30.103 -13.372  -7.284  0.00  0.00     0.032 C 
ENDBRANCH  24  26
ENDBRANCH  20  22
ENDBRANCH   1  16
TORSDOF 5
ENDMDL
MODEL 5
REMARK VINA RESULT:    -9.256      4.093      9.446
REMARK INTER + INTRA:         -11.463
REMARK INTER:                 -10.747
REMARK INTRA:                  -0.716
REMARK CONF_INDEPENDENT:        1.492
REMARK UNBOUND:                -0.716
REMARK  5 active torsions:
REMARK  status: ('A' for Active; 'I' for Inactive)
REMARK    1  A    between atoms: C_6  and  C_7 
REMARK    2  A    between atoms: C_10  and  N_11 
REMARK    3  A    between atoms: N_11  and  C_12 
REMARK    4  A    between atoms: C_16  and  C_17 
REMARK       I    between atoms: C_17  and  N_19 
REMARK    5  A    between atoms: N_19  and  C_20 
ROOT
ATOM      1  N   UNL d   1      25.409 -15.951  -1.722  0.00  0.00    -0.188 N 
ATOM      2  H   UNL d   1      25.273 -15.436  -2.575  0.00  0.00     0.184 HD
ENDROOT
BRANCH   1   3
ATOM      3  C   UNL d   1      24.310 -16.718  -1.343  0.00  0.00     0.726 A 
ATOM      4  N   UNL d   1      24.373 -18.050  -1.507  0.00  0.00    -0.074 NA
ATOM      5  C   UNL d   1      23.274 -18.757  -1.142  0.00  0.00     0.150 A 
ATOM      6  C   UNL d   1      22.115 -18.201  -0.633  0.00  0.00     0.010 A 
ATOM      7  C   UNL d   1      22.162 -16.831  -0.524  0.00  0.00     0.150 A 
ATOM      8  N   UNL d   1      23.226 -16.088  -0.861  0.00  0.00    -0.074 NA
BRANCH   6   9
ATOM      9  C   UNL d   1      20.947 -18.974  -0.226  0.00  0.00    -0.023 A 
ATOM     10  C   UNL d   1      19.968 -19.344  -1.160  0.00  0.00     0.012 A 
ATOM     11  C   UNL d   1      18.838 -20.060  -0.764  0.00  0.00     0.001 A 
ATOM     12  C   UNL d   1      18.673 -20.417   0.574  0.00  0.00     0.007 A 
ATOM     13  C   UNL d   1      19.633 -20.062   1.524  0.00  0.00    -0.061 A 
ATOM     14  C   UNL d   1      19.477 -20.448   2.965  0.00  0.00     0.048 C 
ATOM     15  C   UNL d   1      20.764 -19.340   1.117  0.00  0.00     0.019 A 
ENDBRANCH   6   9
ENDBRANCH   1   3
BRANCH   1  16
ATOM     16  C   UNL d   1      26.597 -15.794  -0.996  0.00  0.00     0.050 A 
ATOM     17  C   UNL d   1      27.760 -16.460  -1.404  0.00  0.00     0.030 A 
ATOM     18  C   UNL d   1      28.934 -16.378  -0.662  0.00  0.00     0.003 A 
ATOM     19  C   UNL d   1      28.960 -15.643   0.521  0.00  0.00     0.017 A 
ATOM     20  C   UNL d   1      27.813 -14.975   0.966  0.00  0.00     0.034 A 
ATOM     21  C   UNL d   1      26.634 -15.053   0.192  0.00  0.00     0.047 A 
BRANCH  20  22
ATOM     22  C   UNL d   1      27.786 -14.194   2.245  0.00  0.00     0.252 C 
ATOM     23  O   UNL d   1      27.001 -13.252   2.351  0.00  0.00    -0.268 OA
ATOM     24  N   UNL d   1      28.647 -14.566   3.267  0.00  0.00    -0.353 N 
ATOM     25  H   UNL d   1      29.308 -15.313   3.137  0.00  0.00     0.163 HD
BRANCH  24  26
ATOM     26  C   UNL d   1      28.673 -13.878   4.558  0.00  0.00     0.076 C 
ATOM     27  C   UNL d   1      27.285 -13.846   5.195  0.00  0.00     0.032 C 
ATOM     28  C   UNL d   1      29.645 -14.558   5.527  0.00  0.00     0.032 C 
ENDBRANCH  24  26
ENDBRANCH  20  22
ENDBRANCH   1  16
TORSDOF 5
ENDMDL
MODEL 6
REMARK VINA RESULT:    -9.007      2.787      9.570
REMARK INTER + INTRA:         -11.259
REMARK INTER:                 -10.499
REMARK INTRA:                  -0.760
REMARK CONF_INDEPENDENT:        1.492
REMARK UNBOUND:                -0.760
REMARK  5 active torsions:
REMARK  status: ('A' for Active; 'I' for Inactive)
REMARK    1  A    between atoms: C_6  and  C_7 
REMARK    2  A    between atoms: C_10  and  N_11 
REMARK    3  A    between atoms: N_11  and  C_12 
REMARK    4  A    between atoms: C_16  and  C_17 
REMARK       I    between atoms: C_17  and  N_19 
REMARK    5  A    between atoms: N_19  and  C_20 
ROOT
ATOM      1  N   UNL d   1      26.278 -16.629  -0.652  0.00  0.00    -0.188 N 
ATOM      2  H   UNL d   1      26.830 -16.692   0.187  0.00  0.00     0.184 HD
ENDROOT
BRANCH   1   3
ATOM      3  C   UNL d   1      25.011 -17.196  -0.538  0.00  0.00     0.726 A 
ATOM      4  N   UNL d   1      23.947 -16.379  -0.479  0.00  0.00    -0.074 NA
ATOM      5  C   UNL d   1      22.734 -16.973  -0.349  0.00  0.00     0.150 A 
ATOM      6  C   UNL d   1      22.532 -18.338  -0.267  0.00  0.00     0.010 A 
ATOM      7  C   UNL d   1      23.693 -19.072  -0.324  0.00  0.00     0.150 A 
ATOM      8  N   UNL d   1      24.914 -18.535  -0.461  0.00  0.00    -0.074 NA
BRANCH   6   9
ATOM      9  C   UNL d   1      21.220 -18.966  -0.147  0.00  0.00    -0.023 A 
ATOM     10  C   UNL d   1      20.393 -19.123  -1.270  0.00  0.00     0.012 A 
ATOM     11  C   UNL d   1      19.129 -19.699  -1.148  0.00  0.00     0.001 A 
ATOM     12  C   UNL d   1      18.674 -20.127   0.098  0.00  0.00     0.007 A 
ATOM     13  C   UNL d   1      19.479 -19.984   1.231  0.00  0.00    -0.061 A 
ATOM     14  C   UNL d   1      19.010 -20.450   2.577  0.00  0.00     0.048 C 
ATOM     15  C   UNL d   1      20.746 -19.401   1.100  0.00  0.00     0.019 A 
ENDBRANCH   6   9
ENDBRANCH   1   3
BRANCH   1  16
ATOM     16  C   UNL d   1      26.834 -16.077  -1.812  0.00  0.00     0.050 A 
ATOM     17  C   UNL d   1      28.158 -16.370  -2.163  0.00  0.00     0.030 A 
ATOM     18  C   UNL d   1      28.757 -15.779  -3.271  0.00  0.00     0.003 A 
ATOM     19  C   UNL d   1      28.046 -14.859  -4.039  0.00  0.00     0.017 A 
ATOM     20  C   UNL d   1      26.726 -14.532  -3.710  0.00  0.00     0.034 A 
ATOM     21  C   UNL d   1      26.125 -15.155  -2.594  0.00  0.00     0.047 A 
BRANCH  20  22
ATOM     22  C   UNL d   1      25.930 -13.531  -4.492  0.00  0.00     0.252 C 
ATOM     23  O   UNL d   1      24.723 -13.718  -4.645  0.00  0.00    -0.268 OA
ATOM     24  N   UNL d   1      26.585 -12.424  -5.012  0.00  0.00    -0.353 N 
ATOM     25  H   UNL d   1      27.581 -12.319  -4.908  0.00  0.00     0.163 HD
BRANCH  24  26
ATOM     26  C   UNL d   1      25.887 -11.383  -5.765  0.00  0.00     0.076 C 
ATOM     27  C   UNL d   1      25.628 -10.153  -4.898  0.00  0.00     0.032 C 
ATOM     28  C   UNL d   1      26.692 -10.958  -6.997  0.00  0.00     0.032 C 
ENDBRANCH  24  26
ENDBRANCH  20  22
ENDBRANCH   1  16
TORSDOF 5
ENDMDL
MODEL 7
REMARK VINA RESULT:    -8.353      4.142      5.136
REMARK INTER + INTRA:         -10.335
REMARK INTER:                  -9.845
REMARK INTRA:                  -0.491
REMARK CONF_INDEPENDENT:        1.492
REMARK UNBOUND:                -0.491
REMARK  5 active torsions:
REMARK  status: ('A' for Active; 'I' for Inactive)
REMARK    1  A    between atoms: C_6  and  C_7 
REMARK    2  A    between atoms: C_10  and  N_11 
REMARK    3  A    between atoms: N_11  and  C_12 
REMARK    4  A    between atoms: C_16  and  C_17 
REMARK       I    between atoms: C_17  and  N_19 
REMARK    5  A    between atoms: N_19  and  C_20 
ROOT
ATOM      1  N   UNL d   1      25.882 -18.321  -0.239  0.00  0.00    -0.188 N 
ATOM      2  H   UNL d   1      26.070 -19.302  -0.117  0.00  0.00     0.184 HD
ENDROOT
BRANCH   1   3
ATOM      3  C   UNL d   1      26.991 -17.504  -0.037  0.00  0.00     0.726 A 
ATOM      4  N   UNL d   1      26.819 -16.341   0.612  0.00  0.00    -0.074 NA
ATOM      5  C   UNL d   1      27.922 -15.568   0.771  0.00  0.00     0.150 A 
ATOM      6  C   UNL d   1      29.183 -15.893   0.308  0.00  0.00     0.010 A 
ATOM      7  C   UNL d   1      29.235 -17.098  -0.352  0.00  0.00     0.150 A 
ATOM      8  N   UNL d   1      28.177 -17.903  -0.527  0.00  0.00    -0.074 NA
BRANCH   6   9
ATOM      9  C   UNL d   1      30.367 -15.062   0.503  0.00  0.00    -0.023 A 
ATOM     10  C   UNL d   1      31.334 -14.940  -0.506  0.00  0.00     0.012 A 
ATOM     11  C   UNL d   1      32.478 -14.166  -0.307  0.00  0.00     0.001 A 
ATOM     12  C   UNL d   1      32.669 -13.503   0.904  0.00  0.00     0.007 A 
ATOM     13  C   UNL d   1      31.720 -13.607   1.924  0.00  0.00    -0.061 A 
ATOM     14  C   UNL d   1      31.905 -12.890   3.229  0.00  0.00     0.048 C 
ATOM     15  C   UNL d   1      30.576 -14.388   1.717  0.00  0.00     0.019 A 
ENDBRANCH   6   9
ENDBRANCH   1   3
BRANCH   1  16
ATOM     16  C   UNL d   1      24.577 -17.891  -0.512  0.00  0.00     0.050 A 
ATOM     17  C   UNL d   1      24.318 -16.531  -0.725  0.00  0.00     0.030 A 
ATOM     18  C   UNL d   1      23.021 -16.069  -0.927  0.00  0.00     0.003 A 
ATOM     19  C   UNL d   1      21.951 -16.961  -0.895  0.00  0.00     0.017 A 
ATOM     20  C   UNL d   1      22.171 -18.325  -0.672  0.00  0.00     0.034 A 
ATOM     21  C   UNL d   1      23.495 -18.781  -0.487  0.00  0.00     0.047 A 
BRANCH  20  22
ATOM     22  C   UNL d   1      21.050 -19.317  -0.604  0.00  0.00     0.252 C 
ATOM     23  O   UNL d   1      20.529 -19.700  -1.651  0.00  0.00    -0.268 OA
ATOM     24  N   UNL d   1      20.642 -19.773   0.642  0.00  0.00    -0.353 N 
ATOM     25  H   UNL d   1      21.057 -19.410   1.484  0.00  0.00     0.163 HD
BRANCH  24  26
ATOM     26  C   UNL d   1      19.575 -20.758   0.804  0.00  0.00     0.076 C 
ATOM     27  C   UNL d   1      19.053 -20.776   2.240  0.00  0.00     0.032 C 
ATOM     28  C   UNL d   1      18.405 -20.468  -0.142  0.00  0.00     0.032 C 
ENDBRANCH  24  26
ENDBRANCH  20  22
ENDBRANCH   1  16
TORSDOF 5
ENDMDL
MODEL 8
REMARK VINA RESULT:    -8.089      6.885      9.984
REMARK INTER + INTRA:         -10.303
REMARK INTER:                  -9.581
REMARK INTRA:                  -0.723
REMARK CONF_INDEPENDENT:        1.492
REMARK UNBOUND:                -0.723
REMARK  5 active torsions:
REMARK  status: ('A' for Active; 'I' for Inactive)
REMARK    1  A    between atoms: C_6  and  C_7 
REMARK    2  A    between atoms: C_10  and  N_11 
REMARK    3  A    between atoms: N_11  and  C_12 
REMARK    4  A    between atoms: C_16  and  C_17 
REMARK       I    between atoms: C_17  and  N_19 
REMARK    5  A    between atoms: N_19  and  C_20 
ROOT
ATOM      1  N   UNL d   1      29.011 -14.852   1.870  0.00  0.00    -0.188 N 
ATOM      2  H   UNL d   1      29.709 -15.556   1.699  0.00  0.00     0.184 HD
ENDROOT
BRANCH   1   3
ATOM      3  C   UNL d   1      28.930 -14.448   3.200  0.00  0.00     0.726 A 
ATOM      4  N   UNL d   1      27.743 -14.533   3.824  0.00  0.00    -0.074 NA
ATOM      5  C   UNL d   1      27.705 -14.112   5.113  0.00  0.00     0.150 A 
ATOM      6  C   UNL d   1      28.788 -13.602   5.805  0.00  0.00     0.010 A 
ATOM      7  C   UNL d   1      29.943 -13.549   5.062  0.00  0.00     0.150 A 
ATOM      8  N   UNL d   1      30.035 -13.961   3.789  0.00  0.00    -0.074 NA
BRANCH   6   9
ATOM      9  C   UNL d   1      28.739 -13.170   7.198  0.00  0.00    -0.023 A 
ATOM     10  C   UNL d   1      28.553 -11.819   7.527  0.00  0.00     0.012 A 
ATOM     11  C   UNL d   1      28.534 -11.406   8.859  0.00  0.00     0.001 A 
ATOM     12  C   UNL d   1      28.700 -12.338   9.881  0.00  0.00     0.007 A 
ATOM     13  C   UNL d   1      28.885 -13.690   9.581  0.00  0.00    -0.061 A 
ATOM     14  C   UNL d   1      29.053 -14.709  10.669  0.00  0.00     0.048 C 
ATOM     15  C   UNL d   1      28.906 -14.097   8.240  0.00  0.00     0.019 A 
ENDBRANCH   6   9
ENDBRANCH   1   3
BRANCH   1  16
ATOM     16  C   UNL d   1      28.182 -14.425   0.824  0.00  0.00     0.050 A 
ATOM     17  C   UNL d   1      28.223 -13.091   0.397  0.00  0.00     0.030 A 
ATOM     18  C   UNL d   1      27.361 -12.626  -0.590  0.00  0.00     0.003 A 
ATOM     19  C   UNL d   1      26.420 -13.483  -1.155  0.00  0.00     0.017 A 
ATOM     20  C   UNL d   1      26.341 -14.819  -0.743  0.00  0.00     0.034 A 
ATOM     21  C   UNL d   1      27.235 -15.282   0.247  0.00  0.00     0.047 A 
BRANCH  20  22
ATOM     22  C   UNL d   1      25.329 -15.772  -1.302  0.00  0.00     0.252 C 
ATOM     23  O   UNL d   1      25.136 -15.791  -2.518  0.00  0.00    -0.268 OA
ATOM     24  N   UNL d   1      24.646 -16.603  -0.427  0.00  0.00    -0.353 N 
ATOM     25  H   UNL d   1      24.792 -16.536   0.567  0.00  0.00     0.163 HD
BRANCH  24  26
ATOM     26  C   UNL d   1      23.659 -17.581  -0.884  0.00  0.00     0.076 C 
ATOM     27  C   UNL d   1      23.906 -18.951  -0.255  0.00  0.00     0.032 C 
ATOM     28  C   UNL d   1      22.235 -17.131  -0.542  0.00  0.00     0.032 C 
ENDBRANCH  24  26
ENDBRANCH  20  22
ENDBRANCH   1  16
TORSDOF 5
ENDMDL
MODEL 9
REMARK VINA RESULT:    -7.934      2.429      3.028
REMARK INTER + INTRA:         -10.165
REMARK INTER:                  -9.426
REMARK INTRA:                  -0.739
REMARK CONF_INDEPENDENT:        1.492
REMARK UNBOUND:                -0.739
REMARK  5 active torsions:
REMARK  status: ('A' for Active; 'I' for Inactive)
REMARK    1  A    between atoms: C_6  and  C_7 
REMARK    2  A    between atoms: C_10  and  N_11 
REMARK    3  A    between atoms: N_11  and  C_12 
REMARK    4  A    between atoms: C_16  and  C_17 
REMARK       I    between atoms: C_17  and  N_19 
REMARK    5  A    between atoms: N_19  and  C_20 
ROOT
ATOM      1  N   UNL d   1      25.905 -14.573  -0.565  0.00  0.00    -0.188 N 
ATOM      2  H   UNL d   1      25.826 -13.931   0.206  0.00  0.00     0.184 HD
ENDROOT
BRANCH   1   3
ATOM      3  C   UNL d   1      26.081 -13.954  -1.799  0.00  0.00     0.726 A 
ATOM      4  N   UNL d   1      25.319 -14.354  -2.831  0.00  0.00    -0.074 NA
ATOM      5  C   UNL d   1      25.537 -13.737  -4.019  0.00  0.00     0.150 A 
ATOM      6  C   UNL d   1      26.480 -12.749  -4.231  0.00  0.00     0.010 A 
ATOM      7  C   UNL d   1      27.208 -12.431  -3.109  0.00  0.00     0.150 A 
ATOM      8  N   UNL d   1      27.026 -13.005  -1.909  0.00  0.00    -0.074 NA
BRANCH   6   9
ATOM      9  C   UNL d   1      26.691 -12.079  -5.509  0.00  0.00    -0.023 A 
ATOM     10  C   UNL d   1      25.987 -10.909  -5.833  0.00  0.00     0.012 A 
ATOM     11  C   UNL d   1      26.170 -10.285  -7.067  0.00  0.00     0.001 A 
ATOM     12  C   UNL d   1      27.062 -10.822  -7.995  0.00  0.00     0.007 A 
ATOM     13  C   UNL d   1      27.777 -11.985  -7.696  0.00  0.00    -0.061 A 
ATOM     14  C   UNL d   1      28.749 -12.569  -8.677  0.00  0.00     0.048 C 
ATOM     15  C   UNL d   1      27.584 -12.607  -6.455  0.00  0.00     0.019 A 
ENDBRANCH   6   9
ENDBRANCH   1   3
BRANCH   1  16
ATOM     16  C   UNL d   1      25.761 -15.949  -0.343  0.00  0.00     0.050 A 
ATOM     17  C   UNL d   1      26.862 -16.711   0.066  0.00  0.00     0.030 A 
ATOM     18  C   UNL d   1      26.763 -18.090   0.224  0.00  0.00     0.003 A 
ATOM     19  C   UNL d   1      25.560 -18.738  -0.048  0.00  0.00     0.017 A 
ATOM     20  C   UNL d   1      24.443 -18.009  -0.471  0.00  0.00     0.034 A 
ATOM     21  C   UNL d   1      24.553 -16.608  -0.609  0.00  0.00     0.047 A 
BRANCH  20  22
ATOM     22  C   UNL d   1      23.135 -18.665  -0.800  0.00  0.00     0.252 C 
ATOM     23  O   UNL d   1      22.882 -18.932  -1.974  0.00  0.00    -0.268 OA
ATOM     24  N   UNL d   1      22.258 -18.951   0.236  0.00  0.00    -0.353 N 
ATOM     25  H   UNL d   1      22.473 -18.681   1.182  0.00  0.00     0.163 HD
BRANCH  24  26
ATOM     26  C   UNL d   1      20.973 -19.611   0.014  0.00  0.00     0.076 C 
ATOM     27  C   UNL d   1      20.245 -19.863   1.333  0.00  0.00     0.032 C 
ATOM     28  C   UNL d   1      20.069 -18.771  -0.895  0.00  0.00     0.032 C 
ENDBRANCH  24  26
ENDBRANCH  20  22
ENDBRANCH   1  16
TORSDOF 5
ENDMDL
