MODEL 1
REMARK VINA RESULT:    -7.411      0.000      0.000
REMARK INTER + INTRA:          -8.789
REMARK INTER:                  -8.306
REMARK INTRA:                  -0.483
REMARK CONF_INDEPENDENT:        0.895
REMARK UNBOUND:                -0.483
REMARK  3 active torsions:
REMARK  status: ('A' for Active; 'I' for Inactive)
REMARK       I    between atoms: C_2  and  N_3 
REMARK    1  A    between atoms: C_2  and  C_12 
REMARK    2  A    between atoms: N_3  and  N_4 
REMARK    3  A    between atoms: N_4  and  C_5 
ROOT
ATOM      1  O   UNL d   1      22.029 -19.110  -1.694  0.00  0.00    -0.264 OA
ATOM      2  C   UNL d   1      21.730 -18.648  -0.585  0.00  0.00     0.293 C 
ATOM      3  N   UNL d   1      22.394 -17.538  -0.065  0.00  0.00    -0.264 N 
ATOM      4  H   UNL d   1      22.132 -17.105   0.814  0.00  0.00     0.190 HD
ENDROOT
BRANCH   3   5
ATOM      5  N   UNL d   1      23.347 -16.901  -0.875  0.00  0.00    -0.298 N 
ATOM      6  H   UNL d   1      23.007 -16.286  -1.616  0.00  0.00     0.187 HD
BRANCH   5   7
ATOM      7  C   UNL d   1      24.717 -17.127  -0.703  0.00  0.00     0.048 A 
ATOM      8  C   UNL d   1      25.224 -18.034   0.238  0.00  0.00     0.034 A 
ATOM      9  C   UNL d   1      26.607 -18.204   0.407  0.00  0.00     0.044 A 
ATOM     10  C   UNL d   1      27.494 -17.450  -0.350  0.00  0.00     0.116 A 
ATOM     11  F   UNL d   1      28.813 -17.603  -0.176  0.00  0.00    -0.206 F 
ATOM     12  C   UNL d   1      27.024 -16.537  -1.282  0.00  0.00     0.044 A 
ATOM     13  C   UNL d   1      25.642 -16.383  -1.460  0.00  0.00     0.034 A 
ENDBRANCH   5   7
ENDBRANCH   3   5
BRANCH   2  14
ATOM     14  C   UNL d   1      20.731 -19.276   0.265  0.00  0.00     0.146 A 
ATOM     15  C   UNL d   1      20.655 -19.325   1.648  0.00  0.00     0.047 A 
ATOM     16  C   UNL d   1      19.535 -20.123   1.980  0.00  0.00     0.053 A 
ATOM     17  C   UNL d   1      19.004 -20.554   0.784  0.00  0.00     0.145 A 
ATOM     18 CL   UNL d   1      17.655 -21.608   0.605  0.00  0.00    -0.057 Cl
ATOM     19  O   UNL d   1      19.703 -20.016  -0.266  0.00  0.00    -0.293 OA
ENDBRANCH   2  14
TORSDOF 3
ENDMDL
MODEL 2
REMARK VINA RESULT:    -6.861      1.792      2.307
REMARK INTER + INTRA:          -8.191
REMARK INTER:                  -7.756
REMARK INTRA:                  -0.435
REMARK CONF_INDEPENDENT:        0.895
REMARK UNBOUND:                -0.435
REMARK  3 active torsions:
REMARK  status: ('A' for Active; 'I' for Inactive)
REMARK       I    between atoms: C_2  and  N_3 
REMARK    1  A    between atoms: C_2  and  C_12 
REMARK    2  A    between atoms: N_3  and  N_4 
REMARK    3  A    between atoms: N_4  and  C_5 
ROOT
ATOM      1  O   UNL d   1      22.543 -16.962   0.188  0.00  0.00    -0.264 OA
ATOM      2  C   UNL d   1      22.501 -18.198   0.132  0.00  0.00     0.293 C 
ATOM      3  N   UNL d   1      23.663 -18.963   0.217  0.00  0.00    -0.264 N 
ATOM      4  H   UNL d   1      23.652 -19.977   0.231  0.00  0.00     0.190 HD
ENDROOT
BRANCH   3   5
ATOM      5  N   UNL d   1      24.874 -18.297   0.461  0.00  0.00    -0.298 N 
ATOM      6  H   UNL d   1      25.311 -18.425   1.375  0.00  0.00     0.187 HD
BRANCH   5   7
ATOM      7  C   UNL d   1      25.447 -17.454  -0.497  0.00  0.00     0.048 A 
ATOM      8  C   UNL d   1      24.775 -17.060  -1.662  0.00  0.00     0.034 A 
ATOM      9  C   UNL d   1      25.399 -16.243  -2.617  0.00  0.00     0.044 A 
ATOM     10  C   UNL d   1      26.711 -15.833  -2.425  0.00  0.00     0.116 A 
ATOM     11  F   UNL d   1      27.309 -15.065  -3.345  0.00  0.00    -0.206 F 
ATOM     12  C   UNL d   1      27.408 -16.213  -1.287  0.00  0.00     0.044 A 
ATOM     13  C   UNL d   1      26.774 -17.015  -0.327  0.00  0.00     0.034 A 
ENDBRANCH   5   7
ENDBRANCH   3   5
BRANCH   2  14
ATOM     14  C   UNL d   1      21.256 -18.914  -0.099  0.00  0.00     0.146 A 
ATOM     15  C   UNL d   1      20.415 -18.889  -1.200  0.00  0.00     0.047 A 
ATOM     16  C   UNL d   1      19.298 -19.700  -0.895  0.00  0.00     0.053 A 
ATOM     17  C   UNL d   1      19.492 -20.151   0.392  0.00  0.00     0.145 A 
ATOM     18 CL   UNL d   1      18.400 -21.136   1.287  0.00  0.00    -0.057 Cl
ATOM     19  O   UNL d   1      20.696 -19.706   0.873  0.00  0.00    -0.293 OA
ENDBRANCH   2  14
TORSDOF 3
ENDMDL
MODEL 3
REMARK VINA RESULT:    -6.762      1.536      2.061
REMARK INTER + INTRA:          -8.770
REMARK INTER:                  -7.657
REMARK INTRA:                  -1.113
REMARK CONF_INDEPENDENT:        0.895
REMARK UNBOUND:                -1.113
REMARK  3 active torsions:
REMARK  status: ('A' for Active; 'I' for Inactive)
REMARK       I    between atoms: C_2  and  N_3 
REMARK    1  A    between atoms: C_2  and  C_12 
REMARK    2  A    between atoms: N_3  and  N_4 
REMARK    3  A    between atoms: N_4  and  C_5 
ROOT
ATOM      1  O   UNL d   1      20.505 -19.329  -1.877  0.00  0.00    -0.264 OA
ATOM      2  C   UNL d   1      20.897 -19.427  -0.707  0.00  0.00     0.293 C 
ATOM      3  N   UNL d   1      22.190 -19.049  -0.347  0.00  0.00    -0.264 N 
ATOM      4  H   UNL d   1      22.518 -19.066   0.612  0.00  0.00     0.190 HD
ENDROOT
BRANCH   3   5
ATOM      5  N   UNL d   1      23.004 -18.467  -1.330  0.00  0.00    -0.298 N 
ATOM      6  H   UNL d   1      22.707 -18.548  -2.304  0.00  0.00     0.187 HD
BRANCH   5   7
ATOM      7  C   UNL d   1      24.204 -17.829  -0.997  0.00  0.00     0.048 A 
ATOM      8  C   UNL d   1      24.647 -16.663  -1.636  0.00  0.00     0.034 A 
ATOM      9  C   UNL d   1      25.875 -16.074  -1.298  0.00  0.00     0.044 A 
ATOM     10  C   UNL d   1      26.683 -16.663  -0.334  0.00  0.00     0.116 A 
ATOM     11  F   UNL d   1      27.861 -16.107  -0.025  0.00  0.00    -0.206 F 
ATOM     12  C   UNL d   1      26.278 -17.822   0.310  0.00  0.00     0.044 A 
ATOM     13  C   UNL d   1      25.042 -18.397  -0.018  0.00  0.00     0.034 A 
ENDBRANCH   5   7
ENDBRANCH   3   5
BRANCH   2  14
ATOM     14  C   UNL d   1      20.065 -20.007   0.335  0.00  0.00     0.146 A 
ATOM     15  C   UNL d   1      18.760 -20.466   0.268  0.00  0.00     0.047 A 
ATOM     16  C   UNL d   1      18.385 -20.860   1.573  0.00  0.00     0.053 A 
ATOM     17  C   UNL d   1      19.466 -20.587   2.382  0.00  0.00     0.145 A 
ATOM     18 CL   UNL d   1      19.531 -20.820   4.086  0.00  0.00    -0.057 Cl
ATOM     19  O   UNL d   1      20.506 -20.100   1.633  0.00  0.00    -0.293 OA
ENDBRANCH   2  14
TORSDOF 3
ENDMDL
MODEL 4
REMARK VINA RESULT:    -6.668      4.500      7.313
REMARK INTER + INTRA:          -8.337
REMARK INTER:                  -7.563
REMARK INTRA:                  -0.774
REMARK CONF_INDEPENDENT:        0.895
REMARK UNBOUND:                -0.774
REMARK  3 active torsions:
REMARK  status: ('A' for Active; 'I' for Inactive)
REMARK       I    between atoms: C_2  and  N_3 
REMARK    1  A    between atoms: C_2  and  C_12 
REMARK    2  A    between atoms: N_3  and  N_4 
REMARK    3  A    between atoms: N_4  and  C_5 
ROOT
ATOM      1  O   UNL d   1      23.222 -16.362  -1.357  0.00  0.00    -0.264 OA
ATOM      2  C   UNL d   1      23.653 -17.363  -0.769  0.00  0.00     0.293 C 
ATOM      3  N   UNL d   1      22.794 -18.382  -0.359  0.00  0.00    -0.264 N 
ATOM      4  H   UNL d   1      23.127 -19.237   0.073  0.00  0.00     0.190 HD
ENDROOT
BRANCH   3   5
ATOM      5  N   UNL d   1      21.440 -18.285  -0.713  0.00  0.00    -0.298 N 
ATOM      6  H   UNL d   1      21.174 -17.565  -1.386  0.00  0.00     0.187 HD
BRANCH   5   7
ATOM      7  C   UNL d   1      20.476 -19.120  -0.137  0.00  0.00     0.048 A 
ATOM      8  C   UNL d   1      19.399 -19.648  -0.861  0.00  0.00     0.034 A 
ATOM      9  C   UNL d   1      18.432 -20.452  -0.238  0.00  0.00     0.044 A 
ATOM     10  C   UNL d   1      18.522 -20.713   1.123  0.00  0.00     0.116 A 
ATOM     11  F   UNL d   1      17.589 -21.467   1.718  0.00  0.00    -0.206 F 
ATOM     12  C   UNL d   1      19.571 -20.197   1.870  0.00  0.00     0.044 A 
ATOM     13  C   UNL d   1      20.544 -19.410   1.239  0.00  0.00     0.034 A 
ENDBRANCH   5   7
ENDBRANCH   3   5
BRANCH   2  14
ATOM     14  C   UNL d   1      25.056 -17.498  -0.410  0.00  0.00     0.146 A 
ATOM     15  C   UNL d   1      25.634 -18.199   0.635  0.00  0.00     0.047 A 
ATOM     16  C   UNL d   1      27.025 -17.946   0.593  0.00  0.00     0.053 A 
ATOM     17  C   UNL d   1      27.224 -17.072  -0.454  0.00  0.00     0.145 A 
ATOM     18 CL   UNL d   1      28.733 -16.387  -0.918  0.00  0.00    -0.057 Cl
ATOM     19  O   UNL d   1      26.037 -16.820  -1.091  0.00  0.00    -0.293 OA
ENDBRANCH   2  14
TORSDOF 3
ENDMDL
MODEL 5
REMARK VINA RESULT:    -6.449      4.422      7.206
REMARK INTER + INTRA:          -8.388
REMARK INTER:                  -7.344
REMARK INTRA:                  -1.044
REMARK CONF_INDEPENDENT:        0.895
REMARK UNBOUND:                -1.044
REMARK  3 active torsions:
REMARK  status: ('A' for Active; 'I' for Inactive)
REMARK       I    between atoms: C_2  and  N_3 
REMARK    1  A    between atoms: C_2  and  C_12 
REMARK    2  A    between atoms: N_3  and  N_4 
REMARK    3  A    between atoms: N_4  and  C_5 
ROOT
ATOM      1  O   UNL d   1      24.967 -18.335   0.625  0.00  0.00    -0.264 OA
ATOM      2  C   UNL d   1      24.327 -17.689  -0.214  0.00  0.00     0.293 C 
ATOM      3  N   UNL d   1      22.939 -17.791  -0.295  0.00  0.00    -0.264 N 
ATOM      4  H   UNL d   1      22.385 -17.231  -0.933  0.00  0.00     0.190 HD
ENDROOT
BRANCH   3   5
ATOM      5  N   UNL d   1      22.279 -18.576   0.663  0.00  0.00    -0.298 N 
ATOM      6  H   UNL d   1      22.759 -18.750   1.548  0.00  0.00     0.187 HD
BRANCH   5   7
ATOM      7  C   UNL d   1      21.022 -19.135   0.406  0.00  0.00     0.048 A 
ATOM      8  C   UNL d   1      20.262 -19.780   1.391  0.00  0.00     0.034 A 
ATOM      9  C   UNL d   1      19.022 -20.361   1.084  0.00  0.00     0.044 A 
ATOM     10  C   UNL d   1      18.544 -20.322  -0.219  0.00  0.00     0.116 A 
ATOM     11  F   UNL d   1      17.368 -20.891  -0.512  0.00  0.00    -0.206 F 
ATOM     12  C   UNL d   1      19.277 -19.700  -1.219  0.00  0.00     0.044 A 
ATOM     13  C   UNL d   1      20.507 -19.105  -0.904  0.00  0.00     0.034 A 
ENDBRANCH   5   7
ENDBRANCH   3   5
BRANCH   2  14
ATOM     14  C   UNL d   1      24.985 -16.851  -1.204  0.00  0.00     0.146 A 
ATOM     15  C   UNL d   1      26.334 -16.711  -1.484  0.00  0.00     0.047 A 
ATOM     16  C   UNL d   1      26.457 -15.715  -2.480  0.00  0.00     0.053 A 
ATOM     17  C   UNL d   1      25.178 -15.268  -2.734  0.00  0.00     0.145 A 
ATOM     18 CL   UNL d   1      24.753 -14.009  -3.828  0.00  0.00    -0.057 Cl
ATOM     19  O   UNL d   1      24.272 -15.976  -1.988  0.00  0.00    -0.293 OA
ENDBRANCH   2  14
TORSDOF 3
ENDMDL
MODEL 6
REMARK VINA RESULT:    -6.164      2.762      3.538
REMARK INTER + INTRA:          -7.852
REMARK INTER:                  -7.059
REMARK INTRA:                  -0.793
REMARK CONF_INDEPENDENT:        0.895
REMARK UNBOUND:                -0.793
REMARK  3 active torsions:
REMARK  status: ('A' for Active; 'I' for Inactive)
REMARK       I    between atoms: C_2  and  N_3 
REMARK    1  A    between atoms: C_2  and  C_12 
REMARK    2  A    between atoms: N_3  and  N_4 
REMARK    3  A    between atoms: N_4  and  C_5 
ROOT
ATOM      1  O   UNL d   1      24.151 -18.205   0.772  0.00  0.00    -0.264 OA
ATOM      2  C   UNL d   1      23.359 -18.031  -0.164  0.00  0.00     0.293 C 
ATOM      3  N   UNL d   1      23.657 -17.154  -1.205  0.00  0.00    -0.264 N 
ATOM      4  H   UNL d   1      23.053 -17.036  -2.012  0.00  0.00     0.190 HD
ENDROOT
BRANCH   3   5
ATOM      5  N   UNL d   1      24.920 -16.543  -1.212  0.00  0.00    -0.298 N 
ATOM      6  H   UNL d   1      25.553 -16.751  -0.438  0.00  0.00     0.187 HD
BRANCH   5   7
ATOM      7  C   UNL d   1      25.291 -15.649  -2.221  0.00  0.00     0.048 A 
ATOM      8  C   UNL d   1      24.405 -14.710  -2.768  0.00  0.00     0.034 A 
ATOM      9  C   UNL d   1      24.805 -13.855  -3.806  0.00  0.00     0.044 A 
ATOM     10  C   UNL d   1      26.091 -13.950  -4.323  0.00  0.00     0.116 A 
ATOM     11  F   UNL d   1      26.465 -13.143  -5.325  0.00  0.00    -0.206 F 
ATOM     12  C   UNL d   1      26.989 -14.875  -3.811  0.00  0.00     0.044 A 
ATOM     13  C   UNL d   1      26.590 -15.715  -2.762  0.00  0.00     0.034 A 
ENDBRANCH   5   7
ENDBRANCH   3   5
BRANCH   2  14
ATOM     14  C   UNL d   1      22.053 -18.669  -0.193  0.00  0.00     0.146 A 
ATOM     15  C   UNL d   1      21.228 -18.942  -1.272  0.00  0.00     0.047 A 
ATOM     16  C   UNL d   1      20.034 -19.501  -0.760  0.00  0.00     0.053 A 
ATOM     17  C   UNL d   1      20.172 -19.507   0.611  0.00  0.00     0.145 A 
ATOM     18 CL   UNL d   1      18.981 -20.031   1.738  0.00  0.00    -0.057 Cl
ATOM     19  O   UNL d   1      21.409 -19.035   0.965  0.00  0.00    -0.293 OA
ENDBRANCH   2  14
TORSDOF 3
ENDMDL
MODEL 7
REMARK VINA RESULT:    -5.855      2.828      3.720
REMARK INTER + INTRA:          -7.211
REMARK INTER:                  -6.750
REMARK INTRA:                  -0.461
REMARK CONF_INDEPENDENT:        0.895
REMARK UNBOUND:                -0.461
REMARK  3 active torsions:
REMARK  status: ('A' for Active; 'I' for Inactive)
REMARK       I    between atoms: C_2  and  N_3 
REMARK    1  A    between atoms: C_2  and  C_12 
REMARK    2  A    between atoms: N_3  and  N_4 
REMARK    3  A    between atoms: N_4  and  C_5 
ROOT
ATOM      1  O   UNL d   1      23.030 -15.551  -1.645  0.00  0.00    -0.264 OA
ATOM      2  C   UNL d   1      23.485 -16.566  -1.102  0.00  0.00     0.293 C 
ATOM      3  N   UNL d   1      24.851 -16.703  -0.861  0.00  0.00    -0.264 N 
ATOM      4  H   UNL d   1      25.243 -17.498  -0.367  0.00  0.00     0.190 HD
ENDROOT
BRANCH   3   5
ATOM      5  N   UNL d   1      25.686 -15.618  -1.166  0.00  0.00    -0.298 N 
ATOM      6  H   UNL d   1      25.812 -14.898  -0.453  0.00  0.00     0.187 HD
BRANCH   5   7
ATOM      7  C   UNL d   1      26.299 -15.501  -2.419  0.00  0.00     0.048 A 
ATOM      8  C   UNL d   1      27.671 -15.707  -2.615  0.00  0.00     0.034 A 
ATOM      9  C   UNL d   1      28.255 -15.543  -3.881  0.00  0.00     0.044 A 
ATOM     10  C   UNL d   1      27.471 -15.148  -4.957  0.00  0.00     0.116 A 
ATOM     11  F   UNL d   1      28.033 -14.978  -6.161  0.00  0.00    -0.206 F 
ATOM     12  C   UNL d   1      26.111 -14.927  -4.794  0.00  0.00     0.044 A 
ATOM     13  C   UNL d   1      25.530 -15.109  -3.531  0.00  0.00     0.034 A 
ENDBRANCH   5   7
ENDBRANCH   3   5
BRANCH   2  14
ATOM     14  C   UNL d   1      22.637 -17.696  -0.754  0.00  0.00     0.146 A 
ATOM     15  C   UNL d   1      22.984 -18.927  -0.222  0.00  0.00     0.047 A 
ATOM     16  C   UNL d   1      21.802 -19.700  -0.145  0.00  0.00     0.053 A 
ATOM     17  C   UNL d   1      20.797 -18.917  -0.669  0.00  0.00     0.145 A 
ATOM     18 CL   UNL d   1      19.155 -19.392  -0.871  0.00  0.00    -0.057 Cl
ATOM     19  O   UNL d   1      21.288 -17.684  -1.011  0.00  0.00    -0.293 OA
ENDBRANCH   2  14
TORSDOF 3
ENDMDL
MODEL 8
REMARK VINA RESULT:    -5.443      5.174      7.806
REMARK INTER + INTRA:          -7.145
REMARK INTER:                  -6.338
REMARK INTRA:                  -0.807
REMARK CONF_INDEPENDENT:        0.895
REMARK UNBOUND:                -0.807
REMARK  3 active torsions:
REMARK  status: ('A' for Active; 'I' for Inactive)
REMARK       I    between atoms: C_2  and  N_3 
REMARK    1  A    between atoms: C_2  and  C_12 
REMARK    2  A    between atoms: N_3  and  N_4 
REMARK    3  A    between atoms: N_4  and  C_5 
ROOT
ATOM      1  O   UNL d   1      24.526 -14.871  -2.957  0.00  0.00    -0.264 OA
ATOM      2  C   UNL d   1      25.684 -15.291  -2.834  0.00  0.00     0.293 C 
ATOM      3  N   UNL d   1      26.128 -15.832  -1.628  0.00  0.00    -0.264 N 
ATOM      4  H   UNL d   1      27.051 -16.236  -1.516  0.00  0.00     0.190 HD
ENDROOT
BRANCH   3   5
ATOM      5  N   UNL d   1      25.198 -15.971  -0.586  0.00  0.00    -0.298 N 
ATOM      6  H   UNL d   1      25.331 -15.399   0.250  0.00  0.00     0.187 HD
BRANCH   5   7
ATOM      7  C   UNL d   1      24.146 -16.889  -0.667  0.00  0.00     0.048 A 
ATOM      8  C   UNL d   1      22.812 -16.501  -0.856  0.00  0.00     0.034 A 
ATOM      9  C   UNL d   1      21.780 -17.451  -0.894  0.00  0.00     0.044 A 
ATOM     10  C   UNL d   1      22.073 -18.798  -0.720  0.00  0.00     0.116 A 
ATOM     11  F   UNL d   1      21.084 -19.701  -0.742  0.00  0.00    -0.206 F 
ATOM     12  C   UNL d   1      23.381 -19.214  -0.522  0.00  0.00     0.044 A 
ATOM     13  C   UNL d   1      24.411 -18.263  -0.502  0.00  0.00     0.034 A 
ENDBRANCH   5   7
ENDBRANCH   3   5
BRANCH   2  14
ATOM     14  C   UNL d   1      26.660 -15.179  -3.905  0.00  0.00     0.146 A 
ATOM     15  C   UNL d   1      26.539 -14.583  -5.150  0.00  0.00     0.047 A 
ATOM     16  C   UNL d   1      27.747 -14.815  -5.847  0.00  0.00     0.053 A 
ATOM     17  C   UNL d   1      28.533 -15.575  -5.010  0.00  0.00     0.145 A 
ATOM     18 CL   UNL d   1      30.096 -16.193  -5.384  0.00  0.00    -0.057 Cl
ATOM     19  O   UNL d   1      27.896 -15.773  -3.813  0.00  0.00    -0.293 OA
ENDBRANCH   2  14
TORSDOF 3
ENDMDL
MODEL 9
REMARK VINA RESULT:    -5.437      4.003      5.223
REMARK INTER + INTRA:          -7.105
REMARK INTER:                  -6.332
REMARK INTRA:                  -0.773
REMARK CONF_INDEPENDENT:        0.895
REMARK UNBOUND:                -0.773
REMARK  3 active torsions:
REMARK  status: ('A' for Active; 'I' for Inactive)
REMARK       I    between atoms: C_2  and  N_3 
REMARK    1  A    between atoms: C_2  and  C_12 
REMARK    2  A    between atoms: N_3  and  N_4 
REMARK    3  A    between atoms: N_4  and  C_5 
ROOT
ATOM      1  O   UNL d   1      26.112 -15.480  -1.134  0.00  0.00    -0.264 OA
ATOM      2  C   UNL d   1      24.968 -15.748  -1.522  0.00  0.00     0.293 C 
ATOM      3  N   UNL d   1      24.288 -14.902  -2.398  0.00  0.00    -0.264 N 
ATOM      4  H   UNL d   1      23.374 -15.125  -2.776  0.00  0.00     0.190 HD
ENDROOT
BRANCH   3   5
ATOM      5  N   UNL d   1      24.974 -13.785  -2.900  0.00  0.00    -0.298 N 
ATOM      6  H   UNL d   1      24.767 -12.874  -2.486  0.00  0.00     0.187 HD
BRANCH   5   7
ATOM      7  C   UNL d   1      25.881 -13.903  -3.957  0.00  0.00     0.048 A 
ATOM      8  C   UNL d   1      26.440 -15.128  -4.346  0.00  0.00     0.034 A 
ATOM      9  C   UNL d   1      27.377 -15.200  -5.388  0.00  0.00     0.044 A 
ATOM     10  C   UNL d   1      27.780 -14.039  -6.036  0.00  0.00     0.116 A 
ATOM     11  F   UNL d   1      28.686 -14.109  -7.020  0.00  0.00    -0.206 F 
ATOM     12  C   UNL d   1      27.254 -12.810  -5.669  0.00  0.00     0.044 A 
ATOM     13  C   UNL d   1      26.305 -12.746  -4.639  0.00  0.00     0.034 A 
ENDBRANCH   5   7
ENDBRANCH   3   5
BRANCH   2  14
ATOM     14  C   UNL d   1      24.243 -16.911  -1.034  0.00  0.00     0.146 A 
ATOM     15  C   UNL d   1      24.719 -18.033  -0.376  0.00  0.00     0.047 A 
ATOM     16  C   UNL d   1      23.623 -18.907  -0.189  0.00  0.00     0.053 A 
ATOM     17  C   UNL d   1      22.538 -18.293  -0.776  0.00  0.00     0.145 A 
ATOM     18 CL   UNL d   1      20.951 -18.949  -0.889  0.00  0.00    -0.057 Cl
ATOM     19  O   UNL d   1      22.897 -17.063  -1.263  0.00  0.00    -0.293 OA
ENDBRANCH   2  14
TORSDOF 3
ENDMDL
