MODEL 1
REMARK VINA RESULT:    -8.839      0.000      0.000
REMARK INTER + INTRA:         -14.106
REMARK INTER:                 -12.120
REMARK INTRA:                  -1.986
REMARK CONF_INDEPENDENT:        3.281
REMARK UNBOUND:                -1.986
REMARK  11 active torsions:
REMARK  status: ('A' for Active; 'I' for Inactive)
REMARK    1  A    between atoms: C_2  and  C_3 
REMARK    2  A    between atoms: C_3  and  C_4 
REMARK    3  A    between atoms: C_4  and  C_5 
REMARK    4  A    between atoms: C_11  and  C_12 
REMARK    5  A    between atoms: C_15  and  O_16 
REMARK    6  A    between atoms: O_16  and  C_17 
REMARK    7  A    between atoms: C_17  and  C_18 
REMARK    8  A    between atoms: C_18  and  O_19 
REMARK    9  A    between atoms: O_19  and  C_20 
REMARK   10  A    between atoms: C_28  and  O_29 
REMARK   11  A    between atoms: O_29  and  C_30 
ROOT
ATOM      1  C   UNL d   1      26.362 -15.087  -2.429  0.00  0.00    -0.032 C 
ATOM      2  C   UNL d   1      25.776 -13.845  -2.188  0.00  0.00     0.014 C 
ATOM      3  C   UNL d   1      25.392 -13.047  -3.275  0.00  0.00     0.040 C 
ATOM      4  C   UNL d   1      25.745 -13.397  -4.592  0.00  0.00     0.102 C 
ATOM      5  C   UNL d   1      26.409 -14.607  -4.824  0.00  0.00     0.102 C 
ATOM      6  C   UNL d   1      26.607 -15.473  -3.755  0.00  0.00     0.051 C 
ENDROOT
BRANCH   1   7
ATOM      7  C   UNL d   1      26.928 -15.916  -1.347  0.00  0.00     0.032 C 
ATOM      8  C   UNL d   1      26.140 -16.603  -0.499  0.00  0.00     0.076 C 
ATOM      9  C   UNL d   1      24.649 -16.562  -0.579  0.00  0.00     0.140 C 
ATOM     10  C   UNL d   1      26.668 -17.683   0.428  0.00  0.00     0.282 C 
ATOM     11  N   UNL d   1      23.970 -17.328   0.360  0.00  0.00    -0.094 NA
ATOM     12  N   UNL d   1      24.006 -16.126  -1.624  0.00  0.00    -0.286 NA
ATOM     13  N   UNL d   1      22.595 -17.283   0.193  0.00  0.00    -0.183 NA
ATOM     14  C   UNL d   1      24.558 -18.574   0.248  0.00  0.00     0.179 C 
ATOM     15  C   UNL d   1      22.244 -18.200  -0.661  0.00  0.00     0.093 C 
ATOM     16  S   UNL d   1      23.455 -19.486  -0.896  0.00  0.00    -0.039 SA
ATOM     17  N   UNL d   1      25.830 -18.829   0.399  0.00  0.00    -0.188 NA
ATOM     18  H   UNL d   1      23.004 -16.267  -1.533  0.00  0.00     0.188 HD
ATOM     19  O   UNL d   1      27.762 -17.594   0.937  0.00  0.00    -0.265 OA
BRANCH  15  20
ATOM     20  C   UNL d   1      20.844 -18.048  -1.269  0.00  0.00     0.068 C 
BRANCH  20  21
ATOM     21  C   UNL d   1      19.601 -18.876  -0.895  0.00  0.00     0.006 C 
BRANCH  21  22
ATOM     22  C   UNL d   1      19.987 -20.048   0.055  0.00  0.00    -0.004 C 
ATOM     23  C   UNL d   1      19.639 -19.757   1.510  0.00  0.00     0.005 C 
ENDBRANCH  21  22
ENDBRANCH  20  21
ENDBRANCH  15  20
ENDBRANCH   1   7
BRANCH   5  24
ATOM     24  O   UNL d   1      26.878 -14.890  -6.075  0.00  0.00    -0.349 OA
BRANCH  24  25
ATOM     25  C   UNL d   1      28.178 -14.468  -6.457  0.00  0.00     0.171 C 
ATOM     26  C   UNL d   1      29.062 -14.559  -5.230  0.00  0.00     0.034 C 
ENDBRANCH  24  25
ENDBRANCH   5  24
BRANCH   4  27
ATOM     27  O   UNL d   1      25.391 -12.476  -5.549  0.00  0.00    -0.346 OA
BRANCH  27  28
ATOM     28  C   UNL d   1      26.472 -11.744  -6.142  0.00  0.00     0.202 C 
BRANCH  28  29
ATOM     29  C   UNL d   1      26.420 -10.313  -5.673  0.00  0.00     0.202 C 
BRANCH  29  30
ATOM     30  O   UNL d   1      25.336 -10.132  -4.764  0.00  0.00    -0.348 OA
BRANCH  30  31
ATOM     31  C   UNL d   1      25.258  -8.928  -4.105  0.00  0.00     0.080 A 
ATOM     32  C   UNL d   1      24.560  -7.898  -4.774  0.00  0.00    -0.028 A 
ATOM     33  C   UNL d   1      23.654  -8.163  -5.947  0.00  0.00     0.051 C 
ATOM     34  C   UNL d   1      24.615  -6.582  -4.276  0.00  0.00     0.009 A 
ATOM     35  C   UNL d   1      25.253  -6.307  -3.073  0.00  0.00     0.001 A 
ATOM     36  C   UNL d   1      25.893  -7.330  -2.387  0.00  0.00     0.009 A 
ATOM     37  C   UNL d   1      25.921  -8.637  -2.896  0.00  0.00    -0.028 A 
ATOM     38  C   UNL d   1      26.654  -9.655  -2.081  0.00  0.00     0.051 C 
ENDBRANCH  30  31
ENDBRANCH  29  30
ENDBRANCH  28  29
ENDBRANCH  27  28
ENDBRANCH   4  27
TORSDOF 11
ENDMDL
MODEL 2
REMARK VINA RESULT:    -8.530      1.993      3.632
REMARK INTER + INTRA:         -14.115
REMARK INTER:                 -11.811
REMARK INTRA:                  -2.304
REMARK CONF_INDEPENDENT:        3.281
REMARK UNBOUND:                -2.304
REMARK  11 active torsions:
REMARK  status: ('A' for Active; 'I' for Inactive)
REMARK    1  A    between atoms: C_2  and  C_3 
REMARK    2  A    between atoms: C_3  and  C_4 
REMARK    3  A    between atoms: C_4  and  C_5 
REMARK    4  A    between atoms: C_11  and  C_12 
REMARK    5  A    between atoms: C_15  and  O_16 
REMARK    6  A    between atoms: O_16  and  C_17 
REMARK    7  A    between atoms: C_17  and  C_18 
REMARK    8  A    between atoms: C_18  and  O_19 
REMARK    9  A    between atoms: O_19  and  C_20 
REMARK   10  A    between atoms: C_28  and  O_29 
REMARK   11  A    between atoms: O_29  and  C_30 
ROOT
ATOM      1  C   UNL d   1      26.403 -15.042  -2.466  0.00  0.00    -0.032 C 
ATOM      2  C   UNL d   1      25.804 -13.800  -2.262  0.00  0.00     0.014 C 
ATOM      3  C   UNL d   1      25.421 -13.035  -3.374  0.00  0.00     0.040 C 
ATOM      4  C   UNL d   1      25.788 -13.418  -4.678  0.00  0.00     0.102 C 
ATOM      5  C   UNL d   1      26.466 -14.627  -4.872  0.00  0.00     0.102 C 
ATOM      6  C   UNL d   1      26.663 -15.462  -3.778  0.00  0.00     0.051 C 
ENDROOT
BRANCH   1   7
ATOM      7  C   UNL d   1      26.968 -15.836  -1.357  0.00  0.00     0.032 C 
ATOM      8  C   UNL d   1      26.180 -16.507  -0.496  0.00  0.00     0.076 C 
ATOM      9  C   UNL d   1      24.689 -16.482  -0.589  0.00  0.00     0.140 C 
ATOM     10  C   UNL d   1      26.710 -17.555   0.464  0.00  0.00     0.282 C 
ATOM     11  N   UNL d   1      24.010 -17.228   0.365  0.00  0.00    -0.094 NA
ATOM     12  N   UNL d   1      24.051 -16.081  -1.650  0.00  0.00    -0.286 NA
ATOM     13  N   UNL d   1      22.636 -17.200   0.186  0.00  0.00    -0.183 NA
ATOM     14  C   UNL d   1      24.611 -18.471   0.292  0.00  0.00     0.179 C 
ATOM     15  C   UNL d   1      22.301 -18.144  -0.644  0.00  0.00     0.093 C 
ATOM     16  S   UNL d   1      23.525 -19.425  -0.834  0.00  0.00    -0.039 SA
ATOM     17  N   UNL d   1      25.884 -18.710   0.461  0.00  0.00    -0.188 NA
ATOM     18  H   UNL d   1      23.050 -16.229  -1.563  0.00  0.00     0.188 HD
ATOM     19  O   UNL d   1      27.799 -17.443   0.979  0.00  0.00    -0.265 OA
BRANCH  15  20
ATOM     20  C   UNL d   1      20.904 -18.022  -1.267  0.00  0.00     0.068 C 
BRANCH  20  21
ATOM     21  C   UNL d   1      19.713 -18.963  -1.008  0.00  0.00     0.006 C 
BRANCH  21  22
ATOM     22  C   UNL d   1      19.631 -19.343   0.500  0.00  0.00    -0.004 C 
ATOM     23  C   UNL d   1      19.283 -20.812   0.711  0.00  0.00     0.005 C 
ENDBRANCH  21  22
ENDBRANCH  20  21
ENDBRANCH  15  20
ENDBRANCH   1   7
BRANCH   5  24
ATOM     24  O   UNL d   1      26.948 -14.939  -6.111  0.00  0.00    -0.349 OA
BRANCH  24  25
ATOM     25  C   UNL d   1      28.249 -14.519  -6.492  0.00  0.00     0.171 C 
ATOM     26  C   UNL d   1      29.228 -15.552  -5.975  0.00  0.00     0.034 C 
ENDBRANCH  24  25
ENDBRANCH   5  24
BRANCH   4  27
ATOM     27  O   UNL d   1      25.434 -12.527  -5.663  0.00  0.00    -0.346 OA
BRANCH  27  28
ATOM     28  C   UNL d   1      25.907 -11.184  -5.491  0.00  0.00     0.202 C 
BRANCH  28  29
ATOM     29  C   UNL d   1      25.764 -10.436  -6.791  0.00  0.00     0.202 C 
BRANCH  29  30
ATOM     30  O   UNL d   1      27.041 -10.001  -7.253  0.00  0.00    -0.348 OA
BRANCH  30  31
ATOM     31  C   UNL d   1      27.830 -10.927  -7.893  0.00  0.00     0.080 A 
ATOM     32  C   UNL d   1      28.976 -11.359  -7.190  0.00  0.00    -0.028 A 
ATOM     33  C   UNL d   1      29.157 -11.120  -5.714  0.00  0.00     0.051 C 
ATOM     34  C   UNL d   1      29.948 -12.135  -7.849  0.00  0.00     0.009 A 
ATOM     35  C   UNL d   1      29.737 -12.577  -9.150  0.00  0.00     0.001 A 
ATOM     36  C   UNL d   1      28.585 -12.197  -9.824  0.00  0.00     0.009 A 
ATOM     37  C   UNL d   1      27.633 -11.362  -9.220  0.00  0.00    -0.028 A 
ATOM     38  C   UNL d   1      26.438 -11.005 -10.045  0.00  0.00     0.051 C 
ENDBRANCH  30  31
ENDBRANCH  29  30
ENDBRANCH  28  29
ENDBRANCH  27  28
ENDBRANCH   4  27
TORSDOF 11
ENDMDL
MODEL 3
REMARK VINA RESULT:    -8.101      4.853      8.207
REMARK INTER + INTRA:         -13.796
REMARK INTER:                 -11.382
REMARK INTRA:                  -2.414
REMARK CONF_INDEPENDENT:        3.281
REMARK UNBOUND:                -2.414
REMARK  11 active torsions:
REMARK  status: ('A' for Active; 'I' for Inactive)
REMARK    1  A    between atoms: C_2  and  C_3 
REMARK    2  A    between atoms: C_3  and  C_4 
REMARK    3  A    between atoms: C_4  and  C_5 
REMARK    4  A    between atoms: C_11  and  C_12 
REMARK    5  A    between atoms: C_15  and  O_16 
REMARK    6  A    between atoms: O_16  and  C_17 
REMARK    7  A    between atoms: C_17  and  C_18 
REMARK    8  A    between atoms: C_18  and  O_19 
REMARK    9  A    between atoms: O_19  and  C_20 
REMARK   10  A    between atoms: C_28  and  O_29 
REMARK   11  A    between atoms: O_29  and  C_30 
ROOT
ATOM      1  C   UNL d   1      29.433 -16.505  -1.364  0.00  0.00    -0.032 C 
ATOM      2  C   UNL d   1      29.856 -15.332  -0.740  0.00  0.00     0.014 C 
ATOM      3  C   UNL d   1      29.081 -14.790   0.295  0.00  0.00     0.040 C 
ATOM      4  C   UNL d   1      27.805 -15.306   0.592  0.00  0.00     0.102 C 
ATOM      5  C   UNL d   1      27.346 -16.435  -0.096  0.00  0.00     0.102 C 
ATOM      6  C   UNL d   1      28.210 -17.072  -0.979  0.00  0.00     0.051 C 
ENDROOT
BRANCH   1   7
ATOM      7  C   UNL d   1      30.111 -17.053  -2.555  0.00  0.00     0.032 C 
ATOM      8  C   UNL d   1      29.670 -16.793  -3.800  0.00  0.00     0.076 C 
ATOM      9  C   UNL d   1      28.463 -15.953  -4.063  0.00  0.00     0.140 C 
ATOM     10  C   UNL d   1      30.488 -17.086  -5.044  0.00  0.00     0.282 C 
ATOM     11  N   UNL d   1      28.133 -15.768  -5.399  0.00  0.00    -0.094 NA
ATOM     12  N   UNL d   1      27.932 -15.173  -3.167  0.00  0.00    -0.286 NA
ATOM     13  N   UNL d   1      27.037 -14.937  -5.569  0.00  0.00    -0.183 NA
ATOM     14  C   UNL d   1      29.319 -15.339  -5.969  0.00  0.00     0.179 C 
ATOM     15  C   UNL d   1      27.445 -13.703  -5.602  0.00  0.00     0.093 C 
ATOM     16  S   UNL d   1      29.180 -13.512  -5.961  0.00  0.00    -0.039 SA
ATOM     17  N   UNL d   1      30.451 -15.988  -5.945  0.00  0.00    -0.188 NA
ATOM     18  H   UNL d   1      27.182 -14.609  -3.557  0.00  0.00     0.188 HD
ATOM     19  O   UNL d   1      31.210 -18.054  -5.108  0.00  0.00    -0.265 OA
BRANCH  15  20
ATOM     20  C   UNL d   1      26.365 -12.635  -5.385  0.00  0.00     0.068 C 
BRANCH  20  21
ATOM     21  C   UNL d   1      25.506 -12.463  -4.118  0.00  0.00     0.006 C 
BRANCH  21  22
ATOM     22  C   UNL d   1      24.571 -13.692  -3.917  0.00  0.00    -0.004 C 
ATOM     23  C   UNL d   1      25.003 -14.565  -2.745  0.00  0.00     0.005 C 
ENDBRANCH  21  22
ENDBRANCH  20  21
ENDBRANCH  15  20
ENDBRANCH   1   7
BRANCH   5  24
ATOM     24  O   UNL d   1      26.061 -16.858   0.084  0.00  0.00    -0.349 OA
BRANCH  24  25
ATOM     25  C   UNL d   1      25.442 -17.684  -0.890  0.00  0.00     0.171 C 
ATOM     26  C   UNL d   1      24.044 -17.996  -0.397  0.00  0.00     0.034 C 
ENDBRANCH  24  25
ENDBRANCH   5  24
BRANCH   4  27
ATOM     27  O   UNL d   1      27.115 -14.618   1.561  0.00  0.00    -0.346 OA
BRANCH  27  28
ATOM     28  C   UNL d   1      26.933 -13.215   1.322  0.00  0.00     0.202 C 
BRANCH  28  29
ATOM     29  C   UNL d   1      27.576 -12.433   2.438  0.00  0.00     0.202 C 
BRANCH  29  30
ATOM     30  O   UNL d   1      27.042 -12.839   3.696  0.00  0.00    -0.348 OA
BRANCH  30  31
ATOM     31  C   UNL d   1      27.832 -12.658   4.806  0.00  0.00     0.080 A 
ATOM     32  C   UNL d   1      28.250 -13.833   5.470  0.00  0.00    -0.028 A 
ATOM     33  C   UNL d   1      28.159 -15.196   4.837  0.00  0.00     0.051 C 
ATOM     34  C   UNL d   1      28.877 -13.738   6.727  0.00  0.00     0.009 A 
ATOM     35  C   UNL d   1      29.191 -12.498   7.269  0.00  0.00     0.001 A 
ATOM     36  C   UNL d   1      28.829 -11.342   6.591  0.00  0.00     0.009 A 
ATOM     37  C   UNL d   1      28.136 -11.403   5.373  0.00  0.00    -0.028 A 
ATOM     38  C   UNL d   1      27.783 -10.095   4.739  0.00  0.00     0.051 C 
ENDBRANCH  30  31
ENDBRANCH  29  30
ENDBRANCH  28  29
ENDBRANCH  27  28
ENDBRANCH   4  27
TORSDOF 11
ENDMDL
MODEL 4
REMARK VINA RESULT:    -7.859      4.922      9.936
REMARK INTER + INTRA:         -13.287
REMARK INTER:                 -11.140
REMARK INTRA:                  -2.147
REMARK CONF_INDEPENDENT:        3.281
REMARK UNBOUND:                -2.147
REMARK  11 active torsions:
REMARK  status: ('A' for Active; 'I' for Inactive)
REMARK    1  A    between atoms: C_2  and  C_3 
REMARK    2  A    between atoms: C_3  and  C_4 
REMARK    3  A    between atoms: C_4  and  C_5 
REMARK    4  A    between atoms: C_11  and  C_12 
REMARK    5  A    between atoms: C_15  and  O_16 
REMARK    6  A    between atoms: O_16  and  C_17 
REMARK    7  A    between atoms: C_17  and  C_18 
REMARK    8  A    between atoms: C_18  and  O_19 
REMARK    9  A    between atoms: O_19  and  C_20 
REMARK   10  A    between atoms: C_28  and  O_29 
REMARK   11  A    between atoms: O_29  and  C_30 
ROOT
ATOM      1  C   UNL d   1      30.415 -15.998  -5.358  0.00  0.00    -0.032 C 
ATOM      2  C   UNL d   1      30.810 -15.849  -4.029  0.00  0.00     0.014 C 
ATOM      3  C   UNL d   1      31.137 -16.989  -3.280  0.00  0.00     0.040 C 
ATOM      4  C   UNL d   1      30.905 -18.281  -3.789  0.00  0.00     0.102 C 
ATOM      5  C   UNL d   1      30.428 -18.427  -5.097  0.00  0.00     0.102 C 
ATOM      6  C   UNL d   1      30.296 -17.291  -5.887  0.00  0.00     0.051 C 
ENDROOT
BRANCH   1   7
ATOM      7  C   UNL d   1      29.913 -14.868  -6.163  0.00  0.00     0.032 C 
ATOM      8  C   UNL d   1      28.630 -14.467  -6.096  0.00  0.00     0.076 C 
ATOM      9  C   UNL d   1      27.625 -15.145  -5.222  0.00  0.00     0.140 C 
ATOM     10  C   UNL d   1      28.144 -13.150  -6.670  0.00  0.00     0.282 C 
ATOM     11  N   UNL d   1      26.341 -14.616  -5.252  0.00  0.00    -0.094 NA
ATOM     12  N   UNL d   1      27.954 -15.950  -4.253  0.00  0.00    -0.286 NA
ATOM     13  N   UNL d   1      25.477 -15.260  -4.380  0.00  0.00    -0.183 NA
ATOM     14  C   UNL d   1      26.541 -13.266  -5.028  0.00  0.00     0.179 C 
ATOM     15  C   UNL d   1      25.570 -14.703  -3.208  0.00  0.00     0.093 C 
ATOM     16  S   UNL d   1      26.287 -13.072  -3.224  0.00  0.00    -0.039 SA
ATOM     17  N   UNL d   1      27.292 -12.480  -5.752  0.00  0.00    -0.188 NA
ATOM     18  H   UNL d   1      27.144 -16.234  -3.710  0.00  0.00     0.188 HD
ATOM     19  O   UNL d   1      28.613 -12.698  -7.689  0.00  0.00    -0.265 OA
BRANCH  15  20
ATOM     20  C   UNL d   1      25.004 -15.514  -2.036  0.00  0.00     0.068 C 
BRANCH  20  21
ATOM     21  C   UNL d   1      24.776 -17.037  -2.016  0.00  0.00     0.006 C 
BRANCH  21  22
ATOM     22  C   UNL d   1      24.186 -17.487  -0.648  0.00  0.00    -0.004 C 
ATOM     23  C   UNL d   1      23.103 -18.548  -0.802  0.00  0.00     0.005 C 
ENDBRANCH  21  22
ENDBRANCH  20  21
ENDBRANCH  15  20
ENDBRANCH   1   7
BRANCH   5  24
ATOM     24  O   UNL d   1      30.069 -19.664  -5.549  0.00  0.00    -0.349 OA
BRANCH  24  25
ATOM     25  C   UNL d   1      30.406 -20.062  -6.869  0.00  0.00     0.171 C 
ATOM     26  C   UNL d   1      31.914 -19.990  -6.993  0.00  0.00     0.034 C 
ENDBRANCH  24  25
ENDBRANCH   5  24
BRANCH   4  27
ATOM     27  O   UNL d   1      31.178 -19.304  -2.913  0.00  0.00    -0.346 OA
BRANCH  27  28
ATOM     28  C   UNL d   1      31.182 -18.952  -1.522  0.00  0.00     0.202 C 
BRANCH  28  29
ATOM     29  C   UNL d   1      31.289 -20.205  -0.693  0.00  0.00     0.202 C 
BRANCH  29  30
ATOM     30  O   UNL d   1      31.876 -21.255  -1.459  0.00  0.00    -0.348 OA
BRANCH  30  31
ATOM     31  C   UNL d   1      31.084 -22.337  -1.759  0.00  0.00     0.080 A 
ATOM     32  C   UNL d   1      30.857 -22.580  -3.132  0.00  0.00    -0.028 A 
ATOM     33  C   UNL d   1      31.690 -21.946  -4.214  0.00  0.00     0.051 C 
ATOM     34  C   UNL d   1      29.892 -23.528  -3.522  0.00  0.00     0.009 A 
ATOM     35  C   UNL d   1      29.243 -24.308  -2.574  0.00  0.00     0.001 A 
ATOM     36  C   UNL d   1      29.505 -24.107  -1.226  0.00  0.00     0.009 A 
ATOM     37  C   UNL d   1      30.405 -23.118  -0.801  0.00  0.00    -0.028 A 
ATOM     38  C   UNL d   1      30.598 -22.980   0.676  0.00  0.00     0.051 C 
ENDBRANCH  30  31
ENDBRANCH  29  30
ENDBRANCH  28  29
ENDBRANCH  27  28
ENDBRANCH   4  27
TORSDOF 11
ENDMDL
MODEL 5
REMARK VINA RESULT:    -7.758      3.997      7.545
REMARK INTER + INTRA:         -14.519
REMARK INTER:                 -11.039
REMARK INTRA:                  -3.480
REMARK CONF_INDEPENDENT:        3.281
REMARK UNBOUND:                -3.480
REMARK  11 active torsions:
REMARK  status: ('A' for Active; 'I' for Inactive)
REMARK    1  A    between atoms: C_2  and  C_3 
REMARK    2  A    between atoms: C_3  and  C_4 
REMARK    3  A    between atoms: C_4  and  C_5 
REMARK    4  A    between atoms: C_11  and  C_12 
REMARK    5  A    between atoms: C_15  and  O_16 
REMARK    6  A    between atoms: O_16  and  C_17 
REMARK    7  A    between atoms: C_17  and  C_18 
REMARK    8  A    between atoms: C_18  and  O_19 
REMARK    9  A    between atoms: O_19  and  C_20 
REMARK   10  A    between atoms: C_28  and  O_29 
REMARK   11  A    between atoms: O_29  and  C_30 
ROOT
ATOM      1  C   UNL d   1      30.466 -15.826  -5.463  0.00  0.00    -0.032 C 
ATOM      2  C   UNL d   1      31.089 -15.572  -4.242  0.00  0.00     0.014 C 
ATOM      3  C   UNL d   1      31.511 -16.651  -3.452  0.00  0.00     0.040 C 
ATOM      4  C   UNL d   1      31.162 -17.974  -3.785  0.00  0.00     0.102 C 
ATOM      5  C   UNL d   1      30.461 -18.219  -4.972  0.00  0.00     0.102 C 
ATOM      6  C   UNL d   1      30.223 -17.156  -5.836  0.00  0.00     0.051 C 
ENDROOT
BRANCH   1   7
ATOM      7  C   UNL d   1      29.861 -14.754  -6.278  0.00  0.00     0.032 C 
ATOM      8  C   UNL d   1      28.558 -14.434  -6.168  0.00  0.00     0.076 C 
ATOM      9  C   UNL d   1      27.634 -15.147  -5.236  0.00  0.00     0.140 C 
ATOM     10  C   UNL d   1      27.966 -13.168  -6.758  0.00  0.00     0.282 C 
ATOM     11  N   UNL d   1      26.318 -14.702  -5.228  0.00  0.00    -0.094 NA
ATOM     12  N   UNL d   1      28.051 -15.901  -4.261  0.00  0.00    -0.286 NA
ATOM     13  N   UNL d   1      25.532 -15.373  -4.305  0.00  0.00    -0.183 NA
ATOM     14  C   UNL d   1      26.439 -13.336  -5.050  0.00  0.00     0.179 C 
ATOM     15  C   UNL d   1      25.635 -14.777  -3.153  0.00  0.00     0.093 C 
ATOM     16  S   UNL d   1      26.244 -13.105  -3.243  0.00  0.00    -0.039 SA
ATOM     17  N   UNL d   1      27.109 -12.526  -5.825  0.00  0.00    -0.188 NA
ATOM     18  H   UNL d   1      27.284 -16.220  -3.677  0.00  0.00     0.188 HD
ATOM     19  O   UNL d   1      28.365 -12.718  -7.808  0.00  0.00    -0.265 OA
BRANCH  15  20
ATOM     20  C   UNL d   1      25.168 -15.587  -1.937  0.00  0.00     0.068 C 
BRANCH  20  21
ATOM     21  C   UNL d   1      24.773 -17.076  -1.939  0.00  0.00     0.006 C 
BRANCH  21  22
ATOM     22  C   UNL d   1      23.926 -17.421  -0.680  0.00  0.00    -0.004 C 
ATOM     23  C   UNL d   1      23.173 -18.738  -0.829  0.00  0.00     0.005 C 
ENDBRANCH  21  22
ENDBRANCH  20  21
ENDBRANCH  15  20
ENDBRANCH   1   7
BRANCH   5  24
ATOM     24  O   UNL d   1      29.998 -19.476  -5.234  0.00  0.00    -0.349 OA
BRANCH  24  25
ATOM     25  C   UNL d   1      30.858 -20.443  -5.815  0.00  0.00     0.171 C 
ATOM     26  C   UNL d   1      30.910 -20.167  -7.303  0.00  0.00     0.034 C 
ENDBRANCH  24  25
ENDBRANCH   5  24
BRANCH   4  27
ATOM     27  O   UNL d   1      31.556 -18.923  -2.873  0.00  0.00    -0.346 OA
BRANCH  27  28
ATOM     28  C   UNL d   1      31.663 -18.477  -1.513  0.00  0.00     0.202 C 
BRANCH  28  29
ATOM     29  C   UNL d   1      30.290 -18.432  -0.895  0.00  0.00     0.202 C 
BRANCH  29  30
ATOM     30  O   UNL d   1      29.505 -17.414  -1.511  0.00  0.00    -0.348 OA
BRANCH  30  31
ATOM     31  C   UNL d   1      28.957 -16.456  -0.692  0.00  0.00     0.080 A 
ATOM     32  C   UNL d   1      27.731 -16.792  -0.077  0.00  0.00    -0.028 A 
ATOM     33  C   UNL d   1      27.218 -18.206  -0.014  0.00  0.00     0.051 C 
ATOM     34  C   UNL d   1      26.997 -15.800   0.601  0.00  0.00     0.009 A 
ATOM     35  C   UNL d   1      27.519 -14.524   0.770  0.00  0.00     0.001 A 
ATOM     36  C   UNL d   1      28.750 -14.209   0.212  0.00  0.00     0.009 A 
ATOM     37  C   UNL d   1      29.471 -15.153  -0.534  0.00  0.00    -0.028 A 
ATOM     38  C   UNL d   1      30.779 -14.698  -1.102  0.00  0.00     0.051 C 
ENDBRANCH  30  31
ENDBRANCH  29  30
ENDBRANCH  28  29
ENDBRANCH  27  28
ENDBRANCH   4  27
TORSDOF 11
ENDMDL
MODEL 6
REMARK VINA RESULT:    -7.724      1.456      2.750
REMARK INTER + INTRA:         -14.112
REMARK INTER:                 -11.005
REMARK INTRA:                  -3.108
REMARK CONF_INDEPENDENT:        3.281
REMARK UNBOUND:                -3.108
REMARK  11 active torsions:
REMARK  status: ('A' for Active; 'I' for Inactive)
REMARK    1  A    between atoms: C_2  and  C_3 
REMARK    2  A    between atoms: C_3  and  C_4 
REMARK    3  A    between atoms: C_4  and  C_5 
REMARK    4  A    between atoms: C_11  and  C_12 
REMARK    5  A    between atoms: C_15  and  O_16 
REMARK    6  A    between atoms: O_16  and  C_17 
REMARK    7  A    between atoms: C_17  and  C_18 
REMARK    8  A    between atoms: C_18  and  O_19 
REMARK    9  A    between atoms: O_19  and  C_20 
REMARK   10  A    between atoms: C_28  and  O_29 
REMARK   11  A    between atoms: O_29  and  C_30 
ROOT
ATOM      1  C   UNL d   1      26.315 -15.018  -2.477  0.00  0.00    -0.032 C 
ATOM      2  C   UNL d   1      25.658 -13.808  -2.262  0.00  0.00     0.014 C 
ATOM      3  C   UNL d   1      25.255 -13.042  -3.365  0.00  0.00     0.040 C 
ATOM      4  C   UNL d   1      25.657 -13.385  -4.671  0.00  0.00     0.102 C 
ATOM      5  C   UNL d   1      26.391 -14.559  -4.875  0.00  0.00     0.102 C 
ATOM      6  C   UNL d   1      26.611 -15.403  -3.793  0.00  0.00     0.051 C 
ENDROOT
BRANCH   1   7
ATOM      7  C   UNL d   1      26.901 -15.805  -1.374  0.00  0.00     0.032 C 
ATOM      8  C   UNL d   1      26.130 -16.495  -0.513  0.00  0.00     0.076 C 
ATOM      9  C   UNL d   1      24.638 -16.499  -0.599  0.00  0.00     0.140 C 
ATOM     10  C   UNL d   1      26.685 -17.537   0.441  0.00  0.00     0.282 C 
ATOM     11  N   UNL d   1      23.978 -17.263   0.355  0.00  0.00    -0.094 NA
ATOM     12  N   UNL d   1      23.987 -16.107  -1.656  0.00  0.00    -0.286 NA
ATOM     13  N   UNL d   1      22.603 -17.262   0.182  0.00  0.00    -0.183 NA
ATOM     14  C   UNL d   1      24.603 -18.494   0.274  0.00  0.00     0.179 C 
ATOM     15  C   UNL d   1      22.283 -18.208  -0.651  0.00  0.00     0.093 C 
ATOM     16  S   UNL d   1      23.531 -19.464  -0.852  0.00  0.00    -0.039 SA
ATOM     17  N   UNL d   1      25.881 -18.708   0.436  0.00  0.00    -0.188 NA
ATOM     18  H   UNL d   1      22.990 -16.275  -1.566  0.00  0.00     0.188 HD
ATOM     19  O   UNL d   1      27.773 -17.405   0.951  0.00  0.00    -0.265 OA
BRANCH  15  20
ATOM     20  C   UNL d   1      20.882 -18.111  -1.268  0.00  0.00     0.068 C 
BRANCH  20  21
ATOM     21  C   UNL d   1      19.666 -18.980  -0.892  0.00  0.00     0.006 C 
BRANCH  21  22
ATOM     22  C   UNL d   1      20.066 -20.061   0.154  0.00  0.00    -0.004 C 
ATOM     23  C   UNL d   1      20.212 -19.486   1.558  0.00  0.00     0.005 C 
ENDBRANCH  21  22
ENDBRANCH  20  21
ENDBRANCH  15  20
ENDBRANCH   1   7
BRANCH   5  24
ATOM     24  O   UNL d   1      26.903 -14.826  -6.112  0.00  0.00    -0.349 OA
BRANCH  24  25
ATOM     25  C   UNL d   1      28.251 -14.493  -6.409  0.00  0.00     0.171 C 
ATOM     26  C   UNL d   1      29.126 -15.576  -5.814  0.00  0.00     0.034 C 
ENDBRANCH  24  25
ENDBRANCH   5  24
BRANCH   4  27
ATOM     27  O   UNL d   1      25.276 -12.493  -5.645  0.00  0.00    -0.346 OA
BRANCH  27  28
ATOM     28  C   UNL d   1      26.167 -11.392  -5.869  0.00  0.00     0.202 C 
BRANCH  28  29
ATOM     29  C   UNL d   1      27.549 -11.767  -5.401  0.00  0.00     0.202 C 
BRANCH  29  30
ATOM     30  O   UNL d   1      28.041 -10.793  -4.484  0.00  0.00    -0.348 OA
BRANCH  30  31
ATOM     31  C   UNL d   1      28.143 -11.162  -3.164  0.00  0.00     0.080 A 
ATOM     32  C   UNL d   1      29.078 -12.180  -2.874  0.00  0.00    -0.028 A 
ATOM     33  C   UNL d   1      30.150 -12.596  -3.847  0.00  0.00     0.051 C 
ATOM     34  C   UNL d   1      29.096 -12.767  -1.595  0.00  0.00     0.009 A 
ATOM     35  C   UNL d   1      28.282 -12.279  -0.581  0.00  0.00     0.001 A 
ATOM     36  C   UNL d   1      27.399 -11.241  -0.851  0.00  0.00     0.009 A 
ATOM     37  C   UNL d   1      27.304 -10.686  -2.136  0.00  0.00    -0.028 A 
ATOM     38  C   UNL d   1      26.309  -9.584  -2.315  0.00  0.00     0.051 C 
ENDBRANCH  30  31
ENDBRANCH  29  30
ENDBRANCH  28  29
ENDBRANCH  27  28
ENDBRANCH   4  27
TORSDOF 11
ENDMDL
MODEL 7
REMARK VINA RESULT:    -7.521      3.977      7.370
REMARK INTER + INTRA:         -14.651
REMARK INTER:                 -10.803
REMARK INTRA:                  -3.849
REMARK CONF_INDEPENDENT:        3.281
REMARK UNBOUND:                -3.849
REMARK  11 active torsions:
REMARK  status: ('A' for Active; 'I' for Inactive)
REMARK    1  A    between atoms: C_2  and  C_3 
REMARK    2  A    between atoms: C_3  and  C_4 
REMARK    3  A    between atoms: C_4  and  C_5 
REMARK    4  A    between atoms: C_11  and  C_12 
REMARK    5  A    between atoms: C_15  and  O_16 
REMARK    6  A    between atoms: O_16  and  C_17 
REMARK    7  A    between atoms: C_17  and  C_18 
REMARK    8  A    between atoms: C_18  and  O_19 
REMARK    9  A    between atoms: O_19  and  C_20 
REMARK   10  A    between atoms: C_28  and  O_29 
REMARK   11  A    between atoms: O_29  and  C_30 
ROOT
ATOM      1  C   UNL d   1      30.462 -15.378  -5.661  0.00  0.00    -0.032 C 
ATOM      2  C   UNL d   1      31.193 -15.076  -4.513  0.00  0.00     0.014 C 
ATOM      3  C   UNL d   1      31.689 -16.123  -3.723  0.00  0.00     0.040 C 
ATOM      4  C   UNL d   1      31.314 -17.458  -3.970  0.00  0.00     0.102 C 
ATOM      5  C   UNL d   1      30.509 -17.749  -5.078  0.00  0.00     0.102 C 
ATOM      6  C   UNL d   1      30.191 -16.721  -5.957  0.00  0.00     0.051 C 
ENDROOT
BRANCH   1   7
ATOM      7  C   UNL d   1      29.783 -14.338  -6.459  0.00  0.00     0.032 C 
ATOM      8  C   UNL d   1      28.465 -14.096  -6.327  0.00  0.00     0.076 C 
ATOM      9  C   UNL d   1      27.599 -14.867  -5.385  0.00  0.00     0.140 C 
ATOM     10  C   UNL d   1      27.790 -12.863  -6.899  0.00  0.00     0.282 C 
ATOM     11  N   UNL d   1      26.261 -14.499  -5.353  0.00  0.00    -0.094 NA
ATOM     12  N   UNL d   1      28.076 -15.600  -4.421  0.00  0.00    -0.286 NA
ATOM     13  N   UNL d   1      25.530 -15.220  -4.421  0.00  0.00    -0.183 NA
ATOM     14  C   UNL d   1      26.305 -13.130  -5.168  0.00  0.00     0.179 C 
ATOM     15  C   UNL d   1      25.617 -14.625  -3.268  0.00  0.00     0.093 C 
ATOM     16  S   UNL d   1      26.126 -12.920  -3.356  0.00  0.00    -0.039 SA
ATOM     17  N   UNL d   1      26.913 -12.278  -5.948  0.00  0.00    -0.188 NA
ATOM     18  H   UNL d   1      27.338 -15.966  -3.827  0.00  0.00     0.188 HD
ATOM     19  O   UNL d   1      28.145 -12.384  -7.952  0.00  0.00    -0.265 OA
BRANCH  15  20
ATOM     20  C   UNL d   1      25.218 -15.468  -2.049  0.00  0.00     0.068 C 
BRANCH  20  21
ATOM     21  C   UNL d   1      24.780 -16.945  -2.075  0.00  0.00     0.006 C 
BRANCH  21  22
ATOM     22  C   UNL d   1      24.008 -17.311  -0.774  0.00  0.00    -0.004 C 
ATOM     23  C   UNL d   1      23.271 -18.641  -0.891  0.00  0.00     0.005 C 
ENDBRANCH  21  22
ENDBRANCH  20  21
ENDBRANCH  15  20
ENDBRANCH   1   7
BRANCH   5  24
ATOM     24  O   UNL d   1      30.027 -19.015  -5.246  0.00  0.00    -0.349 OA
BRANCH  24  25
ATOM     25  C   UNL d   1      30.853 -20.019  -5.815  0.00  0.00     0.171 C 
ATOM     26  C   UNL d   1      30.779 -19.867  -7.320  0.00  0.00     0.034 C 
ENDBRANCH  24  25
ENDBRANCH   5  24
BRANCH   4  27
ATOM     27  O   UNL d   1      31.792 -18.370  -3.060  0.00  0.00    -0.346 OA
BRANCH  27  28
ATOM     28  C   UNL d   1      30.872 -18.775  -2.037  0.00  0.00     0.202 C 
BRANCH  28  29
ATOM     29  C   UNL d   1      30.467 -17.571  -1.228  0.00  0.00     0.202 C 
BRANCH  29  30
ATOM     30  O   UNL d   1      29.448 -16.841  -1.907  0.00  0.00    -0.348 OA
BRANCH  30  31
ATOM     31  C   UNL d   1      28.554 -16.138  -1.135  0.00  0.00     0.080 A 
ATOM     32  C   UNL d   1      28.672 -14.731  -1.173  0.00  0.00    -0.028 A 
ATOM     33  C   UNL d   1      29.462 -14.013  -2.236  0.00  0.00     0.051 C 
ATOM     34  C   UNL d   1      27.945 -13.945  -0.258  0.00  0.00     0.009 A 
ATOM     35  C   UNL d   1      27.029 -14.531   0.605  0.00  0.00     0.001 A 
ATOM     36  C   UNL d   1      26.872 -15.910   0.606  0.00  0.00     0.009 A 
ATOM     37  C   UNL d   1      27.636 -16.727  -0.242  0.00  0.00    -0.028 A 
ATOM     38  C   UNL d   1      27.396 -18.200  -0.145  0.00  0.00     0.051 C 
ENDBRANCH  30  31
ENDBRANCH  29  30
ENDBRANCH  28  29
ENDBRANCH  27  28
ENDBRANCH   4  27
TORSDOF 11
ENDMDL
