MODEL 1
REMARK VINA RESULT:   -10.838      0.000      0.000
REMARK INTER + INTRA:         -13.249
REMARK INTER:                 -12.627
REMARK INTRA:                  -0.621
REMARK CONF_INDEPENDENT:        1.790
REMARK UNBOUND:                -0.621
REMARK  6 active torsions:
REMARK  status: ('A' for Active; 'I' for Inactive)
REMARK    1  A    between atoms: C_5  and  C_6 
REMARK       I    between atoms: C_6  and  N_8 
REMARK    2  A    between atoms: N_8  and  C_9 
REMARK    3  A    between atoms: C_16  and  C_17 
REMARK       I    between atoms: C_17  and  N_19 
REMARK    4  A    between atoms: N_19  and  C_20 
REMARK    5  A    between atoms: C_22  and  C_23 
REMARK    6  A    between atoms: C_23  and  C_24 
REMARK       I    between atoms: C_24  and  N_25 
ROOT
ATOM      1  C   UNL d   1      24.509 -17.886  -0.465  0.00  0.00     0.174 A 
ATOM      2  N   UNL d   1      24.673 -17.239  -1.617  0.00  0.00    -0.227 NA
ATOM      3  C   UNL d   1      25.936 -16.674  -1.607  0.00  0.00     0.063 A 
ATOM      4  C   UNL d   1      26.693 -16.984  -0.516  0.00  0.00     0.012 A 
ATOM      5  S   UNL d   1      25.906 -17.974   0.557  0.00  0.00    -0.054 SA
ATOM      6  C   UNL d   1      28.039 -16.401  -0.505  0.00  0.00     0.049 C 
ATOM      7  C   UNL d   1      27.883 -15.300  -1.595  0.00  0.00     0.025 C 
ATOM      8  C   UNL d   1      26.707 -15.779  -2.544  0.00  0.00     0.131 C 
ENDROOT
BRANCH   8   9
ATOM      9  C   UNL d   1      25.997 -14.598  -3.173  0.00  0.00     0.233 C 
ATOM     10  O   UNL d   1      24.832 -14.699  -3.549  0.00  0.00    -0.272 OA
ATOM     11  N   UNL d   1      26.786 -13.501  -3.347  0.00  0.00    -0.305 N 
ATOM     12  H   UNL d   1      27.788 -13.626  -3.408  0.00  0.00     0.171 HD
BRANCH  11  13
ATOM     13  C   UNL d   1      26.328 -12.381  -3.950  0.00  0.00     0.173 A 
ATOM     14  N   UNL d   1      25.670 -11.331  -3.515  0.00  0.00    -0.228 NA
ATOM     15  C   UNL d   1      25.530 -10.401  -4.564  0.00  0.00     0.052 A 
ATOM     16  C   UNL d   1      26.004 -10.929  -5.751  0.00  0.00     0.081 A 
ATOM     17  S   UNL d   1      26.779 -12.423  -5.575  0.00  0.00    -0.062 SA
BRANCH  15  18
ATOM     18  C   UNL d   1      24.917  -9.043  -4.254  0.00  0.00     0.162 C 
BRANCH  18  19
ATOM     19  C   UNL d   1      24.247  -8.235  -5.372  0.00  0.00     0.221 C 
ATOM     20  N   UNL d   1      22.909  -8.234  -5.571  0.00  0.00    -0.370 N 
ATOM     21  H   UNL d   1      22.244  -8.794  -5.092  0.00  0.00     0.159 HD
ATOM     22  H   UNL d   1      22.510  -7.691  -6.322  0.00  0.00     0.159 HD
ATOM     23  O   UNL d   1      24.916  -7.535  -6.151  0.00  0.00    -0.273 OA
ENDBRANCH  18  19
ENDBRANCH  15  18
ENDBRANCH  11  13
ENDBRANCH   8   9
BRANCH   1  24
ATOM     24  N   UNL d   1      23.400 -18.618  -0.075  0.00  0.00    -0.301 N 
ATOM     25  C   UNL d   1      22.109 -18.143  -0.302  0.00  0.00     0.257 C 
ATOM     26  O   UNL d   1      21.849 -17.097  -0.899  0.00  0.00    -0.267 OA
ATOM     27  H   UNL d   1      23.578 -19.582   0.151  0.00  0.00     0.171 HD
BRANCH  25  28
ATOM     28  C   UNL d   1      20.941 -18.978   0.132  0.00  0.00     0.032 A 
ATOM     29  C   UNL d   1      20.044 -19.442  -0.852  0.00  0.00     0.017 A 
ATOM     30  C   UNL d   1      18.949 -20.248  -0.516  0.00  0.00     0.007 A 
ATOM     31  C   UNL d   1      18.727 -20.608   0.815  0.00  0.00    -0.062 A 
ATOM     32  C   UNL d   1      17.575 -21.489   1.204  0.00  0.00     0.048 C 
ATOM     33  C   UNL d   1      19.608 -20.138   1.796  0.00  0.00     0.007 A 
ATOM     34  C   UNL d   1      20.702 -19.328   1.463  0.00  0.00     0.017 A 
ENDBRANCH  25  28
ENDBRANCH   1  24
TORSDOF 6
ENDMDL
MODEL 2
REMARK VINA RESULT:    -9.604      1.574      1.878
REMARK INTER + INTRA:         -12.601
REMARK INTER:                 -11.393
REMARK INTRA:                  -1.207
REMARK CONF_INDEPENDENT:        1.790
REMARK UNBOUND:                -1.207
REMARK  6 active torsions:
REMARK  status: ('A' for Active; 'I' for Inactive)
REMARK    1  A    between atoms: C_5  and  C_6 
REMARK       I    between atoms: C_6  and  N_8 
REMARK    2  A    between atoms: N_8  and  C_9 
REMARK    3  A    between atoms: C_16  and  C_17 
REMARK       I    between atoms: C_17  and  N_19 
REMARK    4  A    between atoms: N_19  and  C_20 
REMARK    5  A    between atoms: C_22  and  C_23 
REMARK    6  A    between atoms: C_23  and  C_24 
REMARK       I    between atoms: C_24  and  N_25 
ROOT
ATOM      1  C   UNL d   1      24.558 -18.020  -0.400  0.00  0.00     0.174 A 
ATOM      2  N   UNL d   1      24.754 -17.395  -1.559  0.00  0.00    -0.227 NA
ATOM      3  C   UNL d   1      26.027 -16.854  -1.535  0.00  0.00     0.063 A 
ATOM      4  C   UNL d   1      26.760 -17.161  -0.426  0.00  0.00     0.012 A 
ATOM      5  S   UNL d   1      25.935 -18.119   0.648  0.00  0.00    -0.054 SA
ATOM      6  C   UNL d   1      28.116 -16.604  -0.400  0.00  0.00     0.049 C 
ATOM      7  C   UNL d   1      28.000 -15.518  -1.510  0.00  0.00     0.025 C 
ATOM      8  C   UNL d   1      26.833 -15.990  -2.472  0.00  0.00     0.131 C 
ENDROOT
BRANCH   8   9
ATOM      9  C   UNL d   1      26.157 -14.804  -3.132  0.00  0.00     0.233 C 
ATOM     10  O   UNL d   1      24.962 -14.846  -3.414  0.00  0.00    -0.272 OA
ATOM     11  N   UNL d   1      27.002 -13.782  -3.442  0.00  0.00    -0.305 N 
ATOM     12  H   UNL d   1      27.986 -13.983  -3.565  0.00  0.00     0.171 HD
BRANCH  11  13
ATOM     13  C   UNL d   1      26.575 -12.674  -4.090  0.00  0.00     0.173 A 
ATOM     14  N   UNL d   1      26.569 -12.319  -5.354  0.00  0.00    -0.228 NA
ATOM     15  C   UNL d   1      25.911 -11.081  -5.486  0.00  0.00     0.052 A 
ATOM     16  C   UNL d   1      25.594 -10.560  -4.245  0.00  0.00     0.081 A 
ATOM     17  S   UNL d   1      25.900 -11.619  -2.960  0.00  0.00    -0.062 SA
BRANCH  15  18
ATOM     18  C   UNL d   1      25.663 -10.535  -6.886  0.00  0.00     0.162 C 
BRANCH  18  19
ATOM     19  C   UNL d   1      26.692 -10.781  -7.995  0.00  0.00     0.221 C 
ATOM     20  N   UNL d   1      27.703 -11.671  -7.868  0.00  0.00    -0.370 N 
ATOM     21  H   UNL d   1      27.934 -12.184  -7.051  0.00  0.00     0.159 HD
ATOM     22  H   UNL d   1      28.361 -11.798  -8.623  0.00  0.00     0.159 HD
ATOM     23  O   UNL d   1      26.636 -10.166  -9.073  0.00  0.00    -0.273 OA
ENDBRANCH  18  19
ENDBRANCH  15  18
ENDBRANCH  11  13
ENDBRANCH   8   9
BRANCH   1  24
ATOM     24  N   UNL d   1      23.428 -18.724  -0.018  0.00  0.00    -0.301 N 
ATOM     25  C   UNL d   1      22.151 -18.229  -0.279  0.00  0.00     0.257 C 
ATOM     26  O   UNL d   1      21.921 -17.189  -0.899  0.00  0.00    -0.267 OA
ATOM     27  H   UNL d   1      23.583 -19.687   0.228  0.00  0.00     0.171 HD
BRANCH  25  28
ATOM     28  C   UNL d   1      20.959 -19.034   0.147  0.00  0.00     0.032 A 
ATOM     29  C   UNL d   1      20.093 -19.532  -0.848  0.00  0.00     0.017 A 
ATOM     30  C   UNL d   1      18.978 -20.313  -0.518  0.00  0.00     0.007 A 
ATOM     31  C   UNL d   1      18.705 -20.614   0.817  0.00  0.00    -0.062 A 
ATOM     32  C   UNL d   1      17.530 -21.468   1.201  0.00  0.00     0.048 C 
ATOM     33  C   UNL d   1      19.554 -20.111   1.809  0.00  0.00     0.007 A 
ATOM     34  C   UNL d   1      20.668 -19.325   1.482  0.00  0.00     0.017 A 
ENDBRANCH  25  28
ENDBRANCH   1  24
TORSDOF 6
ENDMDL
MODEL 3
REMARK VINA RESULT:    -9.439      2.456      2.594
REMARK INTER + INTRA:         -11.766
REMARK INTER:                 -11.229
REMARK INTRA:                  -0.537
REMARK CONF_INDEPENDENT:        1.790
REMARK UNBOUND:                -0.537
REMARK  6 active torsions:
REMARK  status: ('A' for Active; 'I' for Inactive)
REMARK    1  A    between atoms: C_5  and  C_6 
REMARK       I    between atoms: C_6  and  N_8 
REMARK    2  A    between atoms: N_8  and  C_9 
REMARK    3  A    between atoms: C_16  and  C_17 
REMARK       I    between atoms: C_17  and  N_19 
REMARK    4  A    between atoms: N_19  and  C_20 
REMARK    5  A    between atoms: C_22  and  C_23 
REMARK    6  A    between atoms: C_23  and  C_24 
REMARK       I    between atoms: C_24  and  N_25 
ROOT
ATOM      1  C   UNL d   1      25.008 -17.959  -0.220  0.00  0.00     0.174 A 
ATOM      2  N   UNL d   1      25.187 -16.961  -1.083  0.00  0.00    -0.227 NA
ATOM      3  C   UNL d   1      26.521 -16.596  -1.033  0.00  0.00     0.063 A 
ATOM      4  C   UNL d   1      27.298 -17.372  -0.224  0.00  0.00     0.012 A 
ATOM      5  S   UNL d   1      26.444 -18.583   0.522  0.00  0.00    -0.054 SA
ATOM      6  C   UNL d   1      28.716 -17.000  -0.177  0.00  0.00     0.049 C 
ATOM      7  C   UNL d   1      28.656 -15.567  -0.782  0.00  0.00     0.025 C 
ATOM      8  C   UNL d   1      27.354 -15.521  -1.684  0.00  0.00     0.131 C 
ENDROOT
BRANCH   8   9
ATOM      9  C   UNL d   1      26.795 -14.114  -1.764  0.00  0.00     0.233 C 
ATOM     10  O   UNL d   1      25.663 -13.917  -2.201  0.00  0.00    -0.272 OA
ATOM     11  N   UNL d   1      27.678 -13.142  -1.404  0.00  0.00    -0.305 N 
ATOM     12  H   UNL d   1      28.669 -13.336  -1.466  0.00  0.00     0.171 HD
BRANCH  11  13
ATOM     13  C   UNL d   1      27.363 -11.829  -1.475  0.00  0.00     0.173 A 
ATOM     14  N   UNL d   1      27.328 -10.863  -0.585  0.00  0.00    -0.228 NA
ATOM     15  C   UNL d   1      27.019  -9.649  -1.229  0.00  0.00     0.052 A 
ATOM     16  C   UNL d   1      26.719  -9.863  -2.561  0.00  0.00     0.081 A 
ATOM     17  S   UNL d   1      26.994 -11.452  -3.077  0.00  0.00    -0.062 SA
BRANCH  15  18
ATOM     18  C   UNL d   1      27.058  -8.364  -0.413  0.00  0.00     0.162 C 
BRANCH  18  19
ATOM     19  C   UNL d   1      25.750  -7.659  -0.034  0.00  0.00     0.221 C 
ATOM     20  N   UNL d   1      24.780  -7.386  -0.937  0.00  0.00    -0.370 N 
ATOM     21  H   UNL d   1      24.835  -7.529  -1.918  0.00  0.00     0.159 HD
ATOM     22  H   UNL d   1      23.936  -6.917  -0.645  0.00  0.00     0.159 HD
ATOM     23  O   UNL d   1      25.523  -7.308   1.136  0.00  0.00    -0.273 OA
ENDBRANCH  18  19
ENDBRANCH  15  18
ENDBRANCH  11  13
ENDBRANCH   8   9
BRANCH   1  24
ATOM     24  N   UNL d   1      23.829 -18.643   0.024  0.00  0.00    -0.301 N 
ATOM     25  C   UNL d   1      22.592 -18.071  -0.271  0.00  0.00     0.257 C 
ATOM     26  O   UNL d   1      22.445 -16.971  -0.808  0.00  0.00    -0.267 OA
ATOM     27  H   UNL d   1      23.930 -19.630   0.191  0.00  0.00     0.171 HD
BRANCH  25  28
ATOM     28  C   UNL d   1      21.344 -18.857   0.003  0.00  0.00     0.032 A 
ATOM     29  C   UNL d   1      20.483 -19.149  -1.074  0.00  0.00     0.017 A 
ATOM     30  C   UNL d   1      19.316 -19.902  -0.889  0.00  0.00     0.007 A 
ATOM     31  C   UNL d   1      18.985 -20.379   0.381  0.00  0.00    -0.062 A 
ATOM     32  C   UNL d   1      17.753 -21.208   0.607  0.00  0.00     0.048 C 
ATOM     33  C   UNL d   1      19.831 -20.080   1.455  0.00  0.00     0.007 A 
ATOM     34  C   UNL d   1      20.996 -19.323   1.273  0.00  0.00     0.017 A 
ENDBRANCH  25  28
ENDBRANCH   1  24
TORSDOF 6
ENDMDL
MODEL 4
REMARK VINA RESULT:    -9.147      4.830      9.314
REMARK INTER + INTRA:         -12.215
REMARK INTER:                 -10.937
REMARK INTRA:                  -1.279
REMARK CONF_INDEPENDENT:        1.790
REMARK UNBOUND:                -1.279
REMARK  6 active torsions:
REMARK  status: ('A' for Active; 'I' for Inactive)
REMARK    1  A    between atoms: C_5  and  C_6 
REMARK       I    between atoms: C_6  and  N_8 
REMARK    2  A    between atoms: N_8  and  C_9 
REMARK    3  A    between atoms: C_16  and  C_17 
REMARK       I    between atoms: C_17  and  N_19 
REMARK    4  A    between atoms: N_19  and  C_20 
REMARK    5  A    between atoms: C_22  and  C_23 
REMARK    6  A    between atoms: C_23  and  C_24 
REMARK       I    between atoms: C_24  and  N_25 
ROOT
ATOM      1  C   UNL d   1      27.929 -13.637   1.266  0.00  0.00     0.174 A 
ATOM      2  N   UNL d   1      27.548 -14.574   0.400  0.00  0.00    -0.227 NA
ATOM      3  C   UNL d   1      27.224 -13.941  -0.787  0.00  0.00     0.063 A 
ATOM      4  C   UNL d   1      27.452 -12.597  -0.802  0.00  0.00     0.012 A 
ATOM      5  S   UNL d   1      28.069 -12.031   0.630  0.00  0.00    -0.054 SA
ATOM      6  C   UNL d   1      27.125 -11.922  -2.062  0.00  0.00     0.049 C 
ATOM      7  C   UNL d   1      26.238 -13.004  -2.744  0.00  0.00     0.025 C 
ATOM      8  C   UNL d   1      26.671 -14.393  -2.116  0.00  0.00     0.131 C 
ENDROOT
BRANCH   8   9
ATOM      9  C   UNL d   1      25.521 -15.380  -2.129  0.00  0.00     0.233 C 
ATOM     10  O   UNL d   1      24.773 -15.452  -3.101  0.00  0.00    -0.272 OA
ATOM     11  N   UNL d   1      25.367 -16.073  -0.967  0.00  0.00    -0.305 N 
ATOM     12  H   UNL d   1      25.730 -15.675  -0.110  0.00  0.00     0.171 HD
BRANCH  11  13
ATOM     13  C   UNL d   1      24.354 -16.950  -0.787  0.00  0.00     0.173 A 
ATOM     14  N   UNL d   1      23.067 -16.903  -1.048  0.00  0.00    -0.228 NA
ATOM     15  C   UNL d   1      22.484 -18.147  -0.740  0.00  0.00     0.052 A 
ATOM     16  C   UNL d   1      23.406 -18.985  -0.139  0.00  0.00     0.081 A 
ATOM     17  S   UNL d   1      24.982 -18.368  -0.124  0.00  0.00    -0.062 SA
BRANCH  15  18
ATOM     18  C   UNL d   1      21.019 -18.371  -1.091  0.00  0.00     0.162 C 
BRANCH  18  19
ATOM     19  C   UNL d   1      20.272 -19.581  -0.518  0.00  0.00     0.221 C 
ATOM     20  N   UNL d   1      20.633 -20.180   0.639  0.00  0.00    -0.370 N 
ATOM     21  H   UNL d   1      21.435 -19.968   1.185  0.00  0.00     0.159 HD
ATOM     22  H   UNL d   1      20.116 -20.978   0.978  0.00  0.00     0.159 HD
ATOM     23  O   UNL d   1      19.289 -20.066  -1.103  0.00  0.00    -0.273 OA
ENDBRANCH  18  19
ENDBRANCH  15  18
ENDBRANCH  11  13
ENDBRANCH   8   9
BRANCH   1  24
ATOM     24  N   UNL d   1      28.366 -13.837   2.565  0.00  0.00    -0.301 N 
ATOM     25  C   UNL d   1      27.900 -13.043   3.611  0.00  0.00     0.257 C 
ATOM     26  O   UNL d   1      27.047 -12.162   3.488  0.00  0.00    -0.267 OA
ATOM     27  H   UNL d   1      28.834 -14.713   2.731  0.00  0.00     0.171 HD
BRANCH  25  28
ATOM     28  C   UNL d   1      28.399 -13.306   5.001  0.00  0.00     0.032 A 
ATOM     29  C   UNL d   1      27.812 -12.600   6.071  0.00  0.00     0.017 A 
ATOM     30  C   UNL d   1      28.213 -12.820   7.395  0.00  0.00     0.007 A 
ATOM     31  C   UNL d   1      29.213 -13.753   7.677  0.00  0.00    -0.062 A 
ATOM     32  C   UNL d   1      29.650 -14.027   9.088  0.00  0.00     0.048 C 
ATOM     33  C   UNL d   1      29.808 -14.446   6.617  0.00  0.00     0.007 A 
ATOM     34  C   UNL d   1      29.411 -14.225   5.291  0.00  0.00     0.017 A 
ENDBRANCH  25  28
ENDBRANCH   1  24
TORSDOF 6
ENDMDL
MODEL 5
REMARK VINA RESULT:    -8.979      4.441      9.825
REMARK INTER + INTRA:         -12.137
REMARK INTER:                 -10.769
REMARK INTRA:                  -1.368
REMARK CONF_INDEPENDENT:        1.790
REMARK UNBOUND:                -1.368
REMARK  6 active torsions:
REMARK  status: ('A' for Active; 'I' for Inactive)
REMARK    1  A    between atoms: C_5  and  C_6 
REMARK       I    between atoms: C_6  and  N_8 
REMARK    2  A    between atoms: N_8  and  C_9 
REMARK    3  A    between atoms: C_16  and  C_17 
REMARK       I    between atoms: C_17  and  N_19 
REMARK    4  A    between atoms: N_19  and  C_20 
REMARK    5  A    between atoms: C_22  and  C_23 
REMARK    6  A    between atoms: C_23  and  C_24 
REMARK       I    between atoms: C_24  and  N_25 
ROOT
ATOM      1  C   UNL d   1      28.463 -15.008  -5.731  0.00  0.00     0.174 A 
ATOM      2  N   UNL d   1      27.189 -15.200  -5.393  0.00  0.00    -0.227 NA
ATOM      3  C   UNL d   1      26.749 -14.059  -4.747  0.00  0.00     0.063 A 
ATOM      4  C   UNL d   1      27.654 -13.040  -4.703  0.00  0.00     0.012 A 
ATOM      5  S   UNL d   1      29.090 -13.419  -5.441  0.00  0.00    -0.054 SA
ATOM      6  C   UNL d   1      27.189 -11.821  -4.032  0.00  0.00     0.049 C 
ATOM      7  C   UNL d   1      25.950 -12.371  -3.267  0.00  0.00     0.025 C 
ATOM      8  C   UNL d   1      25.467 -13.651  -4.067  0.00  0.00     0.131 C 
ENDROOT
BRANCH   8   9
ATOM      9  C   UNL d   1      24.781 -14.642  -3.148  0.00  0.00     0.233 C 
ATOM     10  O   UNL d   1      23.626 -14.450  -2.775  0.00  0.00    -0.272 OA
ATOM     11  N   UNL d   1      25.580 -15.664  -2.733  0.00  0.00    -0.305 N 
ATOM     12  H   UNL d   1      26.583 -15.529  -2.734  0.00  0.00     0.171 HD
BRANCH  11  13
ATOM     13  C   UNL d   1      25.146 -16.602  -1.862  0.00  0.00     0.173 A 
ATOM     14  N   UNL d   1      23.976 -17.160  -1.652  0.00  0.00    -0.228 NA
ATOM     15  C   UNL d   1      24.108 -18.162  -0.670  0.00  0.00     0.052 A 
ATOM     16  C   UNL d   1      25.384 -18.160  -0.138  0.00  0.00     0.081 A 
ATOM     17  S   UNL d   1      26.455 -17.119  -0.933  0.00  0.00    -0.062 SA
BRANCH  15  18
ATOM     18  C   UNL d   1      22.902 -19.039  -0.361  0.00  0.00     0.162 C 
BRANCH  18  19
ATOM     19  C   UNL d   1      21.518 -18.653  -0.896  0.00  0.00     0.221 C 
ATOM     20  N   UNL d   1      21.207 -17.391  -1.270  0.00  0.00    -0.370 N 
ATOM     21  H   UNL d   1      21.784 -16.590  -1.170  0.00  0.00     0.159 HD
ATOM     22  H   UNL d   1      20.282 -17.179  -1.613  0.00  0.00     0.159 HD
ATOM     23  O   UNL d   1      20.614 -19.497  -1.011  0.00  0.00    -0.273 OA
ENDBRANCH  18  19
ENDBRANCH  15  18
ENDBRANCH  11  13
ENDBRANCH   8   9
BRANCH   1  24
ATOM     24  N   UNL d   1      29.280 -15.888  -6.422  0.00  0.00    -0.301 N 
ATOM     25  C   UNL d   1      29.913 -16.945  -5.769  0.00  0.00     0.257 C 
ATOM     26  O   UNL d   1      29.763 -17.215  -4.576  0.00  0.00    -0.267 OA
ATOM     27  H   UNL d   1      29.193 -15.859  -7.424  0.00  0.00     0.171 HD
BRANCH  25  28
ATOM     28  C   UNL d   1      30.780 -17.875  -6.565  0.00  0.00     0.032 A 
ATOM     29  C   UNL d   1      30.508 -19.257  -6.512  0.00  0.00     0.017 A 
ATOM     30  C   UNL d   1      31.263 -20.176  -7.253  0.00  0.00     0.007 A 
ATOM     31  C   UNL d   1      32.309 -19.730  -8.063  0.00  0.00    -0.062 A 
ATOM     32  C   UNL d   1      33.122 -20.688  -8.887  0.00  0.00     0.048 C 
ATOM     33  C   UNL d   1      32.590 -18.359  -8.108  0.00  0.00     0.007 A 
ATOM     34  C   UNL d   1      31.839 -17.439  -7.365  0.00  0.00     0.017 A 
ENDBRANCH  25  28
ENDBRANCH   1  24
TORSDOF 6
ENDMDL
MODEL 6
REMARK VINA RESULT:    -8.787      2.073     10.319
REMARK INTER + INTRA:         -11.134
REMARK INTER:                 -10.577
REMARK INTRA:                  -0.557
REMARK CONF_INDEPENDENT:        1.790
REMARK UNBOUND:                -0.557
REMARK  6 active torsions:
REMARK  status: ('A' for Active; 'I' for Inactive)
REMARK    1  A    between atoms: C_5  and  C_6 
REMARK       I    between atoms: C_6  and  N_8 
REMARK    2  A    between atoms: N_8  and  C_9 
REMARK    3  A    between atoms: C_16  and  C_17 
REMARK       I    between atoms: C_17  and  N_19 
REMARK    4  A    between atoms: N_19  and  C_20 
REMARK    5  A    between atoms: C_22  and  C_23 
REMARK    6  A    between atoms: C_23  and  C_24 
REMARK       I    between atoms: C_24  and  N_25 
ROOT
ATOM      1  C   UNL d   1      26.415 -11.609  -5.825  0.00  0.00     0.174 A 
ATOM      2  N   UNL d   1      26.202 -12.309  -4.712  0.00  0.00    -0.227 NA
ATOM      3  C   UNL d   1      27.092 -13.368  -4.704  0.00  0.00     0.063 A 
ATOM      4  C   UNL d   1      27.982 -13.377  -5.737  0.00  0.00     0.012 A 
ATOM      5  S   UNL d   1      27.779 -12.100  -6.776  0.00  0.00    -0.054 SA
ATOM      6  C   UNL d   1      28.939 -14.488  -5.728  0.00  0.00     0.049 C 
ATOM      7  C   UNL d   1      28.246 -15.453  -4.721  0.00  0.00     0.025 C 
ATOM      8  C   UNL d   1      27.333 -14.547  -3.795  0.00  0.00     0.131 C 
ENDROOT
BRANCH   8   9
ATOM      9  C   UNL d   1      26.139 -15.324  -3.278  0.00  0.00     0.233 C 
ATOM     10  O   UNL d   1      25.014 -15.105  -3.721  0.00  0.00    -0.272 OA
ATOM     11  N   UNL d   1      26.429 -16.179  -2.258  0.00  0.00    -0.305 N 
ATOM     12  H   UNL d   1      27.247 -16.000  -1.689  0.00  0.00     0.171 HD
BRANCH  11  13
ATOM     13  C   UNL d   1      25.470 -16.904  -1.639  0.00  0.00     0.173 A 
ATOM     14  N   UNL d   1      24.324 -17.406  -2.039  0.00  0.00    -0.228 NA
ATOM     15  C   UNL d   1      23.760 -18.166  -0.996  0.00  0.00     0.052 A 
ATOM     16  C   UNL d   1      24.509 -18.042   0.160  0.00  0.00     0.081 A 
ATOM     17  S   UNL d   1      25.960 -17.198  -0.052  0.00  0.00    -0.062 SA
BRANCH  15  18
ATOM     18  C   UNL d   1      22.491 -18.959  -1.279  0.00  0.00     0.162 C 
BRANCH  18  19
ATOM     19  C   UNL d   1      21.205 -18.642  -0.506  0.00  0.00     0.221 C 
ATOM     20  N   UNL d   1      20.901 -19.225   0.676  0.00  0.00    -0.370 N 
ATOM     21  H   UNL d   1      21.411 -19.951   1.120  0.00  0.00     0.159 HD
ATOM     22  H   UNL d   1      20.041 -18.990   1.149  0.00  0.00     0.159 HD
ATOM     23  O   UNL d   1      20.378 -17.823  -0.941  0.00  0.00    -0.273 OA
ENDBRANCH  18  19
ENDBRANCH  15  18
ENDBRANCH  11  13
ENDBRANCH   8   9
BRANCH   1  24
ATOM     24  N   UNL d   1      25.763 -10.452  -6.214  0.00  0.00    -0.301 N 
ATOM     25  C   UNL d   1      25.204  -9.590  -5.272  0.00  0.00     0.257 C 
ATOM     26  O   UNL d   1      25.287  -9.745  -4.052  0.00  0.00    -0.267 OA
ATOM     27  H   UNL d   1      25.927 -10.164  -7.164  0.00  0.00     0.171 HD
BRANCH  25  28
ATOM     28  C   UNL d   1      24.516  -8.344  -5.745  0.00  0.00     0.032 A 
ATOM     29  C   UNL d   1      25.123  -7.589  -6.770  0.00  0.00     0.017 A 
ATOM     30  C   UNL d   1      24.519  -6.430  -7.275  0.00  0.00     0.007 A 
ATOM     31  C   UNL d   1      23.292  -6.001  -6.764  0.00  0.00    -0.062 A 
ATOM     32  C   UNL d   1      22.609  -4.775  -7.300  0.00  0.00     0.048 C 
ATOM     33  C   UNL d   1      22.694  -6.740  -5.737  0.00  0.00     0.007 A 
ATOM     34  C   UNL d   1      23.298  -7.897  -5.227  0.00  0.00     0.017 A 
ENDBRANCH  25  28
ENDBRANCH   1  24
TORSDOF 6
ENDMDL
MODEL 7
REMARK VINA RESULT:    -7.862      4.501      8.178
REMARK INTER + INTRA:         -10.792
REMARK INTER:                  -9.652
REMARK INTRA:                  -1.139
REMARK CONF_INDEPENDENT:        1.790
REMARK UNBOUND:                -1.139
REMARK  6 active torsions:
REMARK  status: ('A' for Active; 'I' for Inactive)
REMARK    1  A    between atoms: C_5  and  C_6 
REMARK       I    between atoms: C_6  and  N_8 
REMARK    2  A    between atoms: N_8  and  C_9 
REMARK    3  A    between atoms: C_16  and  C_17 
REMARK       I    between atoms: C_17  and  N_19 
REMARK    4  A    between atoms: N_19  and  C_20 
REMARK    5  A    between atoms: C_22  and  C_23 
REMARK    6  A    between atoms: C_23  and  C_24 
REMARK       I    between atoms: C_24  and  N_25 
ROOT
ATOM      1  C   UNL d   1      25.149 -17.430  -1.267  0.00  0.00     0.174 A 
ATOM      2  N   UNL d   1      26.394 -17.707  -0.882  0.00  0.00    -0.227 NA
ATOM      3  C   UNL d   1      27.202 -16.661  -1.289  0.00  0.00     0.063 A 
ATOM      4  C   UNL d   1      26.541 -15.617  -1.868  0.00  0.00     0.012 A 
ATOM      5  S   UNL d   1      24.903 -15.859  -1.953  0.00  0.00    -0.054 SA
ATOM      6  C   UNL d   1      27.390 -14.497  -2.288  0.00  0.00     0.049 C 
ATOM      7  C   UNL d   1      28.792 -15.174  -2.260  0.00  0.00     0.025 C 
ATOM      8  C   UNL d   1      28.682 -16.378  -1.235  0.00  0.00     0.131 C 
ENDROOT
BRANCH   8   9
ATOM      9  C   UNL d   1      29.650 -17.489  -1.593  0.00  0.00     0.233 C 
ATOM     10  O   UNL d   1      29.882 -17.758  -2.770  0.00  0.00    -0.272 OA
ATOM     11  N   UNL d   1      30.132 -18.176  -0.521  0.00  0.00    -0.305 N 
ATOM     12  H   UNL d   1      29.596 -18.180   0.337  0.00  0.00     0.171 HD
BRANCH  11  13
ATOM     13  C   UNL d   1      30.958 -19.236  -0.664  0.00  0.00     0.173 A 
ATOM     14  N   UNL d   1      30.821 -20.521  -0.428  0.00  0.00    -0.228 NA
ATOM     15  C   UNL d   1      31.980 -21.199  -0.852  0.00  0.00     0.052 A 
ATOM     16  C   UNL d   1      32.951 -20.301  -1.259  0.00  0.00     0.081 A 
ATOM     17  S   UNL d   1      32.416 -18.697  -1.319  0.00  0.00    -0.062 SA
BRANCH  15  18
ATOM     18  C   UNL d   1      31.992 -22.721  -0.802  0.00  0.00     0.162 C 
BRANCH  18  19
ATOM     19  C   UNL d   1      30.864 -23.470  -0.084  0.00  0.00     0.221 C 
ATOM     20  N   UNL d   1      29.617 -22.962   0.046  0.00  0.00    -0.370 N 
ATOM     21  H   UNL d   1      29.323 -22.053  -0.225  0.00  0.00     0.159 HD
ATOM     22  H   UNL d   1      28.905 -23.488   0.531  0.00  0.00     0.159 HD
ATOM     23  O   UNL d   1      31.052 -24.592   0.414  0.00  0.00    -0.273 OA
ENDBRANCH  18  19
ENDBRANCH  15  18
ENDBRANCH  11  13
ENDBRANCH   8   9
BRANCH   1  24
ATOM     24  N   UNL d   1      24.020 -18.198  -1.036  0.00  0.00    -0.301 N 
ATOM     25  C   UNL d   1      22.877 -17.641  -0.463  0.00  0.00     0.257 C 
ATOM     26  O   UNL d   1      22.754 -16.449  -0.176  0.00  0.00    -0.267 OA
ATOM     27  H   UNL d   1      23.997 -19.084  -1.512  0.00  0.00     0.171 HD
BRANCH  25  28
ATOM     28  C   UNL d   1      21.677 -18.513  -0.242  0.00  0.00     0.032 A 
ATOM     29  C   UNL d   1      21.396 -18.950   1.069  0.00  0.00     0.017 A 
ATOM     30  C   UNL d   1      20.276 -19.744   1.346  0.00  0.00     0.007 A 
ATOM     31  C   UNL d   1      19.411 -20.119   0.316  0.00  0.00    -0.062 A 
ATOM     32  C   UNL d   1      18.190 -20.951   0.586  0.00  0.00     0.048 C 
ATOM     33  C   UNL d   1      19.694 -19.699  -0.988  0.00  0.00     0.007 A 
ATOM     34  C   UNL d   1      20.816 -18.908  -1.269  0.00  0.00     0.017 A 
ENDBRANCH  25  28
ENDBRANCH   1  24
TORSDOF 6
ENDMDL
