MODEL 1
REMARK VINA RESULT:    -8.131      0.000      0.000
REMARK INTER + INTRA:         -12.024
REMARK INTER:                 -10.816
REMARK INTRA:                  -1.208
REMARK CONF_INDEPENDENT:        2.685
REMARK UNBOUND:                -1.208
REMARK  9 active torsions:
REMARK  status: ('A' for Active; 'I' for Inactive)
REMARK    1  A    between atoms: O_2  and  C_3 
REMARK    2  A    between atoms: C_5  and  C_6 
REMARK    3  A    between atoms: N_7  and  N_8 
REMARK       I    between atoms: N_8  and  C_9 
REMARK    4  A    between atoms: C_9  and  C_11 
REMARK    5  A    between atoms: C_13  and  C_14 
REMARK    6  A    between atoms: C_17  and  O_18 
REMARK    7  A    between atoms: O_18  and  C_19 
REMARK    8  A    between atoms: C_19  and  C_20 
REMARK    9  A    between atoms: C_33  and  O_34 
ROOT
ATOM      1  C   UNL d   1      27.756 -14.560   1.228  0.00  0.00     0.121 A 
ATOM      2  C   UNL d   1      27.445 -14.082  -0.031  0.00  0.00     0.071 A 
ATOM      3  C   UNL d   1      27.958 -15.028  -0.964  0.00  0.00     0.089 A 
ATOM      4  N   UNL d   1      28.540 -16.050  -0.322  0.00  0.00    -0.174 NA
ATOM      5  N   UNL d   1      28.466 -15.710   0.983  0.00  0.00    -0.272 N 
ATOM      6  H   UNL d   1      28.904 -16.324   1.666  0.00  0.00     0.189 HD
ENDROOT
BRANCH   1   7
ATOM      7  C   UNL d   1      27.553 -14.013   2.554  0.00  0.00     0.289 C 
ATOM      8  N   UNL d   1      28.208 -14.669   3.604  0.00  0.00    -0.242 N 
ATOM      9  H   UNL d   1      28.855 -15.425   3.411  0.00  0.00     0.192 HD
ATOM     10  O   UNL d   1      26.856 -13.004   2.713  0.00  0.00    -0.264 OA
BRANCH   8  11
ATOM     11  N   UNL d   1      28.058 -14.208   4.902  0.00  0.00    -0.183 NA
ATOM     12  C   UNL d   1      29.111 -14.046   5.648  0.00  0.00     0.150 C 
BRANCH  12  13
ATOM     13  C   UNL d   1      28.995 -13.569   7.069  0.00  0.00    -0.014 A 
ATOM     14  C   UNL d   1      29.111 -14.449   8.160  0.00  0.00     0.052 A 
ATOM     15  C   UNL d   1      28.990 -13.983   9.493  0.00  0.00     0.102 A 
ATOM     16  C   UNL d   1      28.766 -12.616   9.717  0.00  0.00     0.099 A 
ATOM     17  C   UNL d   1      28.649 -11.741   8.638  0.00  0.00     0.040 A 
ATOM     18  C   UNL d   1      28.759 -12.214   7.324  0.00  0.00     0.016 A 
BRANCH  15  19
ATOM     19  O   UNL d   1      29.111 -14.963  10.449  0.00  0.00    -0.353 OA
ATOM     20  C   UNL d   1      30.414 -15.501  10.681  0.00  0.00     0.210 C 
ENDBRANCH  15  19
BRANCH  16  21
ATOM     21  O   UNL d   1      28.658 -12.106  10.982  0.00  0.00    -0.358 OA
ATOM     22  H   UNL d   1      28.530 -11.144  10.955  0.00  0.00     0.217 HD
ENDBRANCH  16  21
ENDBRANCH  12  13
ENDBRANCH   8  11
ENDBRANCH   1   7
BRANCH   3  23
ATOM     23  C   UNL d   1      27.905 -14.933  -2.423  0.00  0.00    -0.005 A 
ATOM     24  C   UNL d   1      26.665 -14.872  -3.068  0.00  0.00     0.016 A 
ATOM     25  C   UNL d   1      26.582 -14.835  -4.466  0.00  0.00     0.037 A 
ATOM     26  C   UNL d   1      27.742 -14.861  -5.240  0.00  0.00     0.069 A 
ATOM     27  C   UNL d   1      28.984 -14.925  -4.601  0.00  0.00     0.037 A 
ATOM     28  C   UNL d   1      29.068 -14.953  -3.201  0.00  0.00     0.016 A 
BRANCH  26  29
ATOM     29  O   UNL d   1      27.778 -14.830  -6.608  0.00  0.00    -0.347 OA
BRANCH  29  30
ATOM     30  C   UNL d   1      28.680 -13.892  -7.205  0.00  0.00     0.216 C 
BRANCH  30  31
ATOM     31  C   UNL d   1      27.978 -12.561  -7.285  0.00  0.00    -0.012 A 
ATOM     32  C   UNL d   1      27.529 -11.960  -6.094  0.00  0.00     0.011 A 
ATOM     33  C   UNL d   1      26.743 -10.807  -6.129  0.00  0.00     0.001 A 
ATOM     34  C   UNL d   1      26.454 -10.199  -7.347  0.00  0.00     0.002 A 
ATOM     35  C   UNL d   1      26.924 -10.761  -8.533  0.00  0.00     0.024 A 
ATOM     36  C   UNL d   1      27.675 -11.940  -8.505  0.00  0.00     0.042 A 
ATOM     37 CL   UNL d   1      28.209 -12.573 -10.023  0.00  0.00    -0.084 Cl
ENDBRANCH  30  31
ENDBRANCH  29  30
ENDBRANCH  26  29
ENDBRANCH   3  23
TORSDOF 9
ENDMDL
MODEL 2
REMARK VINA RESULT:    -7.921      4.369     13.582
REMARK INTER + INTRA:         -12.502
REMARK INTER:                 -10.605
REMARK INTRA:                  -1.897
REMARK CONF_INDEPENDENT:        2.685
REMARK UNBOUND:                -1.897
REMARK  9 active torsions:
REMARK  status: ('A' for Active; 'I' for Inactive)
REMARK    1  A    between atoms: O_2  and  C_3 
REMARK    2  A    between atoms: C_5  and  C_6 
REMARK    3  A    between atoms: N_7  and  N_8 
REMARK       I    between atoms: N_8  and  C_9 
REMARK    4  A    between atoms: C_9  and  C_11 
REMARK    5  A    between atoms: C_13  and  C_14 
REMARK    6  A    between atoms: C_17  and  O_18 
REMARK    7  A    between atoms: O_18  and  C_19 
REMARK    8  A    between atoms: C_19  and  C_20 
REMARK    9  A    between atoms: C_33  and  O_34 
ROOT
ATOM      1  C   UNL d   1      28.251 -14.088   3.878  0.00  0.00     0.121 A 
ATOM      2  C   UNL d   1      28.419 -13.038   4.761  0.00  0.00     0.071 A 
ATOM      3  C   UNL d   1      28.900 -13.603   5.978  0.00  0.00     0.089 A 
ATOM      4  N   UNL d   1      29.043 -14.929   5.854  0.00  0.00    -0.174 NA
ATOM      5  N   UNL d   1      28.583 -15.200   4.613  0.00  0.00    -0.272 N 
ATOM      6  H   UNL d   1      28.542 -16.173   4.318  0.00  0.00     0.189 HD
ENDROOT
BRANCH   1   7
ATOM      7  C   UNL d   1      27.737 -14.149   2.524  0.00  0.00     0.289 C 
ATOM      8  N   UNL d   1      28.247 -15.169   1.711  0.00  0.00    -0.242 N 
ATOM      9  H   UNL d   1      28.870 -15.869   2.098  0.00  0.00     0.192 HD
ATOM     10  O   UNL d   1      26.876 -13.346   2.148  0.00  0.00    -0.264 OA
BRANCH   8  11
ATOM     11  N   UNL d   1      27.808 -15.288   0.403  0.00  0.00    -0.183 NA
ATOM     12  C   UNL d   1      28.597 -14.933  -0.569  0.00  0.00     0.150 C 
BRANCH  12  13
ATOM     13  C   UNL d   1      28.156 -15.023  -2.004  0.00  0.00    -0.014 A 
ATOM     14  C   UNL d   1      26.809 -14.875  -2.378  0.00  0.00     0.052 A 
ATOM     15  C   UNL d   1      26.411 -14.973  -3.735  0.00  0.00     0.102 A 
ATOM     16  C   UNL d   1      27.387 -15.205  -4.715  0.00  0.00     0.099 A 
ATOM     17  C   UNL d   1      28.725 -15.354  -4.348  0.00  0.00     0.040 A 
ATOM     18  C   UNL d   1      29.105 -15.267  -3.003  0.00  0.00     0.016 A 
BRANCH  15  19
ATOM     19  O   UNL d   1      25.060 -14.822  -3.942  0.00  0.00    -0.353 OA
ATOM     20  C   UNL d   1      24.585 -13.515  -4.267  0.00  0.00     0.210 C 
ENDBRANCH  15  19
BRANCH  16  21
ATOM     21  O   UNL d   1      27.065 -15.291  -6.042  0.00  0.00    -0.358 OA
ATOM     22  H   UNL d   1      26.125 -15.096  -6.181  0.00  0.00     0.217 HD
ENDBRANCH  16  21
ENDBRANCH  12  13
ENDBRANCH   8  11
ENDBRANCH   1   7
BRANCH   3  23
ATOM     23  C   UNL d   1      29.189 -12.884   7.219  0.00  0.00    -0.005 A 
ATOM     24  C   UNL d   1      30.502 -12.495   7.505  0.00  0.00     0.016 A 
ATOM     25  C   UNL d   1      30.816 -11.854   8.710  0.00  0.00     0.037 A 
ATOM     26  C   UNL d   1      29.819 -11.595   9.650  0.00  0.00     0.069 A 
ATOM     27  C   UNL d   1      28.505 -11.984   9.371  0.00  0.00     0.037 A 
ATOM     28  C   UNL d   1      28.188 -12.618   8.160  0.00  0.00     0.016 A 
BRANCH  26  29
ATOM     29  O   UNL d   1      30.012 -10.978  10.856  0.00  0.00    -0.347 OA
BRANCH  29  30
ATOM     30  C   UNL d   1      30.102 -11.828  12.005  0.00  0.00     0.216 C 
BRANCH  30  31
ATOM     31  C   UNL d   1      30.661 -13.153  11.557  0.00  0.00    -0.012 A 
ATOM     32  C   UNL d   1      32.038 -13.248  11.281  0.00  0.00     0.011 A 
ATOM     33  C   UNL d   1      32.575 -14.408  10.720  0.00  0.00     0.001 A 
ATOM     34  C   UNL d   1      31.759 -15.512  10.494  0.00  0.00     0.002 A 
ATOM     35  C   UNL d   1      30.400 -15.447  10.798  0.00  0.00     0.024 A 
ATOM     36  C   UNL d   1      29.851 -14.273  11.319  0.00  0.00     0.042 A 
ATOM     37 CL   UNL d   1      28.156 -14.276  11.658  0.00  0.00    -0.084 Cl
ENDBRANCH  30  31
ENDBRANCH  29  30
ENDBRANCH  26  29
ENDBRANCH   3  23
TORSDOF 9
ENDMDL
MODEL 3
REMARK VINA RESULT:    -7.897      4.096     13.504
REMARK INTER + INTRA:         -12.407
REMARK INTER:                 -10.582
REMARK INTRA:                  -1.826
REMARK CONF_INDEPENDENT:        2.685
REMARK UNBOUND:                -1.826
REMARK  9 active torsions:
REMARK  status: ('A' for Active; 'I' for Inactive)
REMARK    1  A    between atoms: O_2  and  C_3 
REMARK    2  A    between atoms: C_5  and  C_6 
REMARK    3  A    between atoms: N_7  and  N_8 
REMARK       I    between atoms: N_8  and  C_9 
REMARK    4  A    between atoms: C_9  and  C_11 
REMARK    5  A    between atoms: C_13  and  C_14 
REMARK    6  A    between atoms: C_17  and  O_18 
REMARK    7  A    between atoms: O_18  and  C_19 
REMARK    8  A    between atoms: C_19  and  C_20 
REMARK    9  A    between atoms: C_33  and  O_34 
ROOT
ATOM      1  C   UNL d   1      28.173 -14.008   3.995  0.00  0.00     0.121 A 
ATOM      2  C   UNL d   1      28.188 -13.148   5.078  0.00  0.00     0.071 A 
ATOM      3  C   UNL d   1      28.553 -13.928   6.213  0.00  0.00     0.089 A 
ATOM      4  N   UNL d   1      28.773 -15.200   5.855  0.00  0.00    -0.174 NA
ATOM      5  N   UNL d   1      28.471 -15.234   4.539  0.00  0.00    -0.272 N 
ATOM      6  H   UNL d   1      28.511 -16.131   4.060  0.00  0.00     0.189 HD
ENDROOT
BRANCH   1   7
ATOM      7  C   UNL d   1      27.820 -13.815   2.603  0.00  0.00     0.289 C 
ATOM      8  N   UNL d   1      28.505 -14.608   1.673  0.00  0.00    -0.242 N 
ATOM      9  H   UNL d   1      29.140 -15.333   1.987  0.00  0.00     0.192 HD
ATOM     10  O   UNL d   1      26.939 -13.007   2.290  0.00  0.00    -0.264 OA
BRANCH   8  11
ATOM     11  N   UNL d   1      28.227 -14.477   0.323  0.00  0.00    -0.183 NA
ATOM     12  C   UNL d   1      28.209 -15.537  -0.431  0.00  0.00     0.150 C 
BRANCH  12  13
ATOM     13  C   UNL d   1      27.934 -15.440  -1.907  0.00  0.00    -0.014 A 
ATOM     14  C   UNL d   1      26.661 -15.109  -2.405  0.00  0.00     0.052 A 
ATOM     15  C   UNL d   1      26.419 -15.032  -3.799  0.00  0.00     0.102 A 
ATOM     16  C   UNL d   1      27.476 -15.277  -4.688  0.00  0.00     0.099 A 
ATOM     17  C   UNL d   1      28.739 -15.608  -4.198  0.00  0.00     0.040 A 
ATOM     18  C   UNL d   1      28.965 -15.692  -2.818  0.00  0.00     0.016 A 
BRANCH  15  19
ATOM     19  O   UNL d   1      25.124 -14.712  -4.133  0.00  0.00    -0.353 OA
ATOM     20  C   UNL d   1      24.780 -13.327  -4.186  0.00  0.00     0.210 C 
ENDBRANCH  15  19
BRANCH  16  21
ATOM     21  O   UNL d   1      27.306 -15.200  -6.043  0.00  0.00    -0.358 OA
ATOM     22  H   UNL d   1      26.364 -15.233  -6.274  0.00  0.00     0.217 HD
ENDBRANCH  16  21
ENDBRANCH  12  13
ENDBRANCH   8  11
ENDBRANCH   1   7
BRANCH   3  23
ATOM     23  C   UNL d   1      28.663 -13.459   7.594  0.00  0.00    -0.005 A 
ATOM     24  C   UNL d   1      28.906 -14.380   8.620  0.00  0.00     0.016 A 
ATOM     25  C   UNL d   1      28.962 -13.967   9.957  0.00  0.00     0.037 A 
ATOM     26  C   UNL d   1      28.773 -12.626  10.289  0.00  0.00     0.069 A 
ATOM     27  C   UNL d   1      28.528 -11.702   9.268  0.00  0.00     0.037 A 
ATOM     28  C   UNL d   1      28.480 -12.113   7.927  0.00  0.00     0.016 A 
BRANCH  26  29
ATOM     29  O   UNL d   1      28.806 -12.114  11.558  0.00  0.00    -0.347 OA
BRANCH  29  30
ATOM     30  C   UNL d   1      30.097 -11.971  12.160  0.00  0.00     0.216 C 
BRANCH  30  31
ATOM     31  C   UNL d   1      30.739 -10.733  11.588  0.00  0.00    -0.012 A 
ATOM     32  C   UNL d   1      30.406  -9.481  12.139  0.00  0.00     0.011 A 
ATOM     33  C   UNL d   1      30.855  -8.299  11.548  0.00  0.00     0.001 A 
ATOM     34  C   UNL d   1      31.699  -8.352  10.443  0.00  0.00     0.002 A 
ATOM     35  C   UNL d   1      32.069  -9.585   9.909  0.00  0.00     0.024 A 
ATOM     36  C   UNL d   1      31.586 -10.770  10.472  0.00  0.00     0.042 A 
ATOM     37 CL   UNL d   1      32.088 -12.254   9.740  0.00  0.00    -0.084 Cl
ENDBRANCH  30  31
ENDBRANCH  29  30
ENDBRANCH  26  29
ENDBRANCH   3  23
TORSDOF 9
ENDMDL
MODEL 4
REMARK VINA RESULT:    -7.795      4.118     13.613
REMARK INTER + INTRA:         -12.363
REMARK INTER:                 -10.480
REMARK INTRA:                  -1.884
REMARK CONF_INDEPENDENT:        2.685
REMARK UNBOUND:                -1.884
REMARK  9 active torsions:
REMARK  status: ('A' for Active; 'I' for Inactive)
REMARK    1  A    between atoms: O_2  and  C_3 
REMARK    2  A    between atoms: C_5  and  C_6 
REMARK    3  A    between atoms: N_7  and  N_8 
REMARK       I    between atoms: N_8  and  C_9 
REMARK    4  A    between atoms: C_9  and  C_11 
REMARK    5  A    between atoms: C_13  and  C_14 
REMARK    6  A    between atoms: C_17  and  O_18 
REMARK    7  A    between atoms: O_18  and  C_19 
REMARK    8  A    between atoms: C_19  and  C_20 
REMARK    9  A    between atoms: C_33  and  O_34 
ROOT
ATOM      1  C   UNL d   1      28.202 -13.965   4.059  0.00  0.00     0.121 A 
ATOM      2  C   UNL d   1      28.036 -13.183   5.186  0.00  0.00     0.071 A 
ATOM      3  C   UNL d   1      28.593 -13.914   6.275  0.00  0.00     0.089 A 
ATOM      4  N   UNL d   1      29.097 -15.079   5.847  0.00  0.00    -0.174 NA
ATOM      5  N   UNL d   1      28.788 -15.114   4.533  0.00  0.00    -0.272 N 
ATOM      6  H   UNL d   1      29.027 -15.950   4.004  0.00  0.00     0.189 HD
ENDROOT
BRANCH   1   7
ATOM      7  C   UNL d   1      27.789 -13.788   2.681  0.00  0.00     0.289 C 
ATOM      8  N   UNL d   1      28.309 -14.701   1.754  0.00  0.00    -0.242 N 
ATOM      9  H   UNL d   1      28.866 -15.487   2.067  0.00  0.00     0.192 HD
ATOM     10  O   UNL d   1      26.999 -12.887   2.379  0.00  0.00    -0.264 OA
BRANCH   8  11
ATOM     11  N   UNL d   1      27.965 -14.592   0.417  0.00  0.00    -0.183 NA
ATOM     12  C   UNL d   1      28.359 -15.506  -0.420  0.00  0.00     0.150 C 
BRANCH  12  13
ATOM     13  C   UNL d   1      28.028 -15.419  -1.884  0.00  0.00    -0.014 A 
ATOM     14  C   UNL d   1      26.733 -15.114  -2.337  0.00  0.00     0.052 A 
ATOM     15  C   UNL d   1      26.438 -15.045  -3.721  0.00  0.00     0.102 A 
ATOM     16  C   UNL d   1      27.467 -15.270  -4.648  0.00  0.00     0.099 A 
ATOM     17  C   UNL d   1      28.753 -15.575  -4.203  0.00  0.00     0.040 A 
ATOM     18  C   UNL d   1      29.031 -15.652  -2.832  0.00  0.00     0.016 A 
BRANCH  15  19
ATOM     19  O   UNL d   1      25.126 -14.752  -4.008  0.00  0.00    -0.353 OA
ATOM     20  C   UNL d   1      24.780 -13.377  -4.185  0.00  0.00     0.210 C 
ENDBRANCH  15  19
BRANCH  16  21
ATOM     21  O   UNL d   1      27.246 -15.200  -5.996  0.00  0.00    -0.358 OA
ATOM     22  H   UNL d   1      26.347 -14.886  -6.181  0.00  0.00     0.217 HD
ENDBRANCH  16  21
ENDBRANCH  12  13
ENDBRANCH   8  11
ENDBRANCH   1   7
BRANCH   3  23
ATOM     23  C   UNL d   1      28.616 -13.506   7.679  0.00  0.00    -0.005 A 
ATOM     24  C   UNL d   1      28.905 -14.450   8.671  0.00  0.00     0.016 A 
ATOM     25  C   UNL d   1      28.880 -14.100  10.026  0.00  0.00     0.037 A 
ATOM     26  C   UNL d   1      28.563 -12.798  10.412  0.00  0.00     0.069 A 
ATOM     27  C   UNL d   1      28.270 -11.851   9.426  0.00  0.00     0.037 A 
ATOM     28  C   UNL d   1      28.303 -12.198   8.067  0.00  0.00     0.016 A 
BRANCH  26  29
ATOM     29  O   UNL d   1      28.508 -12.348  11.703  0.00  0.00    -0.347 OA
BRANCH  29  30
ATOM     30  C   UNL d   1      29.657 -11.643  12.187  0.00  0.00     0.216 C 
BRANCH  30  31
ATOM     31  C   UNL d   1      30.881 -12.299  11.603  0.00  0.00    -0.012 A 
ATOM     32  C   UNL d   1      31.316 -13.524  12.143  0.00  0.00     0.011 A 
ATOM     33  C   UNL d   1      32.525 -14.093  11.740  0.00  0.00     0.001 A 
ATOM     34  C   UNL d   1      33.281 -13.484  10.742  0.00  0.00     0.002 A 
ATOM     35  C   UNL d   1      32.844 -12.290  10.170  0.00  0.00     0.024 A 
ATOM     36  C   UNL d   1      31.656 -11.696  10.602  0.00  0.00     0.042 A 
ATOM     37 CL   UNL d   1      31.194 -10.211   9.844  0.00  0.00    -0.084 Cl
ENDBRANCH  30  31
ENDBRANCH  29  30
ENDBRANCH  26  29
ENDBRANCH   3  23
TORSDOF 9
ENDMDL
MODEL 5
REMARK VINA RESULT:    -7.522      7.226      9.055
REMARK INTER + INTRA:         -11.718
REMARK INTER:                 -10.206
REMARK INTRA:                  -1.512
REMARK CONF_INDEPENDENT:        2.685
REMARK UNBOUND:                -1.512
REMARK  9 active torsions:
REMARK  status: ('A' for Active; 'I' for Inactive)
REMARK    1  A    between atoms: O_2  and  C_3 
REMARK    2  A    between atoms: C_5  and  C_6 
REMARK    3  A    between atoms: N_7  and  N_8 
REMARK       I    between atoms: N_8  and  C_9 
REMARK    4  A    between atoms: C_9  and  C_11 
REMARK    5  A    between atoms: C_13  and  C_14 
REMARK    6  A    between atoms: C_17  and  O_18 
REMARK    7  A    between atoms: O_18  and  C_19 
REMARK    8  A    between atoms: C_19  and  C_20 
REMARK    9  A    between atoms: C_33  and  O_34 
ROOT
ATOM      1  C   UNL d   1      24.861 -16.137  -1.799  0.00  0.00     0.121 A 
ATOM      2  C   UNL d   1      25.592 -16.146  -2.973  0.00  0.00     0.071 A 
ATOM      3  C   UNL d   1      26.642 -15.197  -2.806  0.00  0.00     0.089 A 
ATOM      4  N   UNL d   1      26.581 -14.643  -1.588  0.00  0.00    -0.174 NA
ATOM      5  N   UNL d   1      25.469 -15.171  -1.035  0.00  0.00    -0.272 N 
ATOM      6  H   UNL d   1      25.188 -14.843  -0.113  0.00  0.00     0.189 HD
ENDROOT
BRANCH   1   7
ATOM      7  C   UNL d   1      23.656 -16.834  -1.398  0.00  0.00     0.289 C 
ATOM      8  N   UNL d   1      23.569 -18.185  -1.759  0.00  0.00    -0.242 N 
ATOM      9  H   UNL d   1      24.357 -18.650  -2.195  0.00  0.00     0.192 HD
ATOM     10  O   UNL d   1      22.783 -16.246  -0.748  0.00  0.00    -0.264 OA
BRANCH   8  11
ATOM     11  N   UNL d   1      22.444 -18.916  -1.415  0.00  0.00    -0.183 NA
ATOM     12  C   UNL d   1      21.773 -18.591  -0.349  0.00  0.00     0.150 C 
BRANCH  12  13
ATOM     13  C   UNL d   1      20.558 -19.369   0.075  0.00  0.00    -0.014 A 
ATOM     14  C   UNL d   1      20.354 -19.759   1.410  0.00  0.00     0.052 A 
ATOM     15  C   UNL d   1      19.208 -20.500   1.790  0.00  0.00     0.102 A 
ATOM     16  C   UNL d   1      18.258 -20.832   0.812  0.00  0.00     0.099 A 
ATOM     17  C   UNL d   1      18.457 -20.449  -0.514  0.00  0.00     0.040 A 
ATOM     18  C   UNL d   1      19.600 -19.726  -0.880  0.00  0.00     0.016 A 
BRANCH  15  19
ATOM     19  O   UNL d   1      19.156 -20.821   3.126  0.00  0.00    -0.353 OA
ATOM     20  C   UNL d   1      20.273 -20.451   3.936  0.00  0.00     0.210 C 
ENDBRANCH  15  19
BRANCH  16  21
ATOM     21  O   UNL d   1      17.123 -21.531   1.122  0.00  0.00    -0.358 OA
ATOM     22  H   UNL d   1      17.254 -22.481   0.978  0.00  0.00     0.217 HD
ENDBRANCH  16  21
ENDBRANCH  12  13
ENDBRANCH   8  11
ENDBRANCH   1   7
BRANCH   3  23
ATOM     23  C   UNL d   1      27.651 -14.829  -3.799  0.00  0.00    -0.005 A 
ATOM     24  C   UNL d   1      27.446 -15.148  -5.146  0.00  0.00     0.016 A 
ATOM     25  C   UNL d   1      28.419 -14.856  -6.110  0.00  0.00     0.037 A 
ATOM     26  C   UNL d   1      29.615 -14.242  -5.740  0.00  0.00     0.069 A 
ATOM     27  C   UNL d   1      29.827 -13.923  -4.394  0.00  0.00     0.037 A 
ATOM     28  C   UNL d   1      28.849 -14.207  -3.429  0.00  0.00     0.016 A 
BRANCH  26  29
ATOM     29  O   UNL d   1      30.632 -13.913  -6.595  0.00  0.00    -0.347 OA
BRANCH  29  30
ATOM     30  C   UNL d   1      31.875 -14.597  -6.408  0.00  0.00     0.216 C 
BRANCH  30  31
ATOM     31  C   UNL d   1      31.585 -16.075  -6.353  0.00  0.00    -0.012 A 
ATOM     32  C   UNL d   1      31.195 -16.734  -7.534  0.00  0.00     0.011 A 
ATOM     33  C   UNL d   1      30.772 -18.063  -7.504  0.00  0.00     0.001 A 
ATOM     34  C   UNL d   1      30.798 -18.774  -6.308  0.00  0.00     0.002 A 
ATOM     35  C   UNL d   1      31.218 -18.147  -5.135  0.00  0.00     0.024 A 
ATOM     36  C   UNL d   1      31.602 -16.803  -5.154  0.00  0.00     0.042 A 
ATOM     37 CL   UNL d   1      32.100 -16.103  -3.654  0.00  0.00    -0.084 Cl
ENDBRANCH  30  31
ENDBRANCH  29  30
ENDBRANCH  26  29
ENDBRANCH   3  23
TORSDOF 9
ENDMDL
MODEL 6
REMARK VINA RESULT:    -7.465      4.167     13.567
REMARK INTER + INTRA:         -12.018
REMARK INTER:                 -10.150
REMARK INTRA:                  -1.868
REMARK CONF_INDEPENDENT:        2.685
REMARK UNBOUND:                -1.868
REMARK  9 active torsions:
REMARK  status: ('A' for Active; 'I' for Inactive)
REMARK    1  A    between atoms: O_2  and  C_3 
REMARK    2  A    between atoms: C_5  and  C_6 
REMARK    3  A    between atoms: N_7  and  N_8 
REMARK       I    between atoms: N_8  and  C_9 
REMARK    4  A    between atoms: C_9  and  C_11 
REMARK    5  A    between atoms: C_13  and  C_14 
REMARK    6  A    between atoms: C_17  and  O_18 
REMARK    7  A    between atoms: O_18  and  C_19 
REMARK    8  A    between atoms: C_19  and  C_20 
REMARK    9  A    between atoms: C_33  and  O_34 
ROOT
ATOM      1  C   UNL d   1      28.148 -14.133   4.305  0.00  0.00     0.121 A 
ATOM      2  C   UNL d   1      27.839 -13.491   5.490  0.00  0.00     0.071 A 
ATOM      3  C   UNL d   1      28.816 -13.902   6.443  0.00  0.00     0.089 A 
ATOM      4  N   UNL d   1      29.696 -14.739   5.878  0.00  0.00    -0.174 NA
ATOM      5  N   UNL d   1      29.234 -14.913   4.621  0.00  0.00    -0.272 N 
ATOM      6  H   UNL d   1      29.723 -15.568   4.015  0.00  0.00     0.189 HD
ENDROOT
BRANCH   1   7
ATOM      7  C   UNL d   1      27.492 -14.161   3.014  0.00  0.00     0.289 C 
ATOM      8  N   UNL d   1      27.879 -15.188   2.142  0.00  0.00    -0.242 N 
ATOM      9  H   UNL d   1      28.516 -15.911   2.454  0.00  0.00     0.192 HD
ATOM     10  O   UNL d   1      26.622 -13.327   2.738  0.00  0.00    -0.264 OA
BRANCH   8  11
ATOM     11  N   UNL d   1      27.301 -15.276   0.886  0.00  0.00    -0.183 NA
ATOM     12  C   UNL d   1      27.252 -14.219   0.130  0.00  0.00     0.150 C 
BRANCH  12  13
ATOM     13  C   UNL d   1      26.615 -14.261  -1.231  0.00  0.00    -0.014 A 
ATOM     14  C   UNL d   1      26.339 -13.091  -1.959  0.00  0.00     0.052 A 
ATOM     15  C   UNL d   1      25.729 -13.151  -3.237  0.00  0.00     0.102 A 
ATOM     16  C   UNL d   1      25.414 -14.404  -3.783  0.00  0.00     0.099 A 
ATOM     17  C   UNL d   1      25.684 -15.567  -3.063  0.00  0.00     0.040 A 
ATOM     18  C   UNL d   1      26.277 -15.496  -1.795  0.00  0.00     0.016 A 
BRANCH  15  19
ATOM     19  O   UNL d   1      25.509 -11.924  -3.818  0.00  0.00    -0.353 OA
ATOM     20  C   UNL d   1      26.391 -11.524  -4.868  0.00  0.00     0.210 C 
ENDBRANCH  15  19
BRANCH  16  21
ATOM     21  O   UNL d   1      24.841 -14.524  -5.019  0.00  0.00    -0.358 OA
ATOM     22  H   UNL d   1      24.382 -13.706  -5.267  0.00  0.00     0.217 HD
ENDBRANCH  16  21
ENDBRANCH  12  13
ENDBRANCH   8  11
ENDBRANCH   1   7
BRANCH   3  23
ATOM     23  C   UNL d   1      28.877 -13.515   7.852  0.00  0.00    -0.005 A 
ATOM     24  C   UNL d   1      29.287 -14.448   8.810  0.00  0.00     0.016 A 
ATOM     25  C   UNL d   1      29.304 -14.121  10.171  0.00  0.00     0.037 A 
ATOM     26  C   UNL d   1      28.908 -12.853  10.596  0.00  0.00     0.069 A 
ATOM     27  C   UNL d   1      28.494 -11.917   9.643  0.00  0.00     0.037 A 
ATOM     28  C   UNL d   1      28.486 -12.240   8.278  0.00  0.00     0.016 A 
BRANCH  26  29
ATOM     29  O   UNL d   1      28.884 -12.428  11.897  0.00  0.00    -0.347 OA
BRANCH  29  30
ATOM     30  C   UNL d   1      29.744 -11.333  12.230  0.00  0.00     0.216 C 
BRANCH  30  31
ATOM     31  C   UNL d   1      31.082 -11.582  11.582  0.00  0.00    -0.012 A 
ATOM     32  C   UNL d   1      31.849 -12.680  12.014  0.00  0.00     0.011 A 
ATOM     33  C   UNL d   1      33.154 -12.864  11.554  0.00  0.00     0.001 A 
ATOM     34  C   UNL d   1      33.684 -11.995  10.605  0.00  0.00     0.002 A 
ATOM     35  C   UNL d   1      32.922 -10.925  10.138  0.00  0.00     0.024 A 
ATOM     36  C   UNL d   1      31.631 -10.713  10.628  0.00  0.00     0.042 A 
ATOM     37 CL   UNL d   1      30.761  -9.357  10.002  0.00  0.00    -0.084 Cl
ENDBRANCH  30  31
ENDBRANCH  29  30
ENDBRANCH  26  29
ENDBRANCH   3  23
TORSDOF 9
ENDMDL
MODEL 7
REMARK VINA RESULT:    -7.381      4.248     13.447
REMARK INTER + INTRA:         -12.008
REMARK INTER:                 -10.066
REMARK INTRA:                  -1.942
REMARK CONF_INDEPENDENT:        2.685
REMARK UNBOUND:                -1.942
REMARK  9 active torsions:
REMARK  status: ('A' for Active; 'I' for Inactive)
REMARK    1  A    between atoms: O_2  and  C_3 
REMARK    2  A    between atoms: C_5  and  C_6 
REMARK    3  A    between atoms: N_7  and  N_8 
REMARK       I    between atoms: N_8  and  C_9 
REMARK    4  A    between atoms: C_9  and  C_11 
REMARK    5  A    between atoms: C_13  and  C_14 
REMARK    6  A    between atoms: C_17  and  O_18 
REMARK    7  A    between atoms: O_18  and  C_19 
REMARK    8  A    between atoms: C_19  and  C_20 
REMARK    9  A    between atoms: C_33  and  O_34 
ROOT
ATOM      1  C   UNL d   1      28.160 -14.125   4.404  0.00  0.00     0.121 A 
ATOM      2  C   UNL d   1      27.935 -13.451   5.590  0.00  0.00     0.071 A 
ATOM      3  C   UNL d   1      28.918 -13.911   6.513  0.00  0.00     0.089 A 
ATOM      4  N   UNL d   1      29.725 -14.807   5.929  0.00  0.00    -0.174 NA
ATOM      5  N   UNL d   1      29.207 -14.967   4.693  0.00  0.00    -0.272 N 
ATOM      6  H   UNL d   1      29.633 -15.658   4.079  0.00  0.00     0.189 HD
ENDROOT
BRANCH   1   7
ATOM      7  C   UNL d   1      27.458 -14.127   3.137  0.00  0.00     0.289 C 
ATOM      8  N   UNL d   1      27.801 -15.145   2.238  0.00  0.00    -0.242 N 
ATOM      9  H   UNL d   1      28.441 -15.880   2.516  0.00  0.00     0.192 HD
ATOM     10  O   UNL d   1      26.588 -13.280   2.905  0.00  0.00    -0.264 OA
BRANCH   8  11
ATOM     11  N   UNL d   1      27.177 -15.210   1.003  0.00  0.00    -0.183 NA
ATOM     12  C   UNL d   1      27.367 -14.254   0.141  0.00  0.00     0.150 C 
BRANCH  12  13
ATOM     13  C   UNL d   1      26.693 -14.270  -1.203  0.00  0.00    -0.014 A 
ATOM     14  C   UNL d   1      26.370 -13.084  -1.886  0.00  0.00     0.052 A 
ATOM     15  C   UNL d   1      25.727 -13.119  -3.149  0.00  0.00     0.102 A 
ATOM     16  C   UNL d   1      25.425 -14.362  -3.724  0.00  0.00     0.099 A 
ATOM     17  C   UNL d   1      25.742 -15.540  -3.049  0.00  0.00     0.040 A 
ATOM     18  C   UNL d   1      26.368 -15.494  -1.796  0.00  0.00     0.016 A 
BRANCH  15  19
ATOM     19  O   UNL d   1      25.463 -11.881  -3.685  0.00  0.00    -0.353 OA
ATOM     20  C   UNL d   1      26.579 -11.069  -4.051  0.00  0.00     0.210 C 
ENDBRANCH  15  19
BRANCH  16  21
ATOM     21  O   UNL d   1      24.821 -14.458  -4.948  0.00  0.00    -0.358 OA
ATOM     22  H   UNL d   1      24.421 -13.611  -5.201  0.00  0.00     0.217 HD
ENDBRANCH  16  21
ENDBRANCH  12  13
ENDBRANCH   8  11
ENDBRANCH   1   7
BRANCH   3  23
ATOM     23  C   UNL d   1      29.055 -13.511   7.913  0.00  0.00    -0.005 A 
ATOM     24  C   UNL d   1      28.454 -12.328   8.358  0.00  0.00     0.016 A 
ATOM     25  C   UNL d   1      28.613 -11.893   9.679  0.00  0.00     0.037 A 
ATOM     26  C   UNL d   1      29.380 -12.634  10.577  0.00  0.00     0.069 A 
ATOM     27  C   UNL d   1      29.985 -13.816  10.138  0.00  0.00     0.037 A 
ATOM     28  C   UNL d   1      29.819 -14.258   8.817  0.00  0.00     0.016 A 
BRANCH  26  29
ATOM     29  O   UNL d   1      29.603 -12.304  11.887  0.00  0.00    -0.347 OA
BRANCH  29  30
ATOM     30  C   UNL d   1      30.917 -11.842  12.217  0.00  0.00     0.216 C 
BRANCH  30  31
ATOM     31  C   UNL d   1      31.087 -10.468  11.623  0.00  0.00    -0.012 A 
ATOM     32  C   UNL d   1      30.430  -9.381  12.229  0.00  0.00     0.011 A 
ATOM     33  C   UNL d   1      30.435  -8.120  11.631  0.00  0.00     0.001 A 
ATOM     34  C   UNL d   1      31.152  -7.911  10.457  0.00  0.00     0.002 A 
ATOM     35  C   UNL d   1      31.840  -8.968   9.864  0.00  0.00     0.024 A 
ATOM     36  C   UNL d   1      31.803 -10.242  10.438  0.00  0.00     0.042 A 
ATOM     37 CL   UNL d   1      32.676 -11.498   9.631  0.00  0.00    -0.084 Cl
ENDBRANCH  30  31
ENDBRANCH  29  30
ENDBRANCH  26  29
ENDBRANCH   3  23
TORSDOF 9
ENDMDL
MODEL 8
REMARK VINA RESULT:    -7.318      4.476     13.804
REMARK INTER + INTRA:         -11.902
REMARK INTER:                 -10.003
REMARK INTRA:                  -1.900
REMARK CONF_INDEPENDENT:        2.685
REMARK UNBOUND:                -1.900
REMARK  9 active torsions:
REMARK  status: ('A' for Active; 'I' for Inactive)
REMARK    1  A    between atoms: O_2  and  C_3 
REMARK    2  A    between atoms: C_5  and  C_6 
REMARK    3  A    between atoms: N_7  and  N_8 
REMARK       I    between atoms: N_8  and  C_9 
REMARK    4  A    between atoms: C_9  and  C_11 
REMARK    5  A    between atoms: C_13  and  C_14 
REMARK    6  A    between atoms: C_17  and  O_18 
REMARK    7  A    between atoms: O_18  and  C_19 
REMARK    8  A    between atoms: C_19  and  C_20 
REMARK    9  A    between atoms: C_33  and  O_34 
ROOT
ATOM      1  C   UNL d   1      28.360 -14.051   4.201  0.00  0.00     0.121 A 
ATOM      2  C   UNL d   1      28.435 -13.046   5.148  0.00  0.00     0.071 A 
ATOM      3  C   UNL d   1      29.221 -13.556   6.222  0.00  0.00     0.089 A 
ATOM      4  N   UNL d   1      29.630 -14.802   5.951  0.00  0.00    -0.174 NA
ATOM      5  N   UNL d   1      29.045 -15.097   4.770  0.00  0.00    -0.272 N 
ATOM      6  H   UNL d   1      29.172 -16.033   4.391  0.00  0.00     0.189 HD
ENDROOT
BRANCH   1   7
ATOM      7  C   UNL d   1      27.658 -14.148   2.937  0.00  0.00     0.289 C 
ATOM      8  N   UNL d   1      28.220 -14.999   1.977  0.00  0.00    -0.242 N 
ATOM      9  H   UNL d   1      29.022 -15.574   2.210  0.00  0.00     0.192 HD
ATOM     10  O   UNL d   1      26.607 -13.521   2.759  0.00  0.00    -0.264 OA
BRANCH   8  11
ATOM     11  N   UNL d   1      27.609 -15.139   0.742  0.00  0.00    -0.183 NA
ATOM     12  C   UNL d   1      27.352 -14.079   0.034  0.00  0.00     0.150 C 
BRANCH  12  13
ATOM     13  C   UNL d   1      26.671 -14.180  -1.303  0.00  0.00    -0.014 A 
ATOM     14  C   UNL d   1      26.316 -13.039  -2.044  0.00  0.00     0.052 A 
ATOM     15  C   UNL d   1      25.666 -13.154  -3.298  0.00  0.00     0.102 A 
ATOM     16  C   UNL d   1      25.390 -14.432  -3.807  0.00  0.00     0.099 A 
ATOM     17  C   UNL d   1      25.739 -15.566  -3.074  0.00  0.00     0.040 A 
ATOM     18  C   UNL d   1      26.371 -15.441  -1.830  0.00  0.00     0.016 A 
BRANCH  15  19
ATOM     19  O   UNL d   1      25.369 -11.952  -3.895  0.00  0.00    -0.353 OA
ATOM     20  C   UNL d   1      25.990 -11.667  -5.149  0.00  0.00     0.210 C 
ENDBRANCH  15  19
BRANCH  16  21
ATOM     21  O   UNL d   1      24.781 -14.605  -5.019  0.00  0.00    -0.358 OA
ATOM     22  H   UNL d   1      24.436 -13.762  -5.355  0.00  0.00     0.217 HD
ENDBRANCH  16  21
ENDBRANCH  12  13
ENDBRANCH   8  11
ENDBRANCH   1   7
BRANCH   3  23
ATOM     23  C   UNL d   1      29.542 -12.867   7.471  0.00  0.00    -0.005 A 
ATOM     24  C   UNL d   1      28.535 -12.190   8.168  0.00  0.00     0.016 A 
ATOM     25  C   UNL d   1      28.825 -11.477   9.338  0.00  0.00     0.037 A 
ATOM     26  C   UNL d   1      30.130 -11.427   9.827  0.00  0.00     0.069 A 
ATOM     27  C   UNL d   1      31.141 -12.098   9.133  0.00  0.00     0.037 A 
ATOM     28  C   UNL d   1      30.851 -12.821   7.966  0.00  0.00     0.016 A 
BRANCH  26  29
ATOM     29  O   UNL d   1      30.525 -10.761  10.956  0.00  0.00    -0.347 OA
BRANCH  29  30
ATOM     30  C   UNL d   1      30.031 -11.262  12.203  0.00  0.00     0.216 C 
BRANCH  30  31
ATOM     31  C   UNL d   1      30.009 -12.767  12.121  0.00  0.00    -0.012 A 
ATOM     32  C   UNL d   1      28.766 -13.425  12.079  0.00  0.00     0.011 A 
ATOM     33  C   UNL d   1      28.692 -14.816  12.155  0.00  0.00     0.001 A 
ATOM     34  C   UNL d   1      29.859 -15.572  12.203  0.00  0.00     0.002 A 
ATOM     35  C   UNL d   1      31.100 -14.937  12.206  0.00  0.00     0.024 A 
ATOM     36  C   UNL d   1      31.176 -13.542  12.173  0.00  0.00     0.042 A 
ATOM     37 CL   UNL d   1      32.755 -12.837  12.190  0.00  0.00    -0.084 Cl
ENDBRANCH  30  31
ENDBRANCH  29  30
ENDBRANCH  26  29
ENDBRANCH   3  23
TORSDOF 9
ENDMDL
MODEL 9
REMARK VINA RESULT:    -7.189      4.248     13.481
REMARK INTER + INTRA:         -11.677
REMARK INTER:                  -9.874
REMARK INTRA:                  -1.803
REMARK CONF_INDEPENDENT:        2.685
REMARK UNBOUND:                -1.803
REMARK  9 active torsions:
REMARK  status: ('A' for Active; 'I' for Inactive)
REMARK    1  A    between atoms: O_2  and  C_3 
REMARK    2  A    between atoms: C_5  and  C_6 
REMARK    3  A    between atoms: N_7  and  N_8 
REMARK       I    between atoms: N_8  and  C_9 
REMARK    4  A    between atoms: C_9  and  C_11 
REMARK    5  A    between atoms: C_13  and  C_14 
REMARK    6  A    between atoms: C_17  and  O_18 
REMARK    7  A    between atoms: O_18  and  C_19 
REMARK    8  A    between atoms: C_19  and  C_20 
REMARK    9  A    between atoms: C_33  and  O_34 
ROOT
ATOM      1  C   UNL d   1      28.160 -14.059   3.868  0.00  0.00     0.121 A 
ATOM      2  C   UNL d   1      27.795 -13.435   5.046  0.00  0.00     0.071 A 
ATOM      3  C   UNL d   1      28.749 -13.828   6.028  0.00  0.00     0.089 A 
ATOM      4  N   UNL d   1      29.670 -14.637   5.487  0.00  0.00    -0.174 NA
ATOM      5  N   UNL d   1      29.255 -14.813   4.215  0.00  0.00    -0.272 N 
ATOM      6  H   UNL d   1      29.781 -15.449   3.621  0.00  0.00     0.189 HD
ENDROOT
BRANCH   1   7
ATOM      7  C   UNL d   1      27.549 -14.093   2.555  0.00  0.00     0.289 C 
ATOM      8  N   UNL d   1      27.842 -15.210   1.762  0.00  0.00    -0.242 N 
ATOM      9  H   UNL d   1      28.380 -15.981   2.141  0.00  0.00     0.192 HD
ATOM     10  O   UNL d   1      26.792 -13.184   2.195  0.00  0.00    -0.264 OA
BRANCH   8  11
ATOM     11  N   UNL d   1      27.300 -15.311   0.491  0.00  0.00    -0.183 NA
ATOM     12  C   UNL d   1      28.087 -15.265  -0.544  0.00  0.00     0.150 C 
BRANCH  12  13
ATOM     13  C   UNL d   1      27.541 -15.349  -1.943  0.00  0.00    -0.014 A 
ATOM     14  C   UNL d   1      28.382 -15.497  -3.060  0.00  0.00     0.052 A 
ATOM     15  C   UNL d   1      27.850 -15.565  -4.372  0.00  0.00     0.102 A 
ATOM     16  C   UNL d   1      26.460 -15.498  -4.547  0.00  0.00     0.099 A 
ATOM     17  C   UNL d   1      25.623 -15.349  -3.441  0.00  0.00     0.040 A 
ATOM     18  C   UNL d   1      26.160 -15.272  -2.150  0.00  0.00     0.016 A 
BRANCH  15  19
ATOM     19  O   UNL d   1      28.796 -15.694  -5.362  0.00  0.00    -0.353 OA
ATOM     20  C   UNL d   1      28.781 -14.733  -6.418  0.00  0.00     0.210 C 
ENDBRANCH  15  19
BRANCH  16  21
ATOM     21  O   UNL d   1      25.888 -15.576  -5.788  0.00  0.00    -0.358 OA
ATOM     22  H   UNL d   1      26.531 -15.347  -6.477  0.00  0.00     0.217 HD
ENDBRANCH  16  21
ENDBRANCH  12  13
ENDBRANCH   8  11
ENDBRANCH   1   7
BRANCH   3  23
ATOM     23  C   UNL d   1      28.754 -13.451   7.441  0.00  0.00    -0.005 A 
ATOM     24  C   UNL d   1      28.897 -14.438   8.422  0.00  0.00     0.016 A 
ATOM     25  C   UNL d   1      28.851 -14.112   9.783  0.00  0.00     0.037 A 
ATOM     26  C   UNL d   1      28.657 -12.791  10.185  0.00  0.00     0.069 A 
ATOM     27  C   UNL d   1      28.509 -11.800   9.209  0.00  0.00     0.037 A 
ATOM     28  C   UNL d   1      28.565 -12.124   7.845  0.00  0.00     0.016 A 
BRANCH  26  29
ATOM     29  O   UNL d   1      28.594 -12.361  11.483  0.00  0.00    -0.347 OA
BRANCH  29  30
ATOM     30  C   UNL d   1      29.814 -12.395  12.230  0.00  0.00     0.216 C 
BRANCH  30  31
ATOM     31  C   UNL d   1      30.952 -12.162  11.269  0.00  0.00    -0.012 A 
ATOM     32  C   UNL d   1      31.143 -10.868  10.747  0.00  0.00     0.011 A 
ATOM     33  C   UNL d   1      32.083 -10.636   9.743  0.00  0.00     0.001 A 
ATOM     34  C   UNL d   1      32.893 -11.675   9.295  0.00  0.00     0.002 A 
ATOM     35  C   UNL d   1      32.742 -12.954   9.829  0.00  0.00     0.024 A 
ATOM     36  C   UNL d   1      31.772 -13.200  10.804  0.00  0.00     0.042 A 
ATOM     37 CL   UNL d   1      31.646 -14.816  11.404  0.00  0.00    -0.084 Cl
ENDBRANCH  30  31
ENDBRANCH  29  30
ENDBRANCH  26  29
ENDBRANCH   3  23
TORSDOF 9
ENDMDL
