MODEL 1
REMARK VINA RESULT:    -7.549      0.000      0.000
REMARK INTER + INTRA:          -9.484
REMARK INTER:                  -8.444
REMARK INTRA:                  -1.040
REMARK CONF_INDEPENDENT:        0.895
REMARK UNBOUND:                -1.040
REMARK  3 active torsions:
REMARK  status: ('A' for Active; 'I' for Inactive)
REMARK       I    between atoms: C_2  and  N_3 
REMARK    1  A    between atoms: C_2  and  C_11 
REMARK    2  A    between atoms: N_3  and  C_4 
REMARK    3  A    between atoms: C_16  and  O_17 
ROOT
ATOM      1  O   UNL d   1      22.603 -18.759  -2.009  0.00  0.00    -0.267 OA
ATOM      2  C   UNL d   1      22.422 -18.415  -0.840  0.00  0.00     0.259 C 
ATOM      3  N   UNL d   1      23.249 -17.523  -0.157  0.00  0.00    -0.322 N 
ATOM      4  H   UNL d   1      23.281 -17.594   0.852  0.00  0.00     0.169 HD
ENDROOT
BRANCH   2   5
ATOM      5  C   UNL d   1      21.295 -19.023  -0.084  0.00  0.00     0.065 A 
ATOM      6  C   UNL d   1      21.234 -18.950   1.316  0.00  0.00     0.020 A 
ATOM      7  C   UNL d   1      20.149 -19.516   1.997  0.00  0.00     0.001 A 
ATOM      8  C   UNL d   1      19.122 -20.143   1.287  0.00  0.00     0.003 A 
ATOM      9  C   UNL d   1      19.158 -20.185  -0.107  0.00  0.00     0.037 A 
ATOM     10  C   UNL d   1      20.237 -19.623  -0.787  0.00  0.00     0.081 A 
BRANCH  10  11
ATOM     11  O   UNL d   1      20.280 -19.702  -2.151  0.00  0.00    -0.360 OA
ATOM     12  H   UNL d   1      21.170 -19.516  -2.485  0.00  0.00     0.217 HD
ENDBRANCH  10  11
ENDBRANCH   2   5
BRANCH   3  13
ATOM     13  C   UNL d   1      24.327 -16.878  -0.825  0.00  0.00     0.052 A 
ATOM     14  C   UNL d   1      24.042 -15.949  -1.842  0.00  0.00     0.031 A 
ATOM     15  C   UNL d   1      25.081 -15.265  -2.495  0.00  0.00     0.002 A 
ATOM     16  C   UNL d   1      26.409 -15.523  -2.163  0.00  0.00     0.002 A 
ATOM     17  C   UNL d   1      26.703 -16.461  -1.180  0.00  0.00     0.021 A 
ATOM     18  C   UNL d   1      25.678 -17.146  -0.520  0.00  0.00     0.037 A 
ATOM     19 BR   UNL d   1      26.263 -18.574   0.606  0.00  0.00    -0.049 Br
ENDBRANCH   3  13
TORSDOF 3
ENDMDL
MODEL 2
REMARK VINA RESULT:    -7.281      1.477      2.051
REMARK INTER + INTRA:          -8.931
REMARK INTER:                  -8.176
REMARK INTRA:                  -0.755
REMARK CONF_INDEPENDENT:        0.895
REMARK UNBOUND:                -0.755
REMARK  3 active torsions:
REMARK  status: ('A' for Active; 'I' for Inactive)
REMARK       I    between atoms: C_2  and  N_3 
REMARK    1  A    between atoms: C_2  and  C_11 
REMARK    2  A    between atoms: N_3  and  C_4 
REMARK    3  A    between atoms: C_16  and  O_17 
ROOT
ATOM      1  O   UNL d   1      22.427 -18.977  -1.487  0.00  0.00    -0.267 OA
ATOM      2  C   UNL d   1      22.247 -18.977  -0.268  0.00  0.00     0.259 C 
ATOM      3  N   UNL d   1      23.209 -18.571   0.658  0.00  0.00    -0.322 N 
ATOM      4  H   UNL d   1      23.150 -18.956   1.592  0.00  0.00     0.169 HD
ENDROOT
BRANCH   2   5
ATOM      5  C   UNL d   1      20.958 -19.495   0.263  0.00  0.00     0.065 A 
ATOM      6  C   UNL d   1      20.654 -19.425   1.631  0.00  0.00     0.020 A 
ATOM      7  C   UNL d   1      19.422 -19.903   2.096  0.00  0.00     0.001 A 
ATOM      8  C   UNL d   1      18.492 -20.439   1.201  0.00  0.00     0.003 A 
ATOM      9  C   UNL d   1      18.774 -20.476  -0.164  0.00  0.00     0.037 A 
ATOM     10  C   UNL d   1      19.999 -20.001  -0.630  0.00  0.00     0.081 A 
BRANCH  10  11
ATOM     11  O   UNL d   1      20.279 -20.075  -1.966  0.00  0.00    -0.360 OA
ATOM     12  H   UNL d   1      20.333 -19.194  -2.362  0.00  0.00     0.217 HD
ENDBRANCH  10  11
ENDBRANCH   2   5
BRANCH   3  13
ATOM     13  C   UNL d   1      24.453 -18.035   0.223  0.00  0.00     0.052 A 
ATOM     14  C   UNL d   1      25.646 -18.573   0.741  0.00  0.00     0.031 A 
ATOM     15  C   UNL d   1      26.892 -18.094   0.305  0.00  0.00     0.002 A 
ATOM     16  C   UNL d   1      26.960 -17.057  -0.623  0.00  0.00     0.002 A 
ATOM     17  C   UNL d   1      25.787 -16.497  -1.118  0.00  0.00     0.021 A 
ATOM     18  C   UNL d   1      24.541 -16.968  -0.695  0.00  0.00     0.037 A 
ATOM     19 BR   UNL d   1      23.050 -15.922  -1.272  0.00  0.00    -0.049 Br
ENDBRANCH   3  13
TORSDOF 3
ENDMDL
MODEL 3
REMARK VINA RESULT:    -6.430      3.333      7.323
REMARK INTER + INTRA:          -8.423
REMARK INTER:                  -7.325
REMARK INTRA:                  -1.098
REMARK CONF_INDEPENDENT:        0.895
REMARK UNBOUND:                -1.098
REMARK  3 active torsions:
REMARK  status: ('A' for Active; 'I' for Inactive)
REMARK       I    between atoms: C_2  and  N_3 
REMARK    1  A    between atoms: C_2  and  C_11 
REMARK    2  A    between atoms: N_3  and  C_4 
REMARK    3  A    between atoms: C_16  and  O_17 
ROOT
ATOM      1  O   UNL d   1      25.530 -16.181  -4.088  0.00  0.00    -0.267 OA
ATOM      2  C   UNL d   1      25.551 -15.125  -3.454  0.00  0.00     0.259 C 
ATOM      3  N   UNL d   1      25.123 -15.007  -2.131  0.00  0.00    -0.322 N 
ATOM      4  H   UNL d   1      24.803 -14.098  -1.823  0.00  0.00     0.169 HD
ENDROOT
BRANCH   2   5
ATOM      5  C   UNL d   1      25.998 -13.886  -4.144  0.00  0.00     0.065 A 
ATOM      6  C   UNL d   1      25.539 -12.622  -3.742  0.00  0.00     0.020 A 
ATOM      7  C   UNL d   1      25.996 -11.474  -4.400  0.00  0.00     0.001 A 
ATOM      8  C   UNL d   1      26.913 -11.581  -5.448  0.00  0.00     0.003 A 
ATOM      9  C   UNL d   1      27.401 -12.831  -5.828  0.00  0.00     0.037 A 
ATOM     10  C   UNL d   1      26.949 -13.976  -5.175  0.00  0.00     0.081 A 
BRANCH  10  11
ATOM     11  O   UNL d   1      27.406 -15.200  -5.578  0.00  0.00    -0.360 OA
ATOM     12  H   UNL d   1      26.844 -15.913  -5.241  0.00  0.00     0.217 HD
ENDBRANCH  10  11
ENDBRANCH   2   5
BRANCH   3  13
ATOM     13  C   UNL d   1      24.711 -16.154  -1.397  0.00  0.00     0.052 A 
ATOM     14  C   UNL d   1      23.337 -16.387  -1.208  0.00  0.00     0.031 A 
ATOM     15  C   UNL d   1      22.895 -17.530  -0.521  0.00  0.00     0.002 A 
ATOM     16  C   UNL d   1      23.816 -18.431   0.009  0.00  0.00     0.002 A 
ATOM     17  C   UNL d   1      25.178 -18.194  -0.146  0.00  0.00     0.021 A 
ATOM     18  C   UNL d   1      25.630 -17.062  -0.831  0.00  0.00     0.037 A 
ATOM     19 BR   UNL d   1      27.513 -16.760  -0.724  0.00  0.00    -0.049 Br
ENDBRANCH   3  13
TORSDOF 3
ENDMDL
MODEL 4
REMARK VINA RESULT:    -6.126      3.683      7.734
REMARK INTER + INTRA:          -8.149
REMARK INTER:                  -7.021
REMARK INTRA:                  -1.127
REMARK CONF_INDEPENDENT:        0.895
REMARK UNBOUND:                -1.127
REMARK  3 active torsions:
REMARK  status: ('A' for Active; 'I' for Inactive)
REMARK       I    between atoms: C_2  and  N_3 
REMARK    1  A    between atoms: C_2  and  C_11 
REMARK    2  A    between atoms: N_3  and  C_4 
REMARK    3  A    between atoms: C_16  and  O_17 
ROOT
ATOM      1  O   UNL d   1      25.529 -15.956  -4.577  0.00  0.00    -0.267 OA
ATOM      2  C   UNL d   1      25.938 -14.973  -3.957  0.00  0.00     0.259 C 
ATOM      3  N   UNL d   1      25.806 -14.817  -2.577  0.00  0.00    -0.322 N 
ATOM      4  H   UNL d   1      25.794 -13.874  -2.212  0.00  0.00     0.169 HD
ENDROOT
BRANCH   2   5
ATOM      5  C   UNL d   1      26.554 -13.854  -4.719  0.00  0.00     0.065 A 
ATOM      6  C   UNL d   1      27.529 -14.092  -5.700  0.00  0.00     0.020 A 
ATOM      7  C   UNL d   1      28.074 -13.018  -6.414  0.00  0.00     0.001 A 
ATOM      8  C   UNL d   1      27.645 -11.713  -6.160  0.00  0.00     0.003 A 
ATOM      9  C   UNL d   1      26.650 -11.474  -5.212  0.00  0.00     0.037 A 
ATOM     10  C   UNL d   1      26.105 -12.541  -4.500  0.00  0.00     0.081 A 
BRANCH  10  11
ATOM     11  O   UNL d   1      25.155 -12.293  -3.548  0.00  0.00    -0.360 OA
ATOM     12  H   UNL d   1      24.448 -11.732  -3.897  0.00  0.00     0.217 HD
ENDBRANCH  10  11
ENDBRANCH   2   5
BRANCH   3  13
ATOM     13  C   UNL d   1      25.256 -15.859  -1.779  0.00  0.00     0.052 A 
ATOM     14  C   UNL d   1      23.859 -15.950  -1.644  0.00  0.00     0.031 A 
ATOM     15  C   UNL d   1      23.281 -16.988  -0.895  0.00  0.00     0.002 A 
ATOM     16  C   UNL d   1      24.088 -17.922  -0.250  0.00  0.00     0.002 A 
ATOM     17  C   UNL d   1      25.472 -17.824  -0.352  0.00  0.00     0.021 A 
ATOM     18  C   UNL d   1      26.058 -16.797  -1.098  0.00  0.00     0.037 A 
ATOM     19 BR   UNL d   1      27.956 -16.659  -0.917  0.00  0.00    -0.049 Br
ENDBRANCH   3  13
TORSDOF 3
ENDMDL
MODEL 5
REMARK VINA RESULT:    -5.667      5.435      7.922
REMARK INTER + INTRA:          -7.497
REMARK INTER:                  -6.562
REMARK INTRA:                  -0.935
REMARK CONF_INDEPENDENT:        0.895
REMARK UNBOUND:                -0.935
REMARK  3 active torsions:
REMARK  status: ('A' for Active; 'I' for Inactive)
REMARK       I    between atoms: C_2  and  N_3 
REMARK    1  A    between atoms: C_2  and  C_11 
REMARK    2  A    between atoms: N_3  and  C_4 
REMARK    3  A    between atoms: C_16  and  O_17 
ROOT
ATOM      1  O   UNL d   1      26.400 -13.524   1.999  0.00  0.00    -0.267 OA
ATOM      2  C   UNL d   1      27.404 -14.226   2.135  0.00  0.00     0.259 C 
ATOM      3  N   UNL d   1      27.816 -15.178   1.204  0.00  0.00    -0.322 N 
ATOM      4  H   UNL d   1      28.375 -15.951   1.541  0.00  0.00     0.169 HD
ENDROOT
BRANCH   2   5
ATOM      5  C   UNL d   1      28.196 -14.103   3.388  0.00  0.00     0.065 A 
ATOM      6  C   UNL d   1      27.594 -13.715   4.595  0.00  0.00     0.020 A 
ATOM      7  C   UNL d   1      28.365 -13.628   5.761  0.00  0.00     0.001 A 
ATOM      8  C   UNL d   1      29.727 -13.936   5.729  0.00  0.00     0.003 A 
ATOM      9  C   UNL d   1      30.323 -14.358   4.541  0.00  0.00     0.037 A 
ATOM     10  C   UNL d   1      29.559 -14.445   3.378  0.00  0.00     0.081 A 
BRANCH  10  11
ATOM     11  O   UNL d   1      30.161 -14.825   2.211  0.00  0.00    -0.360 OA
ATOM     12  H   UNL d   1      30.140 -15.787   2.103  0.00  0.00     0.217 HD
ENDBRANCH  10  11
ENDBRANCH   2   5
BRANCH   3  13
ATOM     13  C   UNL d   1      27.126 -15.330  -0.032  0.00  0.00     0.052 A 
ATOM     14  C   UNL d   1      26.899 -14.195  -0.831  0.00  0.00     0.031 A 
ATOM     15  C   UNL d   1      26.256 -14.314  -2.074  0.00  0.00     0.002 A 
ATOM     16  C   UNL d   1      25.807 -15.557  -2.515  0.00  0.00     0.002 A 
ATOM     17  C   UNL d   1      25.999 -16.681  -1.719  0.00  0.00     0.021 A 
ATOM     18  C   UNL d   1      26.642 -16.575  -0.482  0.00  0.00     0.037 A 
ATOM     19 BR   UNL d   1      26.589 -18.158   0.586  0.00  0.00    -0.049 Br
ENDBRANCH   3  13
TORSDOF 3
ENDMDL
MODEL 6
REMARK VINA RESULT:    -5.509      4.253      6.160
REMARK INTER + INTRA:          -7.321
REMARK INTER:                  -6.404
REMARK INTRA:                  -0.918
REMARK CONF_INDEPENDENT:        0.895
REMARK UNBOUND:                -0.918
REMARK  3 active torsions:
REMARK  status: ('A' for Active; 'I' for Inactive)
REMARK       I    between atoms: C_2  and  N_3 
REMARK    1  A    between atoms: C_2  and  C_11 
REMARK    2  A    between atoms: N_3  and  C_4 
REMARK    3  A    between atoms: C_16  and  O_17 
ROOT
ATOM      1  O   UNL d   1      24.780 -14.824  -3.941  0.00  0.00    -0.267 OA
ATOM      2  C   UNL d   1      25.719 -15.275  -3.282  0.00  0.00     0.259 C 
ATOM      3  N   UNL d   1      27.060 -15.100  -3.622  0.00  0.00    -0.322 N 
ATOM      4  H   UNL d   1      27.720 -15.791  -3.292  0.00  0.00     0.169 HD
ENDROOT
BRANCH   2   5
ATOM      5  C   UNL d   1      25.416 -16.106  -2.086  0.00  0.00     0.065 A 
ATOM      6  C   UNL d   1      24.098 -16.295  -1.645  0.00  0.00     0.020 A 
ATOM      7  C   UNL d   1      23.846 -17.100  -0.527  0.00  0.00     0.001 A 
ATOM      8  C   UNL d   1      24.901 -17.723   0.144  0.00  0.00     0.003 A 
ATOM      9  C   UNL d   1      26.210 -17.569  -0.312  0.00  0.00     0.037 A 
ATOM     10  C   UNL d   1      26.464 -16.769  -1.425  0.00  0.00     0.081 A 
BRANCH  10  11
ATOM     11  O   UNL d   1      27.755 -16.596  -1.842  0.00  0.00    -0.360 OA
ATOM     12  H   UNL d   1      28.309 -16.243  -1.130  0.00  0.00     0.217 HD
ENDBRANCH  10  11
ENDBRANCH   2   5
BRANCH   3  13
ATOM     13  C   UNL d   1      27.426 -14.291  -4.734  0.00  0.00     0.052 A 
ATOM     14  C   UNL d   1      28.198 -14.857  -5.765  0.00  0.00     0.031 A 
ATOM     15  C   UNL d   1      28.545 -14.098  -6.896  0.00  0.00     0.002 A 
ATOM     16  C   UNL d   1      28.154 -12.765  -6.993  0.00  0.00     0.002 A 
ATOM     17  C   UNL d   1      27.416 -12.186  -5.965  0.00  0.00     0.021 A 
ATOM     18  C   UNL d   1      27.062 -12.932  -4.837  0.00  0.00     0.037 A 
ATOM     19 BR   UNL d   1      26.282 -11.918  -3.418  0.00  0.00    -0.049 Br
ENDBRANCH   3  13
TORSDOF 3
ENDMDL
MODEL 7
REMARK VINA RESULT:    -5.426      4.274      6.205
REMARK INTER + INTRA:          -7.470
REMARK INTER:                  -6.321
REMARK INTRA:                  -1.150
REMARK CONF_INDEPENDENT:        0.895
REMARK UNBOUND:                -1.150
REMARK  3 active torsions:
REMARK  status: ('A' for Active; 'I' for Inactive)
REMARK       I    between atoms: C_2  and  N_3 
REMARK    1  A    between atoms: C_2  and  C_11 
REMARK    2  A    between atoms: N_3  and  C_4 
REMARK    3  A    between atoms: C_16  and  O_17 
ROOT
ATOM      1  O   UNL d   1      25.155 -15.432  -4.195  0.00  0.00    -0.267 OA
ATOM      2  C   UNL d   1      25.698 -15.144  -3.127  0.00  0.00     0.259 C 
ATOM      3  N   UNL d   1      26.440 -13.981  -2.923  0.00  0.00    -0.322 N 
ATOM      4  H   UNL d   1      27.151 -14.000  -2.204  0.00  0.00     0.169 HD
ENDROOT
BRANCH   2   5
ATOM      5  C   UNL d   1      25.617 -16.113  -2.001  0.00  0.00     0.065 A 
ATOM      6  C   UNL d   1      24.398 -16.706  -1.639  0.00  0.00     0.020 A 
ATOM      7  C   UNL d   1      24.359 -17.630  -0.587  0.00  0.00     0.001 A 
ATOM      8  C   UNL d   1      25.530 -17.970   0.096  0.00  0.00     0.003 A 
ATOM      9  C   UNL d   1      26.750 -17.411  -0.285  0.00  0.00     0.037 A 
ATOM     10  C   UNL d   1      26.792 -16.491  -1.331  0.00  0.00     0.081 A 
BRANCH  10  11
ATOM     11  O   UNL d   1      27.988 -15.923  -1.672  0.00  0.00    -0.360 OA
ATOM     12  H   UNL d   1      28.601 -15.919  -0.923  0.00  0.00     0.217 HD
ENDBRANCH  10  11
ENDBRANCH   2   5
BRANCH   3  13
ATOM     13  C   UNL d   1      26.536 -12.994  -3.944  0.00  0.00     0.052 A 
ATOM     14  C   UNL d   1      25.804 -11.800  -3.809  0.00  0.00     0.031 A 
ATOM     15  C   UNL d   1      25.905 -10.788  -4.778  0.00  0.00     0.002 A 
ATOM     16  C   UNL d   1      26.709 -10.970  -5.901  0.00  0.00     0.002 A 
ATOM     17  C   UNL d   1      27.413 -12.158  -6.060  0.00  0.00     0.021 A 
ATOM     18  C   UNL d   1      27.324 -13.171  -5.100  0.00  0.00     0.037 A 
ATOM     19 BR   UNL d   1      28.142 -14.824  -5.600  0.00  0.00    -0.049 Br
ENDBRANCH   3  13
TORSDOF 3
ENDMDL
MODEL 8
REMARK VINA RESULT:    -5.315      6.024      8.425
REMARK INTER + INTRA:          -7.225
REMARK INTER:                  -6.210
REMARK INTRA:                  -1.015
REMARK CONF_INDEPENDENT:        0.895
REMARK UNBOUND:                -1.015
REMARK  3 active torsions:
REMARK  status: ('A' for Active; 'I' for Inactive)
REMARK       I    between atoms: C_2  and  N_3 
REMARK    1  A    between atoms: C_2  and  C_11 
REMARK    2  A    between atoms: N_3  and  C_4 
REMARK    3  A    between atoms: C_16  and  O_17 
ROOT
ATOM      1  O   UNL d   1      26.294 -13.263   2.323  0.00  0.00    -0.267 OA
ATOM      2  C   UNL d   1      27.344 -13.771   2.719  0.00  0.00     0.259 C 
ATOM      3  N   UNL d   1      27.998 -14.812   2.060  0.00  0.00    -0.322 N 
ATOM      4  H   UNL d   1      28.591 -15.417   2.614  0.00  0.00     0.169 HD
ENDROOT
BRANCH   2   5
ATOM      5  C   UNL d   1      27.926 -13.298   4.003  0.00  0.00     0.065 A 
ATOM      6  C   UNL d   1      28.058 -11.929   4.282  0.00  0.00     0.020 A 
ATOM      7  C   UNL d   1      28.591 -11.517   5.509  0.00  0.00     0.001 A 
ATOM      8  C   UNL d   1      28.982 -12.463   6.461  0.00  0.00     0.003 A 
ATOM      9  C   UNL d   1      28.819 -13.824   6.204  0.00  0.00     0.037 A 
ATOM     10  C   UNL d   1      28.289 -14.237   4.983  0.00  0.00     0.081 A 
BRANCH  10  11
ATOM     11  O   UNL d   1      28.166 -15.575   4.727  0.00  0.00    -0.360 OA
ATOM     12  H   UNL d   1      28.844 -15.877   4.106  0.00  0.00     0.217 HD
ENDBRANCH  10  11
ENDBRANCH   2   5
BRANCH   3  13
ATOM     13  C   UNL d   1      27.518 -15.295   0.810  0.00  0.00     0.052 A 
ATOM     14  C   UNL d   1      27.216 -16.662   0.678  0.00  0.00     0.031 A 
ATOM     15  C   UNL d   1      26.704 -17.166  -0.530  0.00  0.00     0.002 A 
ATOM     16  C   UNL d   1      26.519 -16.320  -1.621  0.00  0.00     0.002 A 
ATOM     17  C   UNL d   1      26.842 -14.972  -1.510  0.00  0.00     0.021 A 
ATOM     18  C   UNL d   1      27.349 -14.458  -0.312  0.00  0.00     0.037 A 
ATOM     19 BR   UNL d   1      27.980 -12.658  -0.415  0.00  0.00    -0.049 Br
ENDBRANCH   3  13
TORSDOF 3
ENDMDL
MODEL 9
REMARK VINA RESULT:    -5.145      4.038      7.935
REMARK INTER + INTRA:          -7.161
REMARK INTER:                  -6.040
REMARK INTRA:                  -1.121
REMARK CONF_INDEPENDENT:        0.895
REMARK UNBOUND:                -1.121
REMARK  3 active torsions:
REMARK  status: ('A' for Active; 'I' for Inactive)
REMARK       I    between atoms: C_2  and  N_3 
REMARK    1  A    between atoms: C_2  and  C_11 
REMARK    2  A    between atoms: N_3  and  C_4 
REMARK    3  A    between atoms: C_16  and  O_17 
ROOT
ATOM      1  O   UNL d   1      27.397 -15.775   1.348  0.00  0.00    -0.267 OA
ATOM      2  C   UNL d   1      27.982 -16.203   0.352  0.00  0.00     0.259 C 
ATOM      3  N   UNL d   1      27.362 -16.946  -0.652  0.00  0.00    -0.322 N 
ATOM      4  H   UNL d   1      27.941 -17.572  -1.197  0.00  0.00     0.169 HD
ENDROOT
BRANCH   2   5
ATOM      5  C   UNL d   1      29.447 -15.974   0.232  0.00  0.00     0.065 A 
ATOM      6  C   UNL d   1      30.024 -14.748   0.596  0.00  0.00     0.020 A 
ATOM      7  C   UNL d   1      31.409 -14.572   0.490  0.00  0.00     0.001 A 
ATOM      8  C   UNL d   1      32.219 -15.615   0.032  0.00  0.00     0.003 A 
ATOM      9  C   UNL d   1      31.655 -16.847  -0.297  0.00  0.00     0.037 A 
ATOM     10  C   UNL d   1      30.276 -17.026  -0.192  0.00  0.00     0.081 A 
BRANCH  10  11
ATOM     11  O   UNL d   1      29.730 -18.227  -0.550  0.00  0.00    -0.360 OA
ATOM     12  H   UNL d   1      29.368 -18.691   0.218  0.00  0.00     0.217 HD
ENDBRANCH  10  11
ENDBRANCH   2   5
BRANCH   3  13
ATOM     13  C   UNL d   1      25.958 -17.177  -0.621  0.00  0.00     0.052 A 
ATOM     14  C   UNL d   1      25.459 -18.243   0.151  0.00  0.00     0.031 A 
ATOM     15  C   UNL d   1      24.076 -18.476   0.235  0.00  0.00     0.002 A 
ATOM     16  C   UNL d   1      23.184 -17.672  -0.472  0.00  0.00     0.002 A 
ATOM     17  C   UNL d   1      23.669 -16.635  -1.262  0.00  0.00     0.021 A 
ATOM     18  C   UNL d   1      25.042 -16.391  -1.350  0.00  0.00     0.037 A 
ATOM     19 BR   UNL d   1      25.544 -15.106  -2.672  0.00  0.00    -0.049 Br
ENDBRANCH   3  13
TORSDOF 3
ENDMDL
