MODEL 1
REMARK VINA RESULT:   -30.040      0.000      0.000
REMARK INTER + INTRA:         -33.920
REMARK INTER:                 -32.427
REMARK INTRA:                  -1.494
REMARK CONF_INDEPENDENT:        2.386
REMARK UNBOUND:                -1.494
REMARK  8 active torsions:
REMARK  status: ('A' for Active; 'I' for Inactive)
REMARK       I    between atoms: C_2  and  N_3 
REMARK    1  A    between atoms: C_2  and  C_14 
REMARK    2  A    between atoms: N_3  and  CA_4 
REMARK    3  A    between atoms: CA_4  and  C_5 
REMARK    4  A    between atoms: CA_4  and  C_8 
REMARK    5  A    between atoms: C_14  and  C_15 
REMARK    6  A    between atoms: C_14  and  N_25 
REMARK    7  A    between atoms: C_15  and  C_16 
REMARK    8  A    between atoms: C_35  and  O_36 
ROOT
ATOM      1  C   UNL d   1      24.224 -15.945  -1.135  0.00  0.00     0.185 C 
ENDROOT
BRANCH   1   2
ATOM      2  C   UNL d   1      24.115 -14.890  -2.399  0.00  0.00     0.241 C 
ATOM      3  O   UNL d   1      22.992 -14.490  -2.705  0.00  0.00    -0.271 OA
ATOM      4  N   UNL d   1      25.273 -14.424  -3.049  0.00  0.00    -0.341 N 
ATOM      5  H   UNL d   1      26.068 -15.028  -3.109  0.00  0.00     0.163 HD
BRANCH   4   6
ATOM      6  CA  UNL d   1      25.405 -13.312  -4.081  0.00  0.00     0.219 C 
BRANCH   6   7
ATOM      7  C   UNL d   1      25.633 -11.852  -3.440  0.00  0.00     0.201 C 
ATOM      8  O   UNL d   1      25.192 -10.851  -4.081  0.00  0.00    -0.646 OA
ATOM      9  OXT UNL d   1      26.245 -11.822  -2.334  0.00  0.00    -0.646 OA
ENDBRANCH   6   7
BRANCH   6  10
ATOM     10  C   UNL d   1      26.528 -13.592  -5.156  0.00  0.00    -0.025 A 
ATOM     11  C   UNL d   1      27.151 -14.831  -5.388  0.00  0.00     0.010 A 
ATOM     12  C   UNL d   1      28.296 -14.983  -6.184  0.00  0.00     0.001 A 
ATOM     13  C   UNL d   1      28.806 -13.894  -6.867  0.00  0.00     0.000 A 
ATOM     14  C   UNL d   1      28.183 -12.660  -6.722  0.00  0.00     0.001 A 
ATOM     15  C   UNL d   1      27.056 -12.514  -5.892  0.00  0.00     0.010 A 
ENDBRANCH   6  10
ENDBRANCH   4   6
ENDBRANCH   1   2
BRANCH   1  16
ATOM     16  C   UNL d   1      23.139 -17.451  -1.232  0.00  0.00     0.052 C 
BRANCH  16  17
ATOM     17  C   UNL d   1      21.598 -17.986  -0.394  0.00  0.00     0.022 C 
ATOM     18  C   UNL d   1      21.247 -19.014  -1.250  0.00  0.00     0.093 C 
ATOM     19  N   UNL d   1      19.905 -18.713  -1.270  0.00  0.00    -0.285 NA
ATOM     20  C   UNL d   1      19.499 -19.314  -0.115  0.00  0.00     0.015 A 
ATOM     21  H   UNL d   1      19.552 -17.782  -1.433  0.00  0.00     0.128 HD
ATOM     22  C   UNL d   1      18.407 -20.208  -0.001  0.00  0.00     0.024 A 
ATOM     23  C   UNL d   1      20.580 -18.951   0.741  0.00  0.00    -0.025 A 
ATOM     24  C   UNL d   1      18.216 -20.978   1.117  0.00  0.00     0.002 A 
ATOM     25  C   UNL d   1      19.185 -20.830   2.094  0.00  0.00     0.001 A 
ATOM     26  C   UNL d   1      20.356 -19.841   1.965  0.00  0.00     0.010 A 
ENDBRANCH  16  17
ENDBRANCH   1  16
BRANCH   1  27
ATOM     27  N   UNL d   1      25.775 -16.235  -0.662  0.00  0.00    -0.291 N 
ATOM     28  C   UNL d   1      26.702 -15.230  -0.580  0.00  0.00     0.260 C 
ATOM     29  O   UNL d   1      26.486 -14.059  -0.981  0.00  0.00    -0.267 OA
ATOM     30  C   UNL d   1      28.046 -15.538  -0.030  0.00  0.00     0.058 C 
ATOM     31  C   UNL d   1      28.730 -14.644   0.772  0.00  0.00     0.019 C 
ATOM     32  C   UNL d   1      28.608 -16.775  -0.345  0.00  0.00     0.047 C 
ATOM     33  C   UNL d   1      30.042 -14.929   1.146  0.00  0.00     0.001 C 
ATOM     34  C   UNL d   1      30.655 -16.121   0.745  0.00  0.00     0.002 C 
ATOM     35  C   UNL d   1      29.943 -17.046  -0.021  0.00  0.00     0.030 C 
ATOM     36  N   UNL d   1      27.750 -17.755  -0.788  0.00  0.00    -0.346 N 
ATOM     37  C   UNL d   1      26.349 -17.567  -0.474  0.00  0.00     0.332 C 
ATOM     38  H   UNL d   1      27.972 -18.247  -1.649  0.00  0.00     0.164 HD
BRANCH  37  39
ATOM     39  O   UNL d   1      26.189 -17.865   0.903  0.00  0.00    -0.359 OA
ATOM     40  H   UNL d   1      26.986 -18.358   1.168  0.00  0.00     0.214 HD
ENDBRANCH  37  39
ENDBRANCH   1  27
TORSDOF 8
ENDMDL
