MODEL 1
REMARK VINA RESULT:    -7.766      0.000      0.000
REMARK INTER + INTRA:          -9.038
REMARK INTER:                  -8.661
REMARK INTRA:                  -0.377
REMARK CONF_INDEPENDENT:        0.895
REMARK UNBOUND:                -0.377
REMARK  3 active torsions:
REMARK  status: ('A' for Active; 'I' for Inactive)
REMARK    1  A    between atoms: C_5  and  C_6 
REMARK       I    between atoms: C_6  and  N_7 
REMARK    2  A    between atoms: C_10  and  N_11 
REMARK       I    between atoms: N_11  and  C_12 
REMARK    3  A    between atoms: C_12  and  C_14 
ROOT
ATOM      1  C   UNL d   1      27.595 -16.941  -0.153  0.00  0.00     0.050 C 
ATOM      2  C   UNL d   1      26.150 -17.181  -0.422  0.00  0.00    -0.035 A 
ATOM      3  C   UNL d   1      25.500 -17.880   0.603  0.00  0.00     0.010 A 
ATOM      4  C   UNL d   1      24.163 -18.200   0.520  0.00  0.00     0.017 A 
ATOM      5  C   UNL d   1      23.428 -17.823  -0.601  0.00  0.00     0.034 A 
ATOM      6  C   UNL d   1      24.074 -17.101  -1.645  0.00  0.00     0.047 A 
ATOM      7  C   UNL d   1      25.455 -16.768  -1.577  0.00  0.00     0.042 A 
ENDROOT
BRANCH   7   8
ATOM      8  N   UNL d   1      26.053 -16.052  -2.680  0.00  0.00    -0.322 N 
ATOM      9  C   UNL d   1      25.511 -15.019  -3.442  0.00  0.00     0.259 C 
ATOM     10  O   UNL d   1      24.405 -14.482  -3.394  0.00  0.00    -0.267 OA
ATOM     11  H   UNL d   1      26.982 -16.368  -2.942  0.00  0.00     0.169 HD
BRANCH   9  12
ATOM     12  C   UNL d   1      26.264 -14.368  -4.497  0.00  0.00     0.072 A 
ATOM     13  C   UNL d   1      27.088 -15.199  -5.285  0.00  0.00     0.022 A 
ATOM     14  C   UNL d   1      28.021 -14.639  -6.138  0.00  0.00     0.020 A 
ATOM     15  C   UNL d   1      28.104 -13.259  -6.160  0.00  0.00     0.118 A 
ATOM     16  N   UNL d   1      27.357 -12.431  -5.388  0.00  0.00    -0.248 NA
ATOM     17  C   UNL d   1      26.464 -13.007  -4.551  0.00  0.00     0.141 A 
ATOM     18 CL   UNL d   1      25.677 -11.891  -3.508  0.00  0.00    -0.061 Cl
ENDBRANCH   9  12
ENDBRANCH   7   8
BRANCH   5  19
ATOM     19  C   UNL d   1      21.979 -18.195  -0.695  0.00  0.00     0.249 C 
ATOM     20  N   UNL d   1      21.578 -19.407  -0.180  0.00  0.00    -0.366 N 
ATOM     21  H   UNL d   1      22.173 -20.087   0.266  0.00  0.00     0.159 HD
ATOM     22  H   UNL d   1      20.599 -19.649  -0.254  0.00  0.00     0.159 HD
ATOM     23  O   UNL d   1      21.160 -17.453  -1.223  0.00  0.00    -0.268 OA
ENDBRANCH   5  19
TORSDOF 3
ENDMDL
MODEL 2
REMARK VINA RESULT:    -7.712      1.361      1.764
REMARK INTER + INTRA:          -9.037
REMARK INTER:                  -8.607
REMARK INTRA:                  -0.430
REMARK CONF_INDEPENDENT:        0.895
REMARK UNBOUND:                -0.430
REMARK  3 active torsions:
REMARK  status: ('A' for Active; 'I' for Inactive)
REMARK    1  A    between atoms: C_5  and  C_6 
REMARK       I    between atoms: C_6  and  N_7 
REMARK    2  A    between atoms: C_10  and  N_11 
REMARK       I    between atoms: N_11  and  C_12 
REMARK    3  A    between atoms: C_12  and  C_14 
ROOT
ATOM      1  C   UNL d   1      27.595 -17.007  -0.323  0.00  0.00     0.050 C 
ATOM      2  C   UNL d   1      26.123 -17.177  -0.472  0.00  0.00    -0.035 A 
ATOM      3  C   UNL d   1      25.609 -18.257   0.255  0.00  0.00     0.010 A 
ATOM      4  C   UNL d   1      24.268 -18.572   0.226  0.00  0.00     0.017 A 
ATOM      5  C   UNL d   1      23.392 -17.803  -0.536  0.00  0.00     0.034 A 
ATOM      6  C   UNL d   1      23.900 -16.693  -1.270  0.00  0.00     0.047 A 
ATOM      7  C   UNL d   1      25.283 -16.360  -1.256  0.00  0.00     0.042 A 
ENDROOT
BRANCH   7   8
ATOM      8  N   UNL d   1      25.734 -15.234  -2.040  0.00  0.00    -0.322 N 
ATOM      9  C   UNL d   1      25.802 -15.111  -3.427  0.00  0.00     0.259 C 
ATOM     10  O   UNL d   1      25.530 -15.915  -4.317  0.00  0.00    -0.267 OA
ATOM     11  H   UNL d   1      26.066 -14.441  -1.498  0.00  0.00     0.169 HD
BRANCH   9  12
ATOM     12  C   UNL d   1      26.242 -13.886  -4.067  0.00  0.00     0.072 A 
ATOM     13  C   UNL d   1      25.384 -12.771  -3.947  0.00  0.00     0.022 A 
ATOM     14  C   UNL d   1      25.596 -11.649  -4.726  0.00  0.00     0.020 A 
ATOM     15  C   UNL d   1      26.656 -11.690  -5.613  0.00  0.00     0.118 A 
ATOM     16  N   UNL d   1      27.475 -12.759  -5.784  0.00  0.00    -0.248 NA
ATOM     17  C   UNL d   1      27.235 -13.848  -5.021  0.00  0.00     0.141 A 
ATOM     18 CL   UNL d   1      28.221 -15.199  -5.414  0.00  0.00    -0.061 Cl
ENDBRANCH   9  12
ENDBRANCH   7   8
BRANCH   5  19
ATOM     19  C   UNL d   1      21.938 -18.164  -0.581  0.00  0.00     0.249 C 
ATOM     20  N   UNL d   1      21.549 -19.384  -0.075  0.00  0.00    -0.366 N 
ATOM     21  H   UNL d   1      22.157 -20.077   0.333  0.00  0.00     0.159 HD
ATOM     22  H   UNL d   1      20.566 -19.619  -0.115  0.00  0.00     0.159 HD
ATOM     23  O   UNL d   1      21.104 -17.407  -1.060  0.00  0.00    -0.268 OA
ENDBRANCH   5  19
TORSDOF 3
ENDMDL
MODEL 3
REMARK VINA RESULT:    -6.336      2.680      7.030
REMARK INTER + INTRA:          -7.686
REMARK INTER:                  -7.231
REMARK INTRA:                  -0.455
REMARK CONF_INDEPENDENT:        0.895
REMARK UNBOUND:                -0.455
REMARK  3 active torsions:
REMARK  status: ('A' for Active; 'I' for Inactive)
REMARK    1  A    between atoms: C_5  and  C_6 
REMARK       I    between atoms: C_6  and  N_7 
REMARK    2  A    between atoms: C_10  and  N_11 
REMARK       I    between atoms: N_11  and  C_12 
REMARK    3  A    between atoms: C_12  and  C_14 
ROOT
ATOM      1  C   UNL d   1      27.483 -14.958  -5.594  0.00  0.00     0.050 C 
ATOM      2  C   UNL d   1      26.942 -13.754  -4.905  0.00  0.00    -0.035 A 
ATOM      3  C   UNL d   1      27.386 -12.548  -5.460  0.00  0.00     0.010 A 
ATOM      4  C   UNL d   1      26.996 -11.332  -4.942  0.00  0.00     0.017 A 
ATOM      5  C   UNL d   1      26.139 -11.288  -3.845  0.00  0.00     0.034 A 
ATOM      6  C   UNL d   1      25.671 -12.508  -3.279  0.00  0.00     0.047 A 
ATOM      7  C   UNL d   1      26.069 -13.771  -3.798  0.00  0.00     0.042 A 
ENDROOT
BRANCH   7   8
ATOM      8  N   UNL d   1      25.574 -14.971  -3.164  0.00  0.00    -0.322 N 
ATOM      9  C   UNL d   1      25.517 -15.276  -1.805  0.00  0.00     0.259 C 
ATOM     10  O   UNL d   1      25.890 -14.635  -0.823  0.00  0.00    -0.267 OA
ATOM     11  H   UNL d   1      25.248 -15.689  -3.803  0.00  0.00     0.169 HD
BRANCH   9  12
ATOM     12  C   UNL d   1      24.945 -16.517  -1.321  0.00  0.00     0.072 A 
ATOM     13  C   UNL d   1      23.537 -16.575  -1.252  0.00  0.00     0.022 A 
ATOM     14  C   UNL d   1      22.920 -17.611  -0.575  0.00  0.00     0.020 A 
ATOM     15  C   UNL d   1      23.741 -18.548   0.023  0.00  0.00     0.118 A 
ATOM     16  N   UNL d   1      25.097 -18.503   0.012  0.00  0.00    -0.248 NA
ATOM     17  C   UNL d   1      25.673 -17.470  -0.643  0.00  0.00     0.141 A 
ATOM     18 CL   UNL d   1      27.382 -17.412  -0.474  0.00  0.00    -0.061 Cl
ENDBRANCH   9  12
ENDBRANCH   7   8
BRANCH   5  19
ATOM     19  C   UNL d   1      25.738  -9.962  -3.273  0.00  0.00     0.249 C 
ATOM     20  N   UNL d   1      24.772  -9.230  -3.926  0.00  0.00    -0.366 N 
ATOM     21  H   UNL d   1      24.294  -9.501  -4.771  0.00  0.00     0.159 HD
ATOM     22  H   UNL d   1      24.512  -8.335  -3.533  0.00  0.00     0.159 HD
ATOM     23  O   UNL d   1      26.253  -9.521  -2.254  0.00  0.00    -0.268 OA
ENDBRANCH   5  19
TORSDOF 3
ENDMDL
MODEL 4
REMARK VINA RESULT:    -6.289      2.589      7.250
REMARK INTER + INTRA:          -7.654
REMARK INTER:                  -7.184
REMARK INTRA:                  -0.470
REMARK CONF_INDEPENDENT:        0.895
REMARK UNBOUND:                -0.470
REMARK  3 active torsions:
REMARK  status: ('A' for Active; 'I' for Inactive)
REMARK    1  A    between atoms: C_5  and  C_6 
REMARK       I    between atoms: C_6  and  N_7 
REMARK    2  A    between atoms: C_10  and  N_11 
REMARK       I    between atoms: N_11  and  C_12 
REMARK    3  A    between atoms: C_12  and  C_14 
ROOT
ATOM      1  C   UNL d   1      25.155 -12.682  -3.167  0.00  0.00     0.050 C 
ATOM      2  C   UNL d   1      26.166 -13.358  -4.026  0.00  0.00    -0.035 A 
ATOM      3  C   UNL d   1      26.900 -12.473  -4.825  0.00  0.00     0.010 A 
ATOM      4  C   UNL d   1      27.871 -12.923  -5.692  0.00  0.00     0.017 A 
ATOM      5  C   UNL d   1      28.142 -14.286  -5.782  0.00  0.00     0.034 A 
ATOM      6  C   UNL d   1      27.412 -15.196  -4.965  0.00  0.00     0.047 A 
ATOM      7  C   UNL d   1      26.401 -14.747  -4.070  0.00  0.00     0.042 A 
ENDROOT
BRANCH   7   8
ATOM      8  N   UNL d   1      25.684 -15.725  -3.285  0.00  0.00    -0.322 N 
ATOM      9  C   UNL d   1      25.507 -15.771  -1.903  0.00  0.00     0.259 C 
ATOM     10  O   UNL d   1      25.927 -15.029  -1.016  0.00  0.00    -0.267 OA
ATOM     11  H   UNL d   1      25.279 -16.488  -3.819  0.00  0.00     0.169 HD
BRANCH   9  12
ATOM     12  C   UNL d   1      24.714 -16.804  -1.266  0.00  0.00     0.072 A 
ATOM     13  C   UNL d   1      23.316 -16.616  -1.270  0.00  0.00     0.022 A 
ATOM     14  C   UNL d   1      22.509 -17.411  -0.477  0.00  0.00     0.020 A 
ATOM     15  C   UNL d   1      23.137 -18.360   0.307  0.00  0.00     0.118 A 
ATOM     16  N   UNL d   1      24.481 -18.542   0.367  0.00  0.00    -0.248 NA
ATOM     17  C   UNL d   1      25.246 -17.740  -0.407  0.00  0.00     0.141 A 
ATOM     18 CL   UNL d   1      26.933 -17.939  -0.150  0.00  0.00    -0.061 Cl
ENDBRANCH   9  12
ENDBRANCH   7   8
BRANCH   5  19
ATOM     19  C   UNL d   1      29.185 -14.771  -6.744  0.00  0.00     0.249 C 
ATOM     20  N   UNL d   1      29.715 -13.875  -7.645  0.00  0.00    -0.366 N 
ATOM     21  H   UNL d   1      29.468 -12.901  -7.726  0.00  0.00     0.159 HD
ATOM     22  H   UNL d   1      30.413 -14.215  -8.292  0.00  0.00     0.159 HD
ATOM     23  O   UNL d   1      29.561 -15.936  -6.747  0.00  0.00    -0.268 OA
ENDBRANCH   5  19
TORSDOF 3
ENDMDL
MODEL 5
REMARK VINA RESULT:    -6.178      1.973      2.102
REMARK INTER + INTRA:          -7.535
REMARK INTER:                  -7.073
REMARK INTRA:                  -0.463
REMARK CONF_INDEPENDENT:        0.895
REMARK UNBOUND:                -0.463
REMARK  3 active torsions:
REMARK  status: ('A' for Active; 'I' for Inactive)
REMARK    1  A    between atoms: C_5  and  C_6 
REMARK       I    between atoms: C_6  and  N_7 
REMARK    2  A    between atoms: C_10  and  N_11 
REMARK       I    between atoms: N_11  and  C_12 
REMARK    3  A    between atoms: C_12  and  C_14 
ROOT
ATOM      1  C   UNL d   1      26.823 -17.314   0.235  0.00  0.00     0.050 C 
ATOM      2  C   UNL d   1      25.416 -17.544  -0.195  0.00  0.00    -0.035 A 
ATOM      3  C   UNL d   1      24.659 -18.263   0.737  0.00  0.00     0.010 A 
ATOM      4  C   UNL d   1      23.339 -18.579   0.501  0.00  0.00     0.017 A 
ATOM      5  C   UNL d   1      22.731 -18.176  -0.685  0.00  0.00     0.034 A 
ATOM      6  C   UNL d   1      23.487 -17.432  -1.636  0.00  0.00     0.047 A 
ATOM      7  C   UNL d   1      24.853 -17.104  -1.410  0.00  0.00     0.042 A 
ENDROOT
BRANCH   7   8
ATOM      8  N   UNL d   1      25.567 -16.366  -2.425  0.00  0.00    -0.322 N 
ATOM      9  C   UNL d   1      26.466 -15.312  -2.264  0.00  0.00     0.259 C 
ATOM     10  O   UNL d   1      26.850 -14.735  -1.248  0.00  0.00    -0.267 OA
ATOM     11  H   UNL d   1      25.363 -16.644  -3.380  0.00  0.00     0.169 HD
BRANCH   9  12
ATOM     12  C   UNL d   1      27.140 -14.700  -3.392  0.00  0.00     0.072 A 
ATOM     13  C   UNL d   1      26.346 -13.897  -4.238  0.00  0.00     0.022 A 
ATOM     14  C   UNL d   1      26.839 -13.483  -5.462  0.00  0.00     0.020 A 
ATOM     15  C   UNL d   1      28.111 -13.905  -5.802  0.00  0.00     0.118 A 
ATOM     16  N   UNL d   1      28.886 -14.710  -5.032  0.00  0.00    -0.248 NA
ATOM     17  C   UNL d   1      28.372 -15.112  -3.849  0.00  0.00     0.141 A 
ATOM     18 CL   UNL d   1      29.359 -16.247  -3.017  0.00  0.00    -0.061 Cl
ENDBRANCH   9  12
ENDBRANCH   7   8
BRANCH   5  19
ATOM     19  C   UNL d   1      21.301 -18.542  -0.946  0.00  0.00     0.249 C 
ATOM     20  N   UNL d   1      20.415 -17.540  -1.269  0.00  0.00    -0.366 N 
ATOM     21  H   UNL d   1      20.634 -16.560  -1.352  0.00  0.00     0.159 HD
ATOM     22  H   UNL d   1      19.452 -17.799  -1.438  0.00  0.00     0.159 HD
ATOM     23  O   UNL d   1      20.912 -19.701  -0.869  0.00  0.00    -0.268 OA
ENDBRANCH   5  19
TORSDOF 3
ENDMDL
MODEL 6
REMARK VINA RESULT:    -6.155      1.735      2.250
REMARK INTER + INTRA:          -7.524
REMARK INTER:                  -7.050
REMARK INTRA:                  -0.474
REMARK CONF_INDEPENDENT:        0.895
REMARK UNBOUND:                -0.474
REMARK  3 active torsions:
REMARK  status: ('A' for Active; 'I' for Inactive)
REMARK    1  A    between atoms: C_5  and  C_6 
REMARK       I    between atoms: C_6  and  N_7 
REMARK    2  A    between atoms: C_10  and  N_11 
REMARK       I    between atoms: N_11  and  C_12 
REMARK    3  A    between atoms: C_12  and  C_14 
ROOT
ATOM      1  C   UNL d   1      28.971 -15.887  -0.936  0.00  0.00     0.050 C 
ATOM      2  C   UNL d   1      27.521 -16.226  -0.926  0.00  0.00    -0.035 A 
ATOM      3  C   UNL d   1      27.192 -17.239  -0.018  0.00  0.00     0.010 A 
ATOM      4  C   UNL d   1      25.897 -17.690   0.119  0.00  0.00     0.017 A 
ATOM      5  C   UNL d   1      24.883 -17.131  -0.654  0.00  0.00     0.034 A 
ATOM      6  C   UNL d   1      25.203 -16.091  -1.573  0.00  0.00     0.047 A 
ATOM      7  C   UNL d   1      26.535 -15.619  -1.731  0.00  0.00     0.042 A 
ENDROOT
BRANCH   7   8
ATOM      8  N   UNL d   1      26.794 -14.576  -2.696  0.00  0.00    -0.322 N 
ATOM      9  C   UNL d   1      26.271 -14.429  -3.979  0.00  0.00     0.259 C 
ATOM     10  O   UNL d   1      25.499 -15.143  -4.617  0.00  0.00    -0.267 OA
ATOM     11  H   UNL d   1      27.465 -13.874  -2.397  0.00  0.00     0.169 HD
BRANCH   9  12
ATOM     12  C   UNL d   1      26.599 -13.291  -4.815  0.00  0.00     0.072 A 
ATOM     13  C   UNL d   1      25.790 -12.144  -4.662  0.00  0.00     0.022 A 
ATOM     14  C   UNL d   1      25.869 -11.115  -5.582  0.00  0.00     0.020 A 
ATOM     15  C   UNL d   1      26.748 -11.279  -6.635  0.00  0.00     0.118 A 
ATOM     16  N   UNL d   1      27.510 -12.383  -6.837  0.00  0.00    -0.248 NA
ATOM     17  C   UNL d   1      27.401 -13.381  -5.931  0.00  0.00     0.141 A 
ATOM     18 CL   UNL d   1      28.285 -14.793  -6.350  0.00  0.00    -0.061 Cl
ENDBRANCH   9  12
ENDBRANCH   7   8
BRANCH   5  19
ATOM     19  C   UNL d   1      23.481 -17.643  -0.517  0.00  0.00     0.249 C 
ATOM     20  N   UNL d   1      23.204 -18.538   0.491  0.00  0.00    -0.366 N 
ATOM     21  H   UNL d   1      23.864 -18.894   1.164  0.00  0.00     0.159 HD
ATOM     22  H   UNL d   1      22.255 -18.879   0.571  0.00  0.00     0.159 HD
ATOM     23  O   UNL d   1      22.592 -17.288  -1.281  0.00  0.00    -0.268 OA
ENDBRANCH   5  19
TORSDOF 3
ENDMDL
MODEL 7
REMARK VINA RESULT:    -6.106      2.295      7.028
REMARK INTER + INTRA:          -7.476
REMARK INTER:                  -7.001
REMARK INTRA:                  -0.475
REMARK CONF_INDEPENDENT:        0.895
REMARK UNBOUND:                -0.475
REMARK  3 active torsions:
REMARK  status: ('A' for Active; 'I' for Inactive)
REMARK    1  A    between atoms: C_5  and  C_6 
REMARK       I    between atoms: C_6  and  N_7 
REMARK    2  A    between atoms: C_10  and  N_11 
REMARK       I    between atoms: N_11  and  C_12 
REMARK    3  A    between atoms: C_12  and  C_14 
ROOT
ATOM      1  C   UNL d   1      29.659 -16.298  -5.522  0.00  0.00     0.050 C 
ATOM      2  C   UNL d   1      28.802 -15.085  -5.627  0.00  0.00    -0.035 A 
ATOM      3  C   UNL d   1      29.178 -14.225  -6.665  0.00  0.00     0.010 A 
ATOM      4  C   UNL d   1      28.504 -13.047  -6.904  0.00  0.00     0.017 A 
ATOM      5  C   UNL d   1      27.420 -12.695  -6.104  0.00  0.00     0.034 A 
ATOM      6  C   UNL d   1      27.020 -13.568  -5.052  0.00  0.00     0.047 A 
ATOM      7  C   UNL d   1      27.709 -14.784  -4.789  0.00  0.00     0.042 A 
ENDROOT
BRANCH   7   8
ATOM      8  N   UNL d   1      27.264 -15.613  -3.693  0.00  0.00    -0.322 N 
ATOM      9  C   UNL d   1      26.020 -15.627  -3.063  0.00  0.00     0.259 C 
ATOM     10  O   UNL d   1      25.018 -14.939  -3.251  0.00  0.00    -0.267 OA
ATOM     11  H   UNL d   1      27.965 -16.249  -3.325  0.00  0.00     0.169 HD
BRANCH   9  12
ATOM     12  C   UNL d   1      25.713 -16.560  -1.996  0.00  0.00     0.072 A 
ATOM     13  C   UNL d   1      24.405 -17.090  -1.983  0.00  0.00     0.022 A 
ATOM     14  C   UNL d   1      23.950 -17.781  -0.875  0.00  0.00     0.020 A 
ATOM     15  C   UNL d   1      24.822 -17.903   0.191  0.00  0.00     0.118 A 
ATOM     16  N   UNL d   1      26.070 -17.372   0.230  0.00  0.00    -0.248 NA
ATOM     17  C   UNL d   1      26.482 -16.687  -0.861  0.00  0.00     0.141 A 
ATOM     18 CL   UNL d   1      28.008 -15.924  -0.661  0.00  0.00    -0.061 Cl
ENDBRANCH   9  12
ENDBRANCH   7   8
BRANCH   5  19
ATOM     19  C   UNL d   1      26.705 -11.401  -6.354  0.00  0.00     0.249 C 
ATOM     20  N   UNL d   1      25.529 -11.160  -5.681  0.00  0.00    -0.366 N 
ATOM     21  H   UNL d   1      25.088 -11.779  -5.019  0.00  0.00     0.159 HD
ATOM     22  H   UNL d   1      25.054 -10.286  -5.861  0.00  0.00     0.159 HD
ATOM     23  O   UNL d   1      27.140 -10.571  -7.143  0.00  0.00    -0.268 OA
ENDBRANCH   5  19
TORSDOF 3
ENDMDL
MODEL 8
REMARK VINA RESULT:    -6.085      4.352      6.857
REMARK INTER + INTRA:          -7.456
REMARK INTER:                  -6.980
REMARK INTRA:                  -0.475
REMARK CONF_INDEPENDENT:        0.895
REMARK UNBOUND:                -0.475
REMARK  3 active torsions:
REMARK  status: ('A' for Active; 'I' for Inactive)
REMARK    1  A    between atoms: C_5  and  C_6 
REMARK       I    between atoms: C_6  and  N_7 
REMARK    2  A    between atoms: C_10  and  N_11 
REMARK       I    between atoms: N_11  and  C_12 
REMARK    3  A    between atoms: C_12  and  C_14 
ROOT
ATOM      1  C   UNL d   1      26.551 -18.397   0.795  0.00  0.00     0.050 C 
ATOM      2  C   UNL d   1      26.342 -17.202  -0.068  0.00  0.00    -0.035 A 
ATOM      3  C   UNL d   1      25.521 -17.450  -1.174  0.00  0.00     0.010 A 
ATOM      4  C   UNL d   1      25.228 -16.462  -2.089  0.00  0.00     0.017 A 
ATOM      5  C   UNL d   1      25.751 -15.182  -1.919  0.00  0.00     0.034 A 
ATOM      6  C   UNL d   1      26.578 -14.914  -0.790  0.00  0.00     0.047 A 
ATOM      7  C   UNL d   1      26.895 -15.925   0.159  0.00  0.00     0.042 A 
ENDROOT
BRANCH   7   8
ATOM      8  N   UNL d   1      27.756 -15.590   1.270  0.00  0.00    -0.322 N 
ATOM      9  C   UNL d   1      27.657 -14.519   2.155  0.00  0.00     0.259 C 
ATOM     10  O   UNL d   1      26.852 -13.590   2.203  0.00  0.00    -0.267 OA
ATOM     11  H   UNL d   1      28.549 -16.212   1.398  0.00  0.00     0.169 HD
BRANCH   9  12
ATOM     12  C   UNL d   1      28.586 -14.346   3.256  0.00  0.00     0.072 A 
ATOM     13  C   UNL d   1      28.155 -14.805   4.519  0.00  0.00     0.022 A 
ATOM     14  C   UNL d   1      28.860 -14.459   5.657  0.00  0.00     0.020 A 
ATOM     15  C   UNL d   1      29.966 -13.648   5.489  0.00  0.00     0.118 A 
ATOM     16  N   UNL d   1      30.385 -13.155   4.296  0.00  0.00    -0.248 NA
ATOM     17  C   UNL d   1      29.668 -13.496   3.203  0.00  0.00     0.141 A 
ATOM     18 CL   UNL d   1      30.180 -12.704   1.767  0.00  0.00    -0.061 Cl
ENDBRANCH   9  12
ENDBRANCH   7   8
BRANCH   5  19
ATOM     19  C   UNL d   1      25.448 -14.118  -2.929  0.00  0.00     0.249 C 
ATOM     20  N   UNL d   1      25.931 -12.848  -2.711  0.00  0.00    -0.366 N 
ATOM     21  H   UNL d   1      26.483 -12.552  -1.921  0.00  0.00     0.159 HD
ATOM     22  H   UNL d   1      25.716 -12.137  -3.398  0.00  0.00     0.159 HD
ATOM     23  O   UNL d   1      24.780 -14.355  -3.928  0.00  0.00    -0.268 OA
ENDBRANCH   5  19
TORSDOF 3
ENDMDL
MODEL 9
REMARK VINA RESULT:    -6.082      2.938      3.973
REMARK INTER + INTRA:          -7.447
REMARK INTER:                  -6.976
REMARK INTRA:                  -0.471
REMARK CONF_INDEPENDENT:        0.895
REMARK UNBOUND:                -0.471
REMARK  3 active torsions:
REMARK  status: ('A' for Active; 'I' for Inactive)
REMARK    1  A    between atoms: C_5  and  C_6 
REMARK       I    between atoms: C_6  and  N_7 
REMARK    2  A    between atoms: C_10  and  N_11 
REMARK       I    between atoms: N_11  and  C_12 
REMARK    3  A    between atoms: C_12  and  C_14 
ROOT
ATOM      1  C   UNL d   1      25.059 -14.102  -3.855  0.00  0.00     0.050 C 
ATOM      2  C   UNL d   1      25.471 -15.144  -2.873  0.00  0.00    -0.035 A 
ATOM      3  C   UNL d   1      24.439 -15.537  -2.012  0.00  0.00     0.010 A 
ATOM      4  C   UNL d   1      24.641 -16.483  -1.032  0.00  0.00     0.017 A 
ATOM      5  C   UNL d   1      25.895 -17.072  -0.885  0.00  0.00     0.034 A 
ATOM      6  C   UNL d   1      26.950 -16.690  -1.763  0.00  0.00     0.047 A 
ATOM      7  C   UNL d   1      26.758 -15.710  -2.776  0.00  0.00     0.042 A 
ENDROOT
BRANCH   7   8
ATOM      8  N   UNL d   1      27.876 -15.353  -3.618  0.00  0.00    -0.322 N 
ATOM      9  C   UNL d   1      27.912 -15.219  -5.005  0.00  0.00     0.259 C 
ATOM     10  O   UNL d   1      27.035 -15.394  -5.850  0.00  0.00    -0.267 OA
ATOM     11  H   UNL d   1      28.752 -15.205  -3.126  0.00  0.00     0.169 HD
BRANCH   9  12
ATOM     12  C   UNL d   1      29.113 -14.807  -5.705  0.00  0.00     0.072 A 
ATOM     13  C   UNL d   1      29.029 -13.609  -6.445  0.00  0.00     0.022 A 
ATOM     14  C   UNL d   1      30.033 -13.274  -7.335  0.00  0.00     0.020 A 
ATOM     15  C   UNL d   1      31.082 -14.165  -7.463  0.00  0.00     0.118 A 
ATOM     16  N   UNL d   1      31.176 -15.345  -6.799  0.00  0.00    -0.248 NA
ATOM     17  C   UNL d   1      30.173 -15.653  -5.947  0.00  0.00     0.141 A 
ATOM     18 CL   UNL d   1      30.301 -17.228  -5.271  0.00  0.00    -0.061 Cl
ENDBRANCH   9  12
ENDBRANCH   7   8
BRANCH   5  19
ATOM     19  C   UNL d   1      26.115 -18.084   0.198  0.00  0.00     0.249 C 
ATOM     20  N   UNL d   1      27.405 -18.468   0.487  0.00  0.00    -0.366 N 
ATOM     21  H   UNL d   1      28.238 -18.129   0.033  0.00  0.00     0.159 HD
ATOM     22  H   UNL d   1      27.540 -19.154   1.217  0.00  0.00     0.159 HD
ATOM     23  O   UNL d   1      25.178 -18.574   0.817  0.00  0.00    -0.268 OA
ENDBRANCH   5  19
TORSDOF 3
ENDMDL
