MODEL 1
REMARK VINA RESULT:    -9.030      0.000      0.000
REMARK INTER + INTRA:         -12.530
REMARK INTER:                 -10.820
REMARK INTRA:                  -1.710
REMARK CONF_INDEPENDENT:        1.790
REMARK UNBOUND:                -1.710
REMARK  6 active torsions:
REMARK  status: ('A' for Active; 'I' for Inactive)
REMARK    1  A    between atoms: C_2  and  N_17 
REMARK    2  A    between atoms: C_2  and  C_3 
REMARK    3  A    between atoms: C_3  and  C_4 
REMARK       I    between atoms: C_4  and  N_6 
REMARK    4  A    between atoms: N_6  and  N_7 
REMARK       I    between atoms: N_7  and  C_8 
REMARK    5  A    between atoms: C_8  and  C_10 
REMARK       I    between atoms: N_17  and  C_18 
REMARK    6  A    between atoms: C_18  and  C_20 
ROOT
ATOM      1  C   UNL d   1      25.005 -15.749  -1.563  0.00  0.00     0.237 C 
ATOM      2  O   UNL d   1      25.702 -14.886  -1.026  0.00  0.00    -0.272 OA
ATOM      3  N   UNL d   1      25.181 -15.936  -2.917  0.00  0.00    -0.267 N 
ATOM      4  H   UNL d   1      24.748 -16.651  -3.498  0.00  0.00     0.190 HD
ENDROOT
BRANCH   1   5
ATOM      5  C   UNL d   1      23.948 -16.608  -0.829  0.00  0.00     0.129 C 
BRANCH   5   6
ATOM      6  C   UNL d   1      24.351 -18.101  -0.544  0.00  0.00     0.089 C 
ATOM      7  C   UNL d   1      25.601 -18.230   0.327  0.00  0.00     0.032 C 
BRANCH   6   8
ATOM      8  N   UNL d   1      23.269 -18.883   0.091  0.00  0.00    -0.356 N 
ATOM      9  C   UNL d   1      21.928 -18.673  -0.216  0.00  0.00     0.222 C 
ATOM     10  O   UNL d   1      21.532 -17.780  -0.962  0.00  0.00    -0.273 OA
ATOM     11  H   UNL d   1      23.511 -19.642   0.712  0.00  0.00     0.162 HD
BRANCH   9  12
ATOM     12  C   UNL d   1      20.927 -19.644   0.402  0.00  0.00     0.078 C 
ATOM     13  C   UNL d   1      20.654 -19.328   1.878  0.00  0.00     0.014 C 
ATOM     14  C   UNL d   1      19.548 -20.211   2.460  0.00  0.00     0.001 C 
ATOM     15  C   UNL d   1      18.284 -20.153   1.608  0.00  0.00     0.000 C 
ATOM     16  C   UNL d   1      18.577 -20.562   0.169  0.00  0.00     0.001 C 
ATOM     17  C   UNL d   1      19.652 -19.679  -0.441  0.00  0.00     0.014 C 
ENDBRANCH   9  12
ENDBRANCH   6   8
ENDBRANCH   5   6
ENDBRANCH   1   5
BRANCH   3  18
ATOM     18  N   UNL d   1      26.166 -15.098  -3.530  0.00  0.00    -0.263 N 
ATOM     19  C   UNL d   1      26.372 -15.163  -4.889  0.00  0.00     0.270 C 
ATOM     20  O   UNL d   1      25.753 -15.951  -5.608  0.00  0.00    -0.266 OA
ATOM     21  H   UNL d   1      26.570 -14.388  -2.916  0.00  0.00     0.190 HD
BRANCH  19  22
ATOM     22  C   UNL d   1      27.368 -14.227  -5.500  0.00  0.00     0.033 A 
ATOM     23  C   UNL d   1      27.278 -12.831  -5.394  0.00  0.00     0.019 A 
ATOM     24  C   UNL d   1      28.321 -12.018  -5.878  0.00  0.00     0.025 A 
ATOM     25  C   UNL d   1      29.441 -12.594  -6.478  0.00  0.00     0.034 A 
ATOM     26 CL   UNL d   1      30.722 -11.598  -7.054  0.00  0.00    -0.084 Cl
ATOM     27  C   UNL d   1      29.533 -13.977  -6.602  0.00  0.00     0.025 A 
ATOM     28  C   UNL d   1      28.501 -14.788  -6.113  0.00  0.00     0.019 A 
ENDBRANCH  19  22
ENDBRANCH   3  18
TORSDOF 6
ENDMDL
MODEL 2
REMARK VINA RESULT:    -8.504      4.050      9.642
REMARK INTER + INTRA:         -12.837
REMARK INTER:                 -10.294
REMARK INTRA:                  -2.543
REMARK CONF_INDEPENDENT:        1.790
REMARK UNBOUND:                -2.543
REMARK  6 active torsions:
REMARK  status: ('A' for Active; 'I' for Inactive)
REMARK    1  A    between atoms: C_2  and  N_17 
REMARK    2  A    between atoms: C_2  and  C_3 
REMARK    3  A    between atoms: C_3  and  C_4 
REMARK       I    between atoms: C_4  and  N_6 
REMARK    4  A    between atoms: N_6  and  N_7 
REMARK       I    between atoms: N_7  and  C_8 
REMARK    5  A    between atoms: C_8  and  C_10 
REMARK       I    between atoms: N_17  and  C_18 
REMARK    6  A    between atoms: C_18  and  C_20 
ROOT
ATOM      1  C   UNL d   1      25.696 -17.908   0.345  0.00  0.00     0.237 C 
ATOM      2  O   UNL d   1      25.545 -18.576   1.369  0.00  0.00    -0.272 OA
ATOM      3  N   UNL d   1      24.608 -17.802  -0.494  0.00  0.00    -0.267 N 
ATOM      4  H   UNL d   1      24.535 -17.232  -1.334  0.00  0.00     0.190 HD
ENDROOT
BRANCH   1   5
ATOM      5  C   UNL d   1      27.015 -17.208  -0.062  0.00  0.00     0.129 C 
BRANCH   5   6
ATOM      6  C   UNL d   1      26.956 -15.640  -0.177  0.00  0.00     0.089 C 
ATOM      7  C   UNL d   1      28.075 -14.940   0.593  0.00  0.00     0.032 C 
BRANCH   6   8
ATOM      8  N   UNL d   1      26.992 -15.160  -1.575  0.00  0.00    -0.356 N 
ATOM      9  C   UNL d   1      25.878 -15.224  -2.407  0.00  0.00     0.222 C 
ATOM     10  O   UNL d   1      24.817 -15.754  -2.084  0.00  0.00    -0.273 OA
ATOM     11  H   UNL d   1      27.826 -14.703  -1.915  0.00  0.00     0.162 HD
BRANCH   9  12
ATOM     12  C   UNL d   1      26.011 -14.563  -3.775  0.00  0.00     0.078 C 
ATOM     13  C   UNL d   1      26.127 -13.037  -3.669  0.00  0.00     0.014 C 
ATOM     14  C   UNL d   1      26.400 -12.385  -5.026  0.00  0.00     0.001 C 
ATOM     15  C   UNL d   1      27.608 -13.015  -5.712  0.00  0.00     0.000 C 
ATOM     16  C   UNL d   1      27.417 -14.518  -5.882  0.00  0.00     0.001 C 
ATOM     17  C   UNL d   1      27.173 -15.192  -4.543  0.00  0.00     0.014 C 
ENDBRANCH   9  12
ENDBRANCH   6   8
ENDBRANCH   5   6
ENDBRANCH   1   5
BRANCH   3  18
ATOM     18  N   UNL d   1      23.427 -18.485  -0.059  0.00  0.00    -0.263 N 
ATOM     19  C   UNL d   1      22.194 -18.078  -0.512  0.00  0.00     0.270 C 
ATOM     20  O   UNL d   1      22.059 -17.112  -1.266  0.00  0.00    -0.266 OA
ATOM     21  H   UNL d   1      23.597 -19.342   0.471  0.00  0.00     0.190 HD
BRANCH  19  22
ATOM     22  C   UNL d   1      20.989 -18.857  -0.082  0.00  0.00     0.033 A 
ATOM     23  C   UNL d   1      19.976 -19.257  -0.965  0.00  0.00     0.019 A 
ATOM     24  C   UNL d   1      18.942 -20.101  -0.516  0.00  0.00     0.025 A 
ATOM     25  C   UNL d   1      18.911 -20.532   0.811  0.00  0.00     0.034 A 
ATOM     26 CL   UNL d   1      17.654 -21.576   1.353  0.00  0.00    -0.084 Cl
ATOM     27  C   UNL d   1      19.904 -20.128   1.699  0.00  0.00     0.025 A 
ATOM     28  C   UNL d   1      20.938 -19.295   1.252  0.00  0.00     0.019 A 
ENDBRANCH  19  22
ENDBRANCH   3  18
TORSDOF 6
ENDMDL
MODEL 3
REMARK VINA RESULT:    -8.469      1.709      2.261
REMARK INTER + INTRA:         -12.055
REMARK INTER:                 -10.259
REMARK INTRA:                  -1.796
REMARK CONF_INDEPENDENT:        1.790
REMARK UNBOUND:                -1.796
REMARK  6 active torsions:
REMARK  status: ('A' for Active; 'I' for Inactive)
REMARK    1  A    between atoms: C_2  and  N_17 
REMARK    2  A    between atoms: C_2  and  C_3 
REMARK    3  A    between atoms: C_3  and  C_4 
REMARK       I    between atoms: C_4  and  N_6 
REMARK    4  A    between atoms: N_6  and  N_7 
REMARK       I    between atoms: N_7  and  C_8 
REMARK    5  A    between atoms: C_8  and  C_10 
REMARK       I    between atoms: N_17  and  C_18 
REMARK    6  A    between atoms: C_18  and  C_20 
ROOT
ATOM      1  C   UNL d   1      25.188 -15.914  -0.638  0.00  0.00     0.237 C 
ATOM      2  O   UNL d   1      25.707 -15.045   0.065  0.00  0.00    -0.272 OA
ATOM      3  N   UNL d   1      25.156 -15.677  -1.996  0.00  0.00    -0.267 N 
ATOM      4  H   UNL d   1      24.837 -16.315  -2.721  0.00  0.00     0.190 HD
ENDROOT
BRANCH   1   5
ATOM      5  C   UNL d   1      24.563 -17.222  -0.101  0.00  0.00     0.129 C 
BRANCH   5   6
ATOM      6  C   UNL d   1      23.296 -17.748  -0.872  0.00  0.00     0.089 C 
ATOM      7  C   UNL d   1      23.644 -18.482  -2.166  0.00  0.00     0.032 C 
BRANCH   6   8
ATOM      8  N   UNL d   1      22.448 -18.641  -0.053  0.00  0.00    -0.356 N 
ATOM      9  C   UNL d   1      21.089 -18.806  -0.306  0.00  0.00     0.222 C 
ATOM     10  O   UNL d   1      20.474 -18.170  -1.160  0.00  0.00    -0.273 OA
ATOM     11  H   UNL d   1      22.880 -19.205   0.665  0.00  0.00     0.162 HD
BRANCH   9  12
ATOM     12  C   UNL d   1      20.366 -19.863   0.521  0.00  0.00     0.078 C 
ATOM     13  C   UNL d   1      20.168 -19.421   1.976  0.00  0.00     0.014 C 
ATOM     14  C   UNL d   1      19.321 -20.417   2.771  0.00  0.00     0.001 C 
ATOM     15  C   UNL d   1      18.000 -20.710   2.066  0.00  0.00     0.000 C 
ATOM     16  C   UNL d   1      18.239 -21.234   0.655  0.00  0.00     0.001 C 
ATOM     17  C   UNL d   1      19.054 -20.247  -0.163  0.00  0.00     0.014 C 
ENDBRANCH   9  12
ENDBRANCH   6   8
ENDBRANCH   5   6
ENDBRANCH   1   5
BRANCH   3  18
ATOM     18  N   UNL d   1      25.742 -14.441  -2.419  0.00  0.00    -0.263 N 
ATOM     19  C   UNL d   1      25.706 -14.085  -3.747  0.00  0.00     0.270 C 
ATOM     20  O   UNL d   1      25.210 -14.814  -4.608  0.00  0.00    -0.266 OA
ATOM     21  H   UNL d   1      26.038 -13.824  -1.660  0.00  0.00     0.190 HD
BRANCH  19  22
ATOM     22  C   UNL d   1      26.276 -12.756  -4.139  0.00  0.00     0.033 A 
ATOM     23  C   UNL d   1      26.941 -12.533  -5.354  0.00  0.00     0.019 A 
ATOM     24  C   UNL d   1      27.331 -11.228  -5.714  0.00  0.00     0.025 A 
ATOM     25  C   UNL d   1      27.073 -10.155  -4.860  0.00  0.00     0.034 A 
ATOM     26 CL   UNL d   1      27.538  -8.560  -5.311  0.00  0.00    -0.084 Cl
ATOM     27  C   UNL d   1      26.428 -10.369  -3.646  0.00  0.00     0.025 A 
ATOM     28  C   UNL d   1      26.030 -11.665  -3.290  0.00  0.00     0.019 A 
ENDBRANCH  19  22
ENDBRANCH   3  18
TORSDOF 6
ENDMDL
MODEL 4
REMARK VINA RESULT:    -7.968      5.266      9.519
REMARK INTER + INTRA:         -11.547
REMARK INTER:                  -9.758
REMARK INTRA:                  -1.790
REMARK CONF_INDEPENDENT:        1.790
REMARK UNBOUND:                -1.790
REMARK  6 active torsions:
REMARK  status: ('A' for Active; 'I' for Inactive)
REMARK    1  A    between atoms: C_2  and  N_17 
REMARK    2  A    between atoms: C_2  and  C_3 
REMARK    3  A    between atoms: C_3  and  C_4 
REMARK       I    between atoms: C_4  and  N_6 
REMARK    4  A    between atoms: N_6  and  N_7 
REMARK       I    between atoms: N_7  and  C_8 
REMARK    5  A    between atoms: C_8  and  C_10 
REMARK       I    between atoms: N_17  and  C_18 
REMARK    6  A    between atoms: C_18  and  C_20 
ROOT
ATOM      1  C   UNL d   1      26.185 -17.381  -0.652  0.00  0.00     0.237 C 
ATOM      2  O   UNL d   1      26.323 -18.536  -0.246  0.00  0.00    -0.272 OA
ATOM      3  N   UNL d   1      24.893 -16.913  -0.768  0.00  0.00    -0.267 N 
ATOM      4  H   UNL d   1      24.603 -15.969  -1.012  0.00  0.00     0.190 HD
ENDROOT
BRANCH   1   5
ATOM      5  C   UNL d   1      27.349 -16.445  -1.054  0.00  0.00     0.129 C 
BRANCH   5   6
ATOM      6  C   UNL d   1      28.624 -16.498  -0.135  0.00  0.00     0.089 C 
ATOM      7  C   UNL d   1      29.913 -16.147  -0.876  0.00  0.00     0.032 C 
BRANCH   6   8
ATOM      8  N   UNL d   1      28.523 -15.617   1.048  0.00  0.00    -0.356 N 
ATOM      9  C   UNL d   1      27.754 -14.457   1.042  0.00  0.00     0.222 C 
ATOM     10  O   UNL d   1      27.174 -14.030   0.046  0.00  0.00    -0.273 OA
ATOM     11  H   UNL d   1      28.965 -15.901   1.911  0.00  0.00     0.162 HD
BRANCH   9  12
ATOM     12  C   UNL d   1      27.622 -13.720   2.371  0.00  0.00     0.078 C 
ATOM     13  C   UNL d   1      27.767 -14.664   3.571  0.00  0.00     0.014 C 
ATOM     14  C   UNL d   1      27.775 -13.908   4.901  0.00  0.00     0.001 C 
ATOM     15  C   UNL d   1      28.822 -12.799   4.903  0.00  0.00     0.000 C 
ATOM     16  C   UNL d   1      28.591 -11.829   3.751  0.00  0.00     0.001 C 
ATOM     17  C   UNL d   1      28.608 -12.553   2.415  0.00  0.00     0.014 C 
ENDBRANCH   9  12
ENDBRANCH   6   8
ENDBRANCH   5   6
ENDBRANCH   1   5
BRANCH   3  18
ATOM     18  N   UNL d   1      23.868 -17.839  -0.390  0.00  0.00    -0.263 N 
ATOM     19  C   UNL d   1      22.545 -17.475  -0.490  0.00  0.00     0.270 C 
ATOM     20  O   UNL d   1      22.201 -16.353  -0.869  0.00  0.00    -0.266 OA
ATOM     21  H   UNL d   1      24.196 -18.786  -0.192  0.00  0.00     0.190 HD
BRANCH  19  22
ATOM     22  C   UNL d   1      21.503 -18.493  -0.144  0.00  0.00     0.033 A 
ATOM     23  C   UNL d   1      21.281 -18.953   1.163  0.00  0.00     0.019 A 
ATOM     24  C   UNL d   1      20.197 -19.809   1.434  0.00  0.00     0.025 A 
ATOM     25  C   UNL d   1      19.346 -20.215   0.406  0.00  0.00     0.034 A 
ATOM     26 CL   UNL d   1      18.011 -21.248   0.744  0.00  0.00    -0.084 Cl
ATOM     27  C   UNL d   1      19.566 -19.776  -0.896  0.00  0.00     0.025 A 
ATOM     28  C   UNL d   1      20.640 -18.917  -1.167  0.00  0.00     0.019 A 
ENDBRANCH  19  22
ENDBRANCH   3  18
TORSDOF 6
ENDMDL
MODEL 5
REMARK VINA RESULT:    -7.889      4.444      5.304
REMARK INTER + INTRA:         -11.516
REMARK INTER:                  -9.679
REMARK INTRA:                  -1.838
REMARK CONF_INDEPENDENT:        1.790
REMARK UNBOUND:                -1.838
REMARK  6 active torsions:
REMARK  status: ('A' for Active; 'I' for Inactive)
REMARK    1  A    between atoms: C_2  and  N_17 
REMARK    2  A    between atoms: C_2  and  C_3 
REMARK    3  A    between atoms: C_3  and  C_4 
REMARK       I    between atoms: C_4  and  N_6 
REMARK    4  A    between atoms: N_6  and  N_7 
REMARK       I    between atoms: N_7  and  C_8 
REMARK    5  A    between atoms: C_8  and  C_10 
REMARK       I    between atoms: N_17  and  C_18 
REMARK    6  A    between atoms: C_18  and  C_20 
ROOT
ATOM      1  C   UNL d   1      26.310 -18.366   0.219  0.00  0.00     0.237 C 
ATOM      2  O   UNL d   1      26.769 -18.924   1.216  0.00  0.00    -0.272 OA
ATOM      3  N   UNL d   1      27.155 -17.519  -0.464  0.00  0.00    -0.267 N 
ATOM      4  H   UNL d   1      26.966 -17.041  -1.343  0.00  0.00     0.190 HD
ENDROOT
BRANCH   1   5
ATOM      5  C   UNL d   1      24.861 -18.538  -0.296  0.00  0.00     0.129 C 
BRANCH   5   6
ATOM      6  C   UNL d   1      23.932 -17.274  -0.174  0.00  0.00     0.089 C 
ATOM      7  C   UNL d   1      23.913 -16.419  -1.441  0.00  0.00     0.032 C 
BRANCH   6   8
ATOM      8  N   UNL d   1      22.535 -17.612   0.170  0.00  0.00    -0.356 N 
ATOM      9  C   UNL d   1      21.829 -18.608  -0.499  0.00  0.00     0.222 C 
ATOM     10  O   UNL d   1      22.270 -19.219  -1.471  0.00  0.00    -0.273 OA
ATOM     11  H   UNL d   1      22.101 -17.160   0.962  0.00  0.00     0.162 HD
BRANCH   9  12
ATOM     12  C   UNL d   1      20.449 -18.952   0.051  0.00  0.00     0.078 C 
ATOM     13  C   UNL d   1      19.731 -20.000  -0.809  0.00  0.00     0.014 C 
ATOM     14  C   UNL d   1      18.409 -20.450  -0.184  0.00  0.00     0.001 C 
ATOM     15  C   UNL d   1      18.604 -20.913   1.257  0.00  0.00     0.000 C 
ATOM     16  C   UNL d   1      19.237 -19.813   2.102  0.00  0.00     0.001 C 
ATOM     17  C   UNL d   1      20.566 -19.370   1.517  0.00  0.00     0.014 C 
ENDBRANCH   9  12
ENDBRANCH   6   8
ENDBRANCH   5   6
ENDBRANCH   1   5
BRANCH   3  18
ATOM     18  N   UNL d   1      28.475 -17.400   0.077  0.00  0.00    -0.263 N 
ATOM     19  C   UNL d   1      29.369 -16.517  -0.484  0.00  0.00     0.270 C 
ATOM     20  O   UNL d   1      29.085 -15.835  -1.471  0.00  0.00    -0.266 OA
ATOM     21  H   UNL d   1      28.626 -17.898   0.956  0.00  0.00     0.190 HD
BRANCH  19  22
ATOM     22  C   UNL d   1      30.720 -16.379   0.149  0.00  0.00     0.033 A 
ATOM     23  C   UNL d   1      31.702 -17.379   0.094  0.00  0.00     0.019 A 
ATOM     24  C   UNL d   1      32.993 -17.127   0.595  0.00  0.00     0.025 A 
ATOM     25  C   UNL d   1      33.299 -15.889   1.162  0.00  0.00     0.034 A 
ATOM     26 CL   UNL d   1      34.884 -15.579   1.759  0.00  0.00    -0.084 Cl
ATOM     27  C   UNL d   1      32.327 -14.896   1.235  0.00  0.00     0.025 A 
ATOM     28  C   UNL d   1      31.044 -15.141   0.729  0.00  0.00     0.019 A 
ENDBRANCH  19  22
ENDBRANCH   3  18
TORSDOF 6
ENDMDL
MODEL 6
REMARK VINA RESULT:    -7.582      4.078      9.782
REMARK INTER + INTRA:         -11.493
REMARK INTER:                  -9.372
REMARK INTRA:                  -2.122
REMARK CONF_INDEPENDENT:        1.790
REMARK UNBOUND:                -2.122
REMARK  6 active torsions:
REMARK  status: ('A' for Active; 'I' for Inactive)
REMARK    1  A    between atoms: C_2  and  N_17 
REMARK    2  A    between atoms: C_2  and  C_3 
REMARK    3  A    between atoms: C_3  and  C_4 
REMARK       I    between atoms: C_4  and  N_6 
REMARK    4  A    between atoms: N_6  and  N_7 
REMARK       I    between atoms: N_7  and  C_8 
REMARK    5  A    between atoms: C_8  and  C_10 
REMARK       I    between atoms: N_17  and  C_18 
REMARK    6  A    between atoms: C_18  and  C_20 
ROOT
ATOM      1  C   UNL d   1      26.717 -14.695  -4.220  0.00  0.00     0.237 C 
ATOM      2  O   UNL d   1      25.563 -14.478  -4.591  0.00  0.00    -0.272 OA
ATOM      3  N   UNL d   1      26.877 -15.577  -3.173  0.00  0.00    -0.267 N 
ATOM      4  H   UNL d   1      27.755 -15.925  -2.794  0.00  0.00     0.190 HD
ENDROOT
BRANCH   1   5
ATOM      5  C   UNL d   1      27.976 -14.037  -4.831  0.00  0.00     0.129 C 
BRANCH   5   6
ATOM      6  C   UNL d   1      28.243 -14.341  -6.351  0.00  0.00     0.089 C 
ATOM      7  C   UNL d   1      28.639 -13.100  -7.151  0.00  0.00     0.032 C 
BRANCH   6   8
ATOM      8  N   UNL d   1      29.283 -15.371  -6.562  0.00  0.00    -0.356 N 
ATOM      9  C   UNL d   1      29.689 -16.231  -5.545  0.00  0.00     0.222 C 
ATOM     10  O   UNL d   1      29.287 -16.151  -4.386  0.00  0.00    -0.273 OA
ATOM     11  H   UNL d   1      29.658 -15.507  -7.490  0.00  0.00     0.162 HD
BRANCH   9  12
ATOM     12  C   UNL d   1      30.662 -17.338  -5.937  0.00  0.00     0.078 C 
ATOM     13  C   UNL d   1      30.270 -18.691  -5.329  0.00  0.00     0.014 C 
ATOM     14  C   UNL d   1      31.162 -19.827  -5.833  0.00  0.00     0.001 C 
ATOM     15  C   UNL d   1      31.208 -19.865  -7.357  0.00  0.00     0.000 C 
ATOM     16  C   UNL d   1      31.689 -18.533  -7.921  0.00  0.00     0.001 C 
ATOM     17  C   UNL d   1      30.800 -17.391  -7.458  0.00  0.00     0.014 C 
ENDBRANCH   9  12
ENDBRANCH   6   8
ENDBRANCH   5   6
ENDBRANCH   1   5
BRANCH   3  18
ATOM     18  N   UNL d   1      25.668 -16.137  -2.650  0.00  0.00    -0.263 N 
ATOM     19  C   UNL d   1      25.706 -16.909  -1.511  0.00  0.00     0.270 C 
ATOM     20  O   UNL d   1      26.762 -17.169  -0.931  0.00  0.00    -0.266 OA
ATOM     21  H   UNL d   1      24.811 -15.804  -3.096  0.00  0.00     0.190 HD
BRANCH  19  22
ATOM     22  C   UNL d   1      24.411 -17.425  -0.963  0.00  0.00     0.033 A 
ATOM     23  C   UNL d   1      23.232 -16.666  -0.929  0.00  0.00     0.019 A 
ATOM     24  C   UNL d   1      22.022 -17.260  -0.524  0.00  0.00     0.025 A 
ATOM     25  C   UNL d   1      21.991 -18.601  -0.140  0.00  0.00     0.034 A 
ATOM     26 CL   UNL d   1      20.506 -19.329   0.341  0.00  0.00    -0.084 Cl
ATOM     27  C   UNL d   1      23.158 -19.359  -0.155  0.00  0.00     0.025 A 
ATOM     28  C   UNL d   1      24.362 -18.772  -0.567  0.00  0.00     0.019 A 
ENDBRANCH  19  22
ENDBRANCH   3  18
TORSDOF 6
ENDMDL
MODEL 7
REMARK VINA RESULT:    -7.079      5.498      7.955
REMARK INTER + INTRA:         -11.588
REMARK INTER:                  -8.869
REMARK INTRA:                  -2.719
REMARK CONF_INDEPENDENT:        1.790
REMARK UNBOUND:                -2.719
REMARK  6 active torsions:
REMARK  status: ('A' for Active; 'I' for Inactive)
REMARK    1  A    between atoms: C_2  and  N_17 
REMARK    2  A    between atoms: C_2  and  C_3 
REMARK    3  A    between atoms: C_3  and  C_4 
REMARK       I    between atoms: C_4  and  N_6 
REMARK    4  A    between atoms: N_6  and  N_7 
REMARK       I    between atoms: N_7  and  C_8 
REMARK    5  A    between atoms: C_8  and  C_10 
REMARK       I    between atoms: N_17  and  C_18 
REMARK    6  A    between atoms: C_18  and  C_20 
ROOT
ATOM      1  C   UNL d   1      29.056 -15.527  -0.290  0.00  0.00     0.237 C 
ATOM      2  O   UNL d   1      30.054 -15.958   0.290  0.00  0.00    -0.272 OA
ATOM      3  N   UNL d   1      28.144 -14.834   0.476  0.00  0.00    -0.267 N 
ATOM      4  H   UNL d   1      27.311 -14.350   0.148  0.00  0.00     0.190 HD
ENDROOT
BRANCH   1   5
ATOM      5  C   UNL d   1      28.757 -15.731  -1.794  0.00  0.00     0.129 C 
BRANCH   5   6
ATOM      6  C   UNL d   1      27.309 -15.336  -2.267  0.00  0.00     0.089 C 
ATOM      7  C   UNL d   1      27.167 -15.291  -3.788  0.00  0.00     0.032 C 
BRANCH   6   8
ATOM      8  N   UNL d   1      26.261 -16.233  -1.736  0.00  0.00    -0.356 N 
ATOM      9  C   UNL d   1      25.468 -15.880  -0.648  0.00  0.00     0.222 C 
ATOM     10  O   UNL d   1      25.627 -14.851   0.004  0.00  0.00    -0.273 OA
ATOM     11  H   UNL d   1      26.062 -17.096  -2.222  0.00  0.00     0.162 HD
BRANCH   9  12
ATOM     12  C   UNL d   1      24.331 -16.834  -0.295  0.00  0.00     0.078 C 
ATOM     13  C   UNL d   1      23.040 -16.494  -1.050  0.00  0.00     0.014 C 
ATOM     14  C   UNL d   1      21.941 -17.531  -0.805  0.00  0.00     0.001 C 
ATOM     15  C   UNL d   1      22.434 -18.944  -1.101  0.00  0.00     0.000 C 
ATOM     16  C   UNL d   1      23.665 -19.278  -0.266  0.00  0.00     0.001 C 
ATOM     17  C   UNL d   1      24.781 -18.278  -0.514  0.00  0.00     0.014 C 
ENDBRANCH   9  12
ENDBRANCH   6   8
ENDBRANCH   5   6
ENDBRANCH   1   5
BRANCH   3  18
ATOM     18  N   UNL d   1      28.481 -14.696   1.860  0.00  0.00    -0.263 N 
ATOM     19  C   UNL d   1      27.669 -13.962   2.694  0.00  0.00     0.270 C 
ATOM     20  O   UNL d   1      26.662 -13.382   2.283  0.00  0.00    -0.266 OA
ATOM     21  H   UNL d   1      29.256 -15.283   2.175  0.00  0.00     0.190 HD
BRANCH  19  22
ATOM     22  C   UNL d   1      28.024 -13.893   4.147  0.00  0.00     0.033 A 
ATOM     23  C   UNL d   1      28.494 -14.995   4.878  0.00  0.00     0.019 A 
ATOM     24  C   UNL d   1      28.935 -14.825   6.204  0.00  0.00     0.025 A 
ATOM     25  C   UNL d   1      28.894 -13.566   6.804  0.00  0.00     0.034 A 
ATOM     26 CL   UNL d   1      29.449 -13.359   8.421  0.00  0.00    -0.084 Cl
ATOM     27  C   UNL d   1      28.416 -12.470   6.093  0.00  0.00     0.025 A 
ATOM     28  C   UNL d   1      27.985 -12.634   4.770  0.00  0.00     0.019 A 
ENDBRANCH  19  22
ENDBRANCH   3  18
TORSDOF 6
ENDMDL
MODEL 8
REMARK VINA RESULT:    -6.265      4.195      8.556
REMARK INTER + INTRA:         -11.424
REMARK INTER:                  -8.055
REMARK INTRA:                  -3.369
REMARK CONF_INDEPENDENT:        1.790
REMARK UNBOUND:                -3.369
REMARK  6 active torsions:
REMARK  status: ('A' for Active; 'I' for Inactive)
REMARK    1  A    between atoms: C_2  and  N_17 
REMARK    2  A    between atoms: C_2  and  C_3 
REMARK    3  A    between atoms: C_3  and  C_4 
REMARK       I    between atoms: C_4  and  N_6 
REMARK    4  A    between atoms: N_6  and  N_7 
REMARK       I    between atoms: N_7  and  C_8 
REMARK    5  A    between atoms: C_8  and  C_10 
REMARK       I    between atoms: N_17  and  C_18 
REMARK    6  A    between atoms: C_18  and  C_20 
ROOT
ATOM      1  C   UNL d   1      29.346 -16.945  -0.511  0.00  0.00     0.237 C 
ATOM      2  O   UNL d   1      29.208 -18.113  -0.879  0.00  0.00    -0.272 OA
ATOM      3  N   UNL d   1      28.196 -16.252  -0.198  0.00  0.00    -0.267 N 
ATOM      4  H   UNL d   1      28.133 -15.314   0.191  0.00  0.00     0.190 HD
ENDROOT
BRANCH   1   5
ATOM      5  C   UNL d   1      30.704 -16.213  -0.398  0.00  0.00     0.129 C 
BRANCH   5   6
ATOM      6  C   UNL d   1      31.029 -15.184  -1.543  0.00  0.00     0.089 C 
ATOM      7  C   UNL d   1      32.228 -15.595  -2.396  0.00  0.00     0.032 C 
BRANCH   6   8
ATOM      8  N   UNL d   1      29.885 -14.943  -2.447  0.00  0.00    -0.356 N 
ATOM      9  C   UNL d   1      28.827 -14.110  -2.095  0.00  0.00     0.222 C 
ATOM     10  O   UNL d   1      28.714 -13.584  -0.990  0.00  0.00    -0.273 OA
ATOM     11  H   UNL d   1      29.904 -15.334  -3.378  0.00  0.00     0.162 HD
BRANCH   9  12
ATOM     12  C   UNL d   1      27.786 -13.836  -3.176  0.00  0.00     0.078 C 
ATOM     13  C   UNL d   1      27.302 -15.126  -3.850  0.00  0.00     0.014 C 
ATOM     14  C   UNL d   1      26.160 -14.868  -4.834  0.00  0.00     0.001 C 
ATOM     15  C   UNL d   1      25.023 -14.093  -4.175  0.00  0.00     0.000 C 
ATOM     16  C   UNL d   1      25.524 -12.775  -3.596  0.00  0.00     0.001 C 
ATOM     17  C   UNL d   1      26.641 -13.009  -2.593  0.00  0.00     0.014 C 
ENDBRANCH   9  12
ENDBRANCH   6   8
ENDBRANCH   5   6
ENDBRANCH   1   5
BRANCH   3  18
ATOM     18  N   UNL d   1      26.977 -16.990  -0.338  0.00  0.00    -0.263 N 
ATOM     19  C   UNL d   1      25.775 -16.323  -0.389  0.00  0.00     0.270 C 
ATOM     20  O   UNL d   1      25.701 -15.096  -0.286  0.00  0.00    -0.266 OA
ATOM     21  H   UNL d   1      27.096 -17.986  -0.532  0.00  0.00     0.190 HD
BRANCH  19  22
ATOM     22  C   UNL d   1      24.528 -17.126  -0.597  0.00  0.00     0.033 A 
ATOM     23  C   UNL d   1      24.485 -18.523  -0.481  0.00  0.00     0.019 A 
ATOM     24  C   UNL d   1      23.252 -19.199  -0.558  0.00  0.00     0.025 A 
ATOM     25  C   UNL d   1      22.070 -18.486  -0.763  0.00  0.00     0.034 A 
ATOM     26 CL   UNL d   1      20.562 -19.314  -0.841  0.00  0.00    -0.084 Cl
ATOM     27  C   UNL d   1      22.104 -17.101  -0.894  0.00  0.00     0.025 A 
ATOM     28  C   UNL d   1      23.329 -16.426  -0.810  0.00  0.00     0.019 A 
ENDBRANCH  19  22
ENDBRANCH   3  18
TORSDOF 6
ENDMDL
MODEL 9
REMARK VINA RESULT:    -6.214      4.141      8.573
REMARK INTER + INTRA:         -11.499
REMARK INTER:                  -8.003
REMARK INTRA:                  -3.495
REMARK CONF_INDEPENDENT:        1.790
REMARK UNBOUND:                -3.495
REMARK  6 active torsions:
REMARK  status: ('A' for Active; 'I' for Inactive)
REMARK    1  A    between atoms: C_2  and  N_17 
REMARK    2  A    between atoms: C_2  and  C_3 
REMARK    3  A    between atoms: C_3  and  C_4 
REMARK       I    between atoms: C_4  and  N_6 
REMARK    4  A    between atoms: N_6  and  N_7 
REMARK       I    between atoms: N_7  and  C_8 
REMARK    5  A    between atoms: C_8  and  C_10 
REMARK       I    between atoms: N_17  and  C_18 
REMARK    6  A    between atoms: C_18  and  C_20 
ROOT
ATOM      1  C   UNL d   1      27.087 -13.216   0.903  0.00  0.00     0.237 C 
ATOM      2  O   UNL d   1      26.024 -13.007   1.488  0.00  0.00    -0.272 OA
ATOM      3  N   UNL d   1      27.147 -14.341   0.109  0.00  0.00    -0.267 N 
ATOM      4  H   UNL d   1      27.914 -14.621  -0.499  0.00  0.00     0.190 HD
ENDROOT
BRANCH   1   5
ATOM      5  C   UNL d   1      28.344 -12.323   1.016  0.00  0.00     0.129 C 
BRANCH   5   6
ATOM      6  C   UNL d   1      28.560 -11.286  -0.147  0.00  0.00     0.089 C 
ATOM      7  C   UNL d   1      30.034 -10.993  -0.425  0.00  0.00     0.032 C 
BRANCH   6   8
ATOM      8  N   UNL d   1      27.929 -11.701  -1.418  0.00  0.00    -0.356 N 
ATOM      9  C   UNL d   1      28.314 -12.858  -2.091  0.00  0.00     0.222 C 
ATOM     10  O   UNL d   1      29.251 -13.571  -1.737  0.00  0.00    -0.273 OA
ATOM     11  H   UNL d   1      27.145 -11.172  -1.773  0.00  0.00     0.162 HD
BRANCH   9  12
ATOM     12  C   UNL d   1      27.485 -13.244  -3.311  0.00  0.00     0.078 C 
ATOM     13  C   UNL d   1      27.914 -14.596  -3.895  0.00  0.00     0.014 C 
ATOM     14  C   UNL d   1      26.995 -15.050  -5.031  0.00  0.00     0.001 C 
ATOM     15  C   UNL d   1      25.532 -15.041  -4.599  0.00  0.00     0.000 C 
ATOM     16  C   UNL d   1      25.116 -13.658  -4.110  0.00  0.00     0.001 C 
ATOM     17  C   UNL d   1      25.997 -13.197  -2.962  0.00  0.00     0.014 C 
ENDBRANCH   9  12
ENDBRANCH   6   8
ENDBRANCH   5   6
ENDBRANCH   1   5
BRANCH   3  18
ATOM     18  N   UNL d   1      25.951 -15.126   0.062  0.00  0.00    -0.263 N 
ATOM     19  C   UNL d   1      25.841 -16.154  -0.846  0.00  0.00     0.270 C 
ATOM     20  O   UNL d   1      26.734 -16.411  -1.657  0.00  0.00    -0.266 OA
ATOM     21  H   UNL d   1      25.291 -14.950   0.822  0.00  0.00     0.190 HD
BRANCH  19  22
ATOM     22  C   UNL d   1      24.598 -16.990  -0.821  0.00  0.00     0.033 A 
ATOM     23  C   UNL d   1      24.598 -18.360  -0.518  0.00  0.00     0.019 A 
ATOM     24  C   UNL d   1      23.379 -19.051  -0.382  0.00  0.00     0.025 A 
ATOM     25  C   UNL d   1      22.167 -18.384  -0.562  0.00  0.00     0.034 A 
ATOM     26 CL   UNL d   1      20.678 -19.229  -0.379  0.00  0.00    -0.084 Cl
ATOM     27  C   UNL d   1      22.157 -17.029  -0.877  0.00  0.00     0.025 A 
ATOM     28  C   UNL d   1      23.368 -16.336  -1.005  0.00  0.00     0.019 A 
ENDBRANCH  19  22
ENDBRANCH   3  18
TORSDOF 6
ENDMDL
