MODEL 1
REMARK VINA RESULT:   -10.090      0.000      0.000
REMARK INTER + INTRA:         -14.945
REMARK INTER:                 -13.073
REMARK INTRA:                  -1.872
REMARK CONF_INDEPENDENT:        2.983
REMARK UNBOUND:                -1.872
REMARK  10 active torsions:
REMARK  status: ('A' for Active; 'I' for Inactive)
REMARK    1  A    between atoms: C_2  and  C_3 
REMARK    2  A    between atoms: C_3  and  C_4 
REMARK       I    between atoms: C_4  and  N_6 
REMARK    3  A    between atoms: N_6  and  C_7 
REMARK    4  A    between atoms: C_10  and  C_11 
REMARK       I    between atoms: C_11  and  N_13 
REMARK    5  A    between atoms: N_13  and  N_14 
REMARK    6  A    between atoms: N_14  and  C_15 
REMARK    7  A    between atoms: C_15  and  N_17 
REMARK       I    between atoms: N_17  and  C_18 
REMARK    8  A    between atoms: C_18  and  C_20 
REMARK    9  A    between atoms: C_20  and  O_21 
REMARK   10  A    between atoms: O_21  and  C_22 
ROOT
ATOM      1  N   UNL d   1      27.138 -14.120  -2.630  0.00  0.00    -0.273 N 
ATOM      2  H   UNL d   1      28.026 -14.234  -2.144  0.00  0.00     0.189 HD
ENDROOT
BRANCH   1   3
ATOM      3  N   UNL d   1      26.034 -14.892  -2.072  0.00  0.00    -0.264 N 
ATOM      4  C   UNL d   1      26.166 -16.180  -1.574  0.00  0.00     0.270 C 
ATOM      5  O   UNL d   1      27.258 -16.763  -1.566  0.00  0.00    -0.266 OA
ATOM      6  H   UNL d   1      25.140 -14.404  -2.111  0.00  0.00     0.190 HD
BRANCH   4   7
ATOM      7  C   UNL d   1      24.914 -16.884  -1.055  0.00  0.00     0.033 A 
ATOM      8  C   UNL d   1      25.001 -18.194  -0.536  0.00  0.00     0.019 A 
ATOM      9  C   UNL d   1      23.848 -18.925  -0.145  0.00  0.00     0.030 A 
ATOM     10  C   UNL d   1      22.581 -18.344  -0.238  0.00  0.00     0.034 A 
ATOM     11  C   UNL d   1      22.498 -17.032  -0.712  0.00  0.00     0.030 A 
ATOM     12  C   UNL d   1      23.640 -16.308  -1.105  0.00  0.00     0.019 A 
BRANCH  10  13
ATOM     13  N   UNL d   1      21.409 -19.038   0.173  0.00  0.00    -0.327 N 
ATOM     14  C   UNL d   1      20.457 -19.479  -0.741  0.00  0.00     0.222 C 
ATOM     15  O   UNL d   1      20.595 -19.385  -1.960  0.00  0.00    -0.273 OA
ATOM     16  H   UNL d   1      21.344 -19.339   1.138  0.00  0.00     0.169 HD
BRANCH  14  17
ATOM     17  C   UNL d   1      19.216 -20.141  -0.147  0.00  0.00     0.103 C 
BRANCH  17  18
ATOM     18  C   UNL d   1      19.580 -20.820   1.184  0.00  0.00     0.005 C 
ATOM     19  C   UNL d   1      18.702 -20.378   2.340  0.00  0.00     0.005 C 
ENDBRANCH  17  18
ENDBRANCH  14  17
ENDBRANCH  10  13
ENDBRANCH   4   7
ENDBRANCH   1   3
BRANCH   1  20
ATOM     20  C   UNL d   1      26.869 -13.314  -3.755  0.00  0.00     0.193 C 
ATOM     21  S   UNL d   1      25.541 -12.267  -3.707  0.00  0.00    -0.039 SA
BRANCH  20  22
ATOM     22  N   UNL d   1      27.759 -13.438  -4.847  0.00  0.00    -0.301 N 
ATOM     23  C   UNL d   1      27.785 -14.519  -5.771  0.00  0.00     0.248 C 
ATOM     24  O   UNL d   1      27.051 -15.503  -5.689  0.00  0.00    -0.271 OA
ATOM     25  H   UNL d   1      28.444 -12.705  -4.973  0.00  0.00     0.171 HD
BRANCH  23  26
ATOM     26  C   UNL d   1      28.845 -14.493  -6.891  0.00  0.00     0.278 C 
BRANCH  26  27
ATOM     27  O   UNL d   1      30.118 -14.938  -6.377  0.00  0.00    -0.342 OA
BRANCH  27  28
ATOM     28  C   UNL d   1      30.364 -16.252  -6.070  0.00  0.00     0.075 A 
ATOM     29  C   UNL d   1      30.771 -17.052  -7.157  0.00  0.00     0.039 A 
ATOM     30  C   UNL d   1      30.958 -18.437  -7.020  0.00  0.00     0.022 A 
ATOM     31  C   UNL d   1      30.781 -19.029  -5.778  0.00  0.00     0.011 A 
ATOM     32 BR   UNL d   1      31.172 -20.861  -5.521  0.00  0.00    -0.051 Br
ATOM     33  C   UNL d   1      30.356 -18.262  -4.699  0.00  0.00     0.028 A 
ATOM     34  C   UNL d   1      30.139 -16.874  -4.835  0.00  0.00    -0.027 A 
ATOM     35  C   UNL d   1      29.666 -16.141  -3.624  0.00  0.00     0.051 C 
ENDBRANCH  27  28
ENDBRANCH  26  27
ENDBRANCH  23  26
ENDBRANCH  20  22
ENDBRANCH   1  20
TORSDOF 10
ENDMDL
MODEL 2
REMARK VINA RESULT:    -9.439      5.768      7.739
REMARK INTER + INTRA:         -14.966
REMARK INTER:                 -12.422
REMARK INTRA:                  -2.545
REMARK CONF_INDEPENDENT:        2.983
REMARK UNBOUND:                -2.545
REMARK  10 active torsions:
REMARK  status: ('A' for Active; 'I' for Inactive)
REMARK    1  A    between atoms: C_2  and  C_3 
REMARK    2  A    between atoms: C_3  and  C_4 
REMARK       I    between atoms: C_4  and  N_6 
REMARK    3  A    between atoms: N_6  and  C_7 
REMARK    4  A    between atoms: C_10  and  C_11 
REMARK       I    between atoms: C_11  and  N_13 
REMARK    5  A    between atoms: N_13  and  N_14 
REMARK    6  A    between atoms: N_14  and  C_15 
REMARK    7  A    between atoms: C_15  and  N_17 
REMARK       I    between atoms: N_17  and  C_18 
REMARK    8  A    between atoms: C_18  and  C_20 
REMARK    9  A    between atoms: C_20  and  O_21 
REMARK   10  A    between atoms: O_21  and  C_22 
ROOT
ATOM      1  N   UNL d   1      27.689 -14.477  -0.901  0.00  0.00    -0.273 N 
ATOM      2  H   UNL d   1      27.607 -14.014  -1.805  0.00  0.00     0.189 HD
ENDROOT
BRANCH   1   3
ATOM      3  N   UNL d   1      26.555 -15.320  -0.541  0.00  0.00    -0.264 N 
ATOM      4  C   UNL d   1      25.778 -16.004  -1.466  0.00  0.00     0.270 C 
ATOM      5  O   UNL d   1      26.010 -15.942  -2.680  0.00  0.00    -0.266 OA
ATOM      6  H   UNL d   1      26.366 -15.337   0.460  0.00  0.00     0.190 HD
BRANCH   4   7
ATOM      7  C   UNL d   1      24.595 -16.820  -0.949  0.00  0.00     0.033 A 
ATOM      8  C   UNL d   1      24.785 -18.155  -0.529  0.00  0.00     0.019 A 
ATOM      9  C   UNL d   1      23.698 -18.984  -0.145  0.00  0.00     0.030 A 
ATOM     10  C   UNL d   1      22.395 -18.480  -0.145  0.00  0.00     0.034 A 
ATOM     11  C   UNL d   1      22.211 -17.146  -0.520  0.00  0.00     0.030 A 
ATOM     12  C   UNL d   1      23.287 -16.325  -0.906  0.00  0.00     0.019 A 
BRANCH  10  13
ATOM     13  N   UNL d   1      21.287 -19.274   0.263  0.00  0.00    -0.327 N 
ATOM     14  C   UNL d   1      20.317 -19.700  -0.639  0.00  0.00     0.222 C 
ATOM     15  O   UNL d   1      20.386 -19.503  -1.852  0.00  0.00    -0.273 OA
ATOM     16  H   UNL d   1      21.289 -19.653   1.202  0.00  0.00     0.169 HD
BRANCH  14  17
ATOM     17  C   UNL d   1      19.147 -20.481  -0.044  0.00  0.00     0.103 C 
BRANCH  17  18
ATOM     18  C   UNL d   1      18.747 -19.862   1.306  0.00  0.00     0.005 C 
ATOM     19  C   UNL d   1      19.507 -20.450   2.480  0.00  0.00     0.005 C 
ENDBRANCH  17  18
ENDBRANCH  14  17
ENDBRANCH  10  13
ENDBRANCH   4   7
ENDBRANCH   1   3
BRANCH   1  20
ATOM     20  C   UNL d   1      28.756 -14.393   0.016  0.00  0.00     0.193 C 
ATOM     21  S   UNL d   1      30.228 -15.130  -0.378  0.00  0.00    -0.039 SA
BRANCH  20  22
ATOM     22  N   UNL d   1      28.509 -13.672   1.207  0.00  0.00    -0.301 N 
ATOM     23  C   UNL d   1      27.251 -13.144   1.606  0.00  0.00     0.248 C 
ATOM     24  O   UNL d   1      26.231 -13.220   0.921  0.00  0.00    -0.271 OA
ATOM     25  H   UNL d   1      29.297 -13.504   1.819  0.00  0.00     0.171 HD
BRANCH  23  26
ATOM     26  C   UNL d   1      27.178 -12.362   2.934  0.00  0.00     0.278 C 
BRANCH  26  27
ATOM     27  O   UNL d   1      28.458 -12.394   3.598  0.00  0.00    -0.342 OA
BRANCH  27  28
ATOM     28  C   UNL d   1      28.593 -12.769   4.911  0.00  0.00     0.075 A 
ATOM     29  C   UNL d   1      28.009 -11.891   5.845  0.00  0.00     0.039 A 
ATOM     30  C   UNL d   1      28.155 -12.086   7.228  0.00  0.00     0.022 A 
ATOM     31  C   UNL d   1      28.853 -13.192   7.690  0.00  0.00     0.011 A 
ATOM     32 BR   UNL d   1      28.940 -13.570   9.540  0.00  0.00    -0.051 Br
ATOM     33  C   UNL d   1      29.458 -14.057   6.785  0.00  0.00     0.028 A 
ATOM     34  C   UNL d   1      29.339 -13.852   5.394  0.00  0.00    -0.027 A 
ATOM     35  C   UNL d   1      30.038 -14.825   4.504  0.00  0.00     0.051 C 
ENDBRANCH  27  28
ENDBRANCH  26  27
ENDBRANCH  23  26
ENDBRANCH  20  22
ENDBRANCH   1  20
TORSDOF 10
ENDMDL
MODEL 3
REMARK VINA RESULT:    -9.287      3.180      4.456
REMARK INTER + INTRA:         -15.215
REMARK INTER:                 -12.270
REMARK INTRA:                  -2.945
REMARK CONF_INDEPENDENT:        2.983
REMARK UNBOUND:                -2.945
REMARK  10 active torsions:
REMARK  status: ('A' for Active; 'I' for Inactive)
REMARK    1  A    between atoms: C_2  and  C_3 
REMARK    2  A    between atoms: C_3  and  C_4 
REMARK       I    between atoms: C_4  and  N_6 
REMARK    3  A    between atoms: N_6  and  C_7 
REMARK    4  A    between atoms: C_10  and  C_11 
REMARK       I    between atoms: C_11  and  N_13 
REMARK    5  A    between atoms: N_13  and  N_14 
REMARK    6  A    between atoms: N_14  and  C_15 
REMARK    7  A    between atoms: C_15  and  N_17 
REMARK       I    between atoms: N_17  and  C_18 
REMARK    8  A    between atoms: C_18  and  C_20 
REMARK    9  A    between atoms: C_20  and  O_21 
REMARK   10  A    between atoms: O_21  and  C_22 
ROOT
ATOM      1  N   UNL d   1      29.575 -16.918  -1.210  0.00  0.00    -0.273 N 
ATOM      2  H   UNL d   1      30.111 -16.500  -0.450  0.00  0.00     0.189 HD
ENDROOT
BRANCH   1   3
ATOM      3  N   UNL d   1      28.186 -17.220  -0.883  0.00  0.00    -0.264 N 
ATOM      4  C   UNL d   1      27.104 -16.506  -1.376  0.00  0.00     0.270 C 
ATOM      5  O   UNL d   1      27.255 -15.550  -2.147  0.00  0.00    -0.266 OA
ATOM      6  H   UNL d   1      28.086 -17.994  -0.227  0.00  0.00     0.190 HD
BRANCH   4   7
ATOM      7  C   UNL d   1      25.705 -16.911  -0.917  0.00  0.00     0.033 A 
ATOM      8  C   UNL d   1      25.519 -18.096  -0.171  0.00  0.00     0.019 A 
ATOM      9  C   UNL d   1      24.226 -18.566   0.181  0.00  0.00     0.030 A 
ATOM     10  C   UNL d   1      23.090 -17.840  -0.182  0.00  0.00     0.034 A 
ATOM     11  C   UNL d   1      23.275 -16.646  -0.884  0.00  0.00     0.030 A 
ATOM     12  C   UNL d   1      24.556 -16.181  -1.239  0.00  0.00     0.019 A 
BRANCH  10  13
ATOM     13  N   UNL d   1      21.782 -18.268   0.181  0.00  0.00    -0.327 N 
ATOM     14  C   UNL d   1      20.961 -18.958  -0.706  0.00  0.00     0.222 C 
ATOM     15  O   UNL d   1      21.328 -19.324  -1.822  0.00  0.00    -0.273 OA
ATOM     16  H   UNL d   1      21.506 -18.191   1.152  0.00  0.00     0.169 HD
BRANCH  14  17
ATOM     17  C   UNL d   1      19.558 -19.285  -0.203  0.00  0.00     0.103 C 
BRANCH  17  18
ATOM     18  C   UNL d   1      19.645 -20.329   0.925  0.00  0.00     0.005 C 
ATOM     19  C   UNL d   1      18.291 -20.873   1.340  0.00  0.00     0.005 C 
ENDBRANCH  17  18
ENDBRANCH  14  17
ENDBRANCH  10  13
ENDBRANCH   4   7
ENDBRANCH   1   3
BRANCH   1  20
ATOM     20  C   UNL d   1      30.021 -17.224  -2.511  0.00  0.00     0.193 C 
ATOM     21  S   UNL d   1      31.227 -18.396  -2.703  0.00  0.00    -0.039 SA
BRANCH  20  22
ATOM     22  N   UNL d   1      29.400 -16.525  -3.572  0.00  0.00    -0.301 N 
ATOM     23  C   UNL d   1      29.925 -16.385  -4.886  0.00  0.00     0.248 C 
ATOM     24  O   UNL d   1      31.020 -16.827  -5.233  0.00  0.00    -0.271 OA
ATOM     25  H   UNL d   1      28.516 -16.074  -3.376  0.00  0.00     0.171 HD
BRANCH  23  26
ATOM     26  C   UNL d   1      29.114 -15.564  -5.909  0.00  0.00     0.278 C 
BRANCH  26  27
ATOM     27  O   UNL d   1      27.789 -15.309  -5.400  0.00  0.00    -0.342 OA
BRANCH  27  28
ATOM     28  C   UNL d   1      27.363 -14.048  -5.066  0.00  0.00     0.075 A 
ATOM     29  C   UNL d   1      28.276 -13.014  -5.355  0.00  0.00     0.039 A 
ATOM     30  C   UNL d   1      28.026 -11.686  -4.975  0.00  0.00     0.022 A 
ATOM     31  C   UNL d   1      26.834 -11.371  -4.338  0.00  0.00     0.011 A 
ATOM     32 BR   UNL d   1      26.396  -9.574  -3.950  0.00  0.00    -0.051 Br
ATOM     33  C   UNL d   1      25.932 -12.381  -4.021  0.00  0.00     0.028 A 
ATOM     34  C   UNL d   1      26.188 -13.722  -4.375  0.00  0.00    -0.027 A 
ATOM     35  C   UNL d   1      25.167 -14.735  -3.976  0.00  0.00     0.051 C 
ENDBRANCH  27  28
ENDBRANCH  26  27
ENDBRANCH  23  26
ENDBRANCH  20  22
ENDBRANCH   1  20
TORSDOF 10
ENDMDL
MODEL 4
REMARK VINA RESULT:    -9.213      2.070      2.791
REMARK INTER + INTRA:         -14.555
REMARK INTER:                 -12.196
REMARK INTRA:                  -2.359
REMARK CONF_INDEPENDENT:        2.983
REMARK UNBOUND:                -2.359
REMARK  10 active torsions:
REMARK  status: ('A' for Active; 'I' for Inactive)
REMARK    1  A    between atoms: C_2  and  C_3 
REMARK    2  A    between atoms: C_3  and  C_4 
REMARK       I    between atoms: C_4  and  N_6 
REMARK    3  A    between atoms: N_6  and  C_7 
REMARK    4  A    between atoms: C_10  and  C_11 
REMARK       I    between atoms: C_11  and  N_13 
REMARK    5  A    between atoms: N_13  and  N_14 
REMARK    6  A    between atoms: N_14  and  C_15 
REMARK    7  A    between atoms: C_15  and  N_17 
REMARK       I    between atoms: N_17  and  C_18 
REMARK    8  A    between atoms: C_18  and  C_20 
REMARK    9  A    between atoms: C_20  and  O_21 
REMARK   10  A    between atoms: O_21  and  C_22 
ROOT
ATOM      1  N   UNL d   1      28.025 -15.894  -2.454  0.00  0.00    -0.273 N 
ATOM      2  H   UNL d   1      27.828 -14.988  -2.877  0.00  0.00     0.189 HD
ENDROOT
BRANCH   1   3
ATOM      3  N   UNL d   1      26.860 -16.577  -1.903  0.00  0.00    -0.264 N 
ATOM      4  C   UNL d   1      25.615 -15.984  -1.756  0.00  0.00     0.270 C 
ATOM      5  O   UNL d   1      25.410 -14.812  -2.098  0.00  0.00    -0.266 OA
ATOM      6  H   UNL d   1      27.056 -17.532  -1.605  0.00  0.00     0.190 HD
BRANCH   4   7
ATOM      7  C   UNL d   1      24.494 -16.808  -1.127  0.00  0.00     0.033 A 
ATOM      8  C   UNL d   1      24.751 -18.118  -0.665  0.00  0.00     0.019 A 
ATOM      9  C   UNL d   1      23.716 -18.958  -0.175  0.00  0.00     0.030 A 
ATOM     10  C   UNL d   1      22.402 -18.490  -0.109  0.00  0.00     0.034 A 
ATOM     11  C   UNL d   1      22.154 -17.180  -0.526  0.00  0.00     0.030 A 
ATOM     12  C   UNL d   1      23.177 -16.348  -1.017  0.00  0.00     0.019 A 
BRANCH  10  13
ATOM     13  N   UNL d   1      21.348 -19.296   0.405  0.00  0.00    -0.327 N 
ATOM     14  C   UNL d   1      20.353 -19.817  -0.416  0.00  0.00     0.222 C 
ATOM     15  O   UNL d   1      20.357 -19.699  -1.641  0.00  0.00    -0.273 OA
ATOM     16  H   UNL d   1      21.410 -19.610   1.366  0.00  0.00     0.169 HD
BRANCH  14  17
ATOM     17  C   UNL d   1      19.245 -20.599   0.286  0.00  0.00     0.103 C 
BRANCH  17  18
ATOM     18  C   UNL d   1      18.853 -19.879   1.588  0.00  0.00     0.005 C 
ATOM     19  C   UNL d   1      19.538 -20.450   2.815  0.00  0.00     0.005 C 
ENDBRANCH  17  18
ENDBRANCH  14  17
ENDBRANCH  10  13
ENDBRANCH   4   7
ENDBRANCH   1   3
BRANCH   1  20
ATOM     20  C   UNL d   1      29.272 -16.541  -2.349  0.00  0.00     0.193 C 
ATOM     21  S   UNL d   1      29.781 -17.088  -0.830  0.00  0.00    -0.039 SA
BRANCH  20  22
ATOM     22  N   UNL d   1      30.004 -16.698  -3.549  0.00  0.00    -0.301 N 
ATOM     23  C   UNL d   1      29.541 -16.355  -4.849  0.00  0.00     0.248 C 
ATOM     24  O   UNL d   1      28.413 -15.919  -5.077  0.00  0.00    -0.271 OA
ATOM     25  H   UNL d   1      30.929 -17.102  -3.479  0.00  0.00     0.171 HD
BRANCH  23  26
ATOM     26  C   UNL d   1      30.475 -16.619  -6.047  0.00  0.00     0.278 C 
BRANCH  26  27
ATOM     27  O   UNL d   1      31.558 -17.484  -5.648  0.00  0.00    -0.342 OA
BRANCH  27  28
ATOM     28  C   UNL d   1      31.366 -18.811  -5.357  0.00  0.00     0.075 A 
ATOM     29  C   UNL d   1      31.407 -19.132  -3.985  0.00  0.00     0.039 A 
ATOM     30  C   UNL d   1      31.332 -20.462  -3.540  0.00  0.00     0.022 A 
ATOM     31  C   UNL d   1      31.170 -21.483  -4.465  0.00  0.00     0.011 A 
ATOM     32 BR   UNL d   1      30.911 -23.266  -3.894  0.00  0.00    -0.051 Br
ATOM     33  C   UNL d   1      31.152 -21.189  -5.824  0.00  0.00     0.028 A 
ATOM     34  C   UNL d   1      31.255 -19.858  -6.281  0.00  0.00    -0.027 A 
ATOM     35  C   UNL d   1      31.243 -19.647  -7.759  0.00  0.00     0.051 C 
ENDBRANCH  27  28
ENDBRANCH  26  27
ENDBRANCH  23  26
ENDBRANCH  20  22
ENDBRANCH   1  20
TORSDOF 10
ENDMDL
MODEL 5
REMARK VINA RESULT:    -9.132      2.723      3.684
REMARK INTER + INTRA:         -14.477
REMARK INTER:                 -12.115
REMARK INTRA:                  -2.363
REMARK CONF_INDEPENDENT:        2.983
REMARK UNBOUND:                -2.363
REMARK  10 active torsions:
REMARK  status: ('A' for Active; 'I' for Inactive)
REMARK    1  A    between atoms: C_2  and  C_3 
REMARK    2  A    between atoms: C_3  and  C_4 
REMARK       I    between atoms: C_4  and  N_6 
REMARK    3  A    between atoms: N_6  and  C_7 
REMARK    4  A    between atoms: C_10  and  C_11 
REMARK       I    between atoms: C_11  and  N_13 
REMARK    5  A    between atoms: N_13  and  N_14 
REMARK    6  A    between atoms: N_14  and  C_15 
REMARK    7  A    between atoms: C_15  and  N_17 
REMARK       I    between atoms: N_17  and  C_18 
REMARK    8  A    between atoms: C_18  and  C_20 
REMARK    9  A    between atoms: C_20  and  O_21 
REMARK   10  A    between atoms: O_21  and  C_22 
ROOT
ATOM      1  N   UNL d   1      30.045 -16.095   0.407  0.00  0.00    -0.273 N 
ATOM      2  H   UNL d   1      30.463 -16.036   1.335  0.00  0.00     0.189 HD
ENDROOT
BRANCH   1   3
ATOM      3  N   UNL d   1      28.650 -16.517   0.391  0.00  0.00    -0.264 N 
ATOM      4  C   UNL d   1      27.816 -16.383  -0.710  0.00  0.00     0.270 C 
ATOM      5  O   UNL d   1      28.218 -15.893  -1.772  0.00  0.00    -0.266 OA
ATOM      6  H   UNL d   1      28.332 -16.895   1.283  0.00  0.00     0.190 HD
BRANCH   4   7
ATOM      7  C   UNL d   1      26.363 -16.834  -0.571  0.00  0.00     0.033 A 
ATOM      8  C   UNL d   1      25.338 -16.141  -1.252  0.00  0.00     0.019 A 
ATOM      9  C   UNL d   1      23.966 -16.456  -1.066  0.00  0.00     0.030 A 
ATOM     10  C   UNL d   1      23.593 -17.497  -0.213  0.00  0.00     0.034 A 
ATOM     11  C   UNL d   1      24.609 -18.211   0.429  0.00  0.00     0.030 A 
ATOM     12  C   UNL d   1      25.969 -17.896   0.250  0.00  0.00     0.019 A 
BRANCH  10  13
ATOM     13  N   UNL d   1      22.229 -17.858  -0.028  0.00  0.00    -0.327 N 
ATOM     14  C   UNL d   1      21.577 -18.734  -0.890  0.00  0.00     0.222 C 
ATOM     15  O   UNL d   1      22.143 -19.323  -1.811  0.00  0.00    -0.273 OA
ATOM     16  H   UNL d   1      21.772 -17.581   0.833  0.00  0.00     0.169 HD
BRANCH  14  17
ATOM     17  C   UNL d   1      20.095 -18.969  -0.611  0.00  0.00     0.103 C 
BRANCH  17  18
ATOM     18  C   UNL d   1      19.923 -20.261   0.207  0.00  0.00     0.005 C 
ATOM     19  C   UNL d   1      18.471 -20.611   0.472  0.00  0.00     0.005 C 
ENDBRANCH  17  18
ENDBRANCH  14  17
ENDBRANCH  10  13
ENDBRANCH   4   7
ENDBRANCH   1   3
BRANCH   1  20
ATOM     20  C   UNL d   1      30.658 -15.817  -0.831  0.00  0.00     0.193 C 
ATOM     21  S   UNL d   1      31.316 -14.279  -1.087  0.00  0.00    -0.039 SA
BRANCH  20  22
ATOM     22  N   UNL d   1      30.686 -16.872  -1.772  0.00  0.00    -0.301 N 
ATOM     23  C   UNL d   1      31.568 -17.987  -1.735  0.00  0.00     0.248 C 
ATOM     24  O   UNL d   1      32.449 -18.131  -0.888  0.00  0.00    -0.271 OA
ATOM     25  H   UNL d   1      30.035 -16.823  -2.545  0.00  0.00     0.171 HD
BRANCH  23  26
ATOM     26  C   UNL d   1      31.467 -19.033  -2.864  0.00  0.00     0.278 C 
BRANCH  26  27
ATOM     27  O   UNL d   1      30.412 -18.672  -3.779  0.00  0.00    -0.342 OA
BRANCH  27  28
ATOM     28  C   UNL d   1      30.548 -18.795  -5.139  0.00  0.00     0.075 A 
ATOM     29  C   UNL d   1      30.602 -20.120  -5.616  0.00  0.00     0.039 A 
ATOM     30  C   UNL d   1      30.845 -20.404  -6.969  0.00  0.00     0.022 A 
ATOM     31  C   UNL d   1      30.992 -19.358  -7.870  0.00  0.00     0.011 A 
ATOM     32 BR   UNL d   1      31.166 -19.701  -9.721  0.00  0.00    -0.051 Br
ATOM     33  C   UNL d   1      30.967 -18.045  -7.415  0.00  0.00     0.028 A 
ATOM     34  C   UNL d   1      30.751 -17.751  -6.052  0.00  0.00    -0.027 A 
ATOM     35  C   UNL d   1      30.758 -16.312  -5.659  0.00  0.00     0.051 C 
ENDBRANCH  27  28
ENDBRANCH  26  27
ENDBRANCH  23  26
ENDBRANCH  20  22
ENDBRANCH   1  20
TORSDOF 10
ENDMDL
MODEL 6
REMARK VINA RESULT:    -9.110      1.984      2.760
REMARK INTER + INTRA:         -14.898
REMARK INTER:                 -12.093
REMARK INTRA:                  -2.805
REMARK CONF_INDEPENDENT:        2.983
REMARK UNBOUND:                -2.805
REMARK  10 active torsions:
REMARK  status: ('A' for Active; 'I' for Inactive)
REMARK    1  A    between atoms: C_2  and  C_3 
REMARK    2  A    between atoms: C_3  and  C_4 
REMARK       I    between atoms: C_4  and  N_6 
REMARK    3  A    between atoms: N_6  and  C_7 
REMARK    4  A    between atoms: C_10  and  C_11 
REMARK       I    between atoms: C_11  and  N_13 
REMARK    5  A    between atoms: N_13  and  N_14 
REMARK    6  A    between atoms: N_14  and  C_15 
REMARK    7  A    between atoms: C_15  and  N_17 
REMARK       I    between atoms: N_17  and  C_18 
REMARK    8  A    between atoms: C_18  and  C_20 
REMARK    9  A    between atoms: C_20  and  O_21 
REMARK   10  A    between atoms: O_21  and  C_22 
ROOT
ATOM      1  N   UNL d   1      27.326 -13.515  -0.552  0.00  0.00    -0.273 N 
ATOM      2  H   UNL d   1      27.828 -13.305   0.310  0.00  0.00     0.189 HD
ENDROOT
BRANCH   1   3
ATOM      3  N   UNL d   1      26.306 -14.550  -0.429  0.00  0.00    -0.264 N 
ATOM      4  C   UNL d   1      26.374 -15.780  -1.068  0.00  0.00     0.270 C 
ATOM      5  O   UNL d   1      27.329 -16.082  -1.793  0.00  0.00    -0.266 OA
ATOM      6  H   UNL d   1      25.517 -14.272   0.152  0.00  0.00     0.190 HD
BRANCH   4   7
ATOM      7  C   UNL d   1      25.213 -16.754  -0.878  0.00  0.00     0.033 A 
ATOM      8  C   UNL d   1      23.889 -16.339  -1.141  0.00  0.00     0.019 A 
ATOM      9  C   UNL d   1      22.773 -17.176  -0.874  0.00  0.00     0.030 A 
ATOM     10  C   UNL d   1      22.964 -18.462  -0.365  0.00  0.00     0.034 A 
ATOM     11  C   UNL d   1      24.276 -18.889  -0.145  0.00  0.00     0.030 A 
ATOM     12  C   UNL d   1      25.383 -18.059  -0.404  0.00  0.00     0.019 A 
BRANCH  10  13
ATOM     13  N   UNL d   1      21.869 -19.336  -0.116  0.00  0.00    -0.327 N 
ATOM     14  C   UNL d   1      20.582 -19.048  -0.561  0.00  0.00     0.222 C 
ATOM     15  O   UNL d   1      20.312 -18.079  -1.269  0.00  0.00    -0.273 OA
ATOM     16  H   UNL d   1      22.065 -20.252   0.269  0.00  0.00     0.169 HD
BRANCH  14  17
ATOM     17  C   UNL d   1      19.495 -20.040  -0.154  0.00  0.00     0.103 C 
BRANCH  17  18
ATOM     18  C   UNL d   1      18.915 -19.638   1.213  0.00  0.00     0.005 C 
ATOM     19  C   UNL d   1      18.518 -20.827   2.066  0.00  0.00     0.005 C 
ENDBRANCH  17  18
ENDBRANCH  14  17
ENDBRANCH  10  13
ENDBRANCH   4   7
ENDBRANCH   1   3
BRANCH   1  20
ATOM     20  C   UNL d   1      27.506 -12.923  -1.818  0.00  0.00     0.193 C 
ATOM     21  S   UNL d   1      28.058 -11.325  -1.900  0.00  0.00    -0.039 SA
BRANCH  20  22
ATOM     22  N   UNL d   1      27.220 -13.735  -2.940  0.00  0.00    -0.301 N 
ATOM     23  C   UNL d   1      26.081 -13.608  -3.782  0.00  0.00     0.248 C 
ATOM     24  O   UNL d   1      25.182 -12.790  -3.592  0.00  0.00    -0.271 OA
ATOM     25  H   UNL d   1      27.872 -14.479  -3.154  0.00  0.00     0.171 HD
BRANCH  23  26
ATOM     26  C   UNL d   1      25.926 -14.603  -4.951  0.00  0.00     0.278 C 
BRANCH  26  27
ATOM     27  O   UNL d   1      27.035 -15.525  -4.966  0.00  0.00    -0.342 OA
BRANCH  27  28
ATOM     28  C   UNL d   1      28.249 -15.200  -5.515  0.00  0.00     0.075 A 
ATOM     29  C   UNL d   1      28.198 -14.261  -6.564  0.00  0.00     0.039 A 
ATOM     30  C   UNL d   1      29.345 -13.910  -7.293  0.00  0.00     0.022 A 
ATOM     31  C   UNL d   1      30.569 -14.466  -6.948  0.00  0.00     0.011 A 
ATOM     32 BR   UNL d   1      32.157 -13.902  -7.805  0.00  0.00    -0.051 Br
ATOM     33  C   UNL d   1      30.637 -15.413  -5.933  0.00  0.00     0.028 A 
ATOM     34  C   UNL d   1      29.483 -15.792  -5.214  0.00  0.00    -0.027 A 
ATOM     35  C   UNL d   1      29.656 -16.829  -4.154  0.00  0.00     0.051 C 
ENDBRANCH  27  28
ENDBRANCH  26  27
ENDBRANCH  23  26
ENDBRANCH  20  22
ENDBRANCH   1  20
TORSDOF 10
ENDMDL
MODEL 7
REMARK VINA RESULT:    -8.952      3.762      5.651
REMARK INTER + INTRA:         -14.897
REMARK INTER:                 -11.935
REMARK INTRA:                  -2.962
REMARK CONF_INDEPENDENT:        2.983
REMARK UNBOUND:                -2.962
REMARK  10 active torsions:
REMARK  status: ('A' for Active; 'I' for Inactive)
REMARK    1  A    between atoms: C_2  and  C_3 
REMARK    2  A    between atoms: C_3  and  C_4 
REMARK       I    between atoms: C_4  and  N_6 
REMARK    3  A    between atoms: N_6  and  C_7 
REMARK    4  A    between atoms: C_10  and  C_11 
REMARK       I    between atoms: C_11  and  N_13 
REMARK    5  A    between atoms: N_13  and  N_14 
REMARK    6  A    between atoms: N_14  and  C_15 
REMARK    7  A    between atoms: C_15  and  N_17 
REMARK       I    between atoms: N_17  and  C_18 
REMARK    8  A    between atoms: C_18  and  C_20 
REMARK    9  A    between atoms: C_20  and  O_21 
REMARK   10  A    between atoms: O_21  and  C_22 
ROOT
ATOM      1  N   UNL d   1      28.127 -15.570  -2.789  0.00  0.00    -0.273 N 
ATOM      2  H   UNL d   1      28.842 -15.610  -2.064  0.00  0.00     0.189 HD
ENDROOT
BRANCH   1   3
ATOM      3  N   UNL d   1      26.833 -16.117  -2.400  0.00  0.00    -0.264 N 
ATOM      4  C   UNL d   1      26.560 -16.635  -1.142  0.00  0.00     0.270 C 
ATOM      5  O   UNL d   1      27.418 -16.659  -0.250  0.00  0.00    -0.266 OA
ATOM      6  H   UNL d   1      26.148 -16.111  -3.155  0.00  0.00     0.190 HD
BRANCH   4   7
ATOM      7  C   UNL d   1      25.169 -17.210  -0.886  0.00  0.00     0.033 A 
ATOM      8  C   UNL d   1      24.020 -16.442  -1.175  0.00  0.00     0.019 A 
ATOM      9  C   UNL d   1      22.713 -16.894  -0.852  0.00  0.00     0.030 A 
ATOM     10  C   UNL d   1      22.528 -18.144  -0.257  0.00  0.00     0.034 A 
ATOM     11  C   UNL d   1      23.661 -18.924  -0.010  0.00  0.00     0.030 A 
ATOM     12  C   UNL d   1      24.958 -18.474  -0.325  0.00  0.00     0.019 A 
BRANCH  10  13
ATOM     13  N   UNL d   1      21.230 -18.639   0.051  0.00  0.00    -0.327 N 
ATOM     14  C   UNL d   1      20.476 -19.352  -0.876  0.00  0.00     0.222 C 
ATOM     15  O   UNL d   1      20.899 -19.680  -1.984  0.00  0.00    -0.273 OA
ATOM     16  H   UNL d   1      20.915 -18.593   1.013  0.00  0.00     0.169 HD
BRANCH  14  17
ATOM     17  C   UNL d   1      19.072 -19.754  -0.430  0.00  0.00     0.103 C 
BRANCH  17  18
ATOM     18  C   UNL d   1      19.165 -20.653   0.815  0.00  0.00     0.005 C 
ATOM     19  C   UNL d   1      17.969 -21.572   0.979  0.00  0.00     0.005 C 
ENDBRANCH  17  18
ENDBRANCH  14  17
ENDBRANCH  10  13
ENDBRANCH   4   7
ENDBRANCH   1   3
BRANCH   1  20
ATOM     20  C   UNL d   1      28.252 -15.054  -4.094  0.00  0.00     0.193 C 
ATOM     21  S   UNL d   1      29.415 -15.723  -5.126  0.00  0.00    -0.039 SA
BRANCH  20  22
ATOM     22  N   UNL d   1      27.368 -14.009  -4.446  0.00  0.00    -0.301 N 
ATOM     23  C   UNL d   1      25.961 -14.137  -4.609  0.00  0.00     0.248 C 
ATOM     24  O   UNL d   1      25.358 -15.205  -4.504  0.00  0.00    -0.271 OA
ATOM     25  H   UNL d   1      27.771 -13.095  -4.611  0.00  0.00     0.171 HD
BRANCH  23  26
ATOM     26  C   UNL d   1      25.159 -12.886  -5.020  0.00  0.00     0.278 C 
BRANCH  26  27
ATOM     27  O   UNL d   1      26.043 -11.755  -5.158  0.00  0.00    -0.342 OA
BRANCH  27  28
ATOM     28  C   UNL d   1      25.976 -10.667  -4.325  0.00  0.00     0.075 A 
ATOM     29  C   UNL d   1      25.602  -9.460  -4.949  0.00  0.00     0.039 A 
ATOM     30  C   UNL d   1      25.592  -8.243  -4.249  0.00  0.00     0.022 A 
ATOM     31  C   UNL d   1      25.915  -8.230  -2.899  0.00  0.00     0.011 A 
ATOM     32 BR   UNL d   1      25.765  -6.639  -1.889  0.00  0.00    -0.051 Br
ATOM     33  C   UNL d   1      26.311  -9.406  -2.272  0.00  0.00     0.028 A 
ATOM     34  C   UNL d   1      26.351 -10.628  -2.975  0.00  0.00    -0.027 A 
ATOM     35  C   UNL d   1      26.805 -11.831  -2.218  0.00  0.00     0.051 C 
ENDBRANCH  27  28
ENDBRANCH  26  27
ENDBRANCH  23  26
ENDBRANCH  20  22
ENDBRANCH   1  20
TORSDOF 10
ENDMDL
MODEL 8
REMARK VINA RESULT:    -8.848      3.604      5.248
REMARK INTER + INTRA:         -14.720
REMARK INTER:                 -11.831
REMARK INTRA:                  -2.890
REMARK CONF_INDEPENDENT:        2.983
REMARK UNBOUND:                -2.890
REMARK  10 active torsions:
REMARK  status: ('A' for Active; 'I' for Inactive)
REMARK    1  A    between atoms: C_2  and  C_3 
REMARK    2  A    between atoms: C_3  and  C_4 
REMARK       I    between atoms: C_4  and  N_6 
REMARK    3  A    between atoms: N_6  and  C_7 
REMARK    4  A    between atoms: C_10  and  C_11 
REMARK       I    between atoms: C_11  and  N_13 
REMARK    5  A    between atoms: N_13  and  N_14 
REMARK    6  A    between atoms: N_14  and  C_15 
REMARK    7  A    between atoms: C_15  and  N_17 
REMARK       I    between atoms: N_17  and  C_18 
REMARK    8  A    between atoms: C_18  and  C_20 
REMARK    9  A    between atoms: C_20  and  O_21 
REMARK   10  A    between atoms: O_21  and  C_22 
ROOT
ATOM      1  N   UNL d   1      27.979 -15.679  -3.404  0.00  0.00    -0.273 N 
ATOM      2  H   UNL d   1      28.815 -16.068  -2.971  0.00  0.00     0.189 HD
ENDROOT
BRANCH   1   3
ATOM      3  N   UNL d   1      26.722 -16.106  -2.800  0.00  0.00    -0.264 N 
ATOM      4  C   UNL d   1      26.638 -16.783  -1.592  0.00  0.00     0.270 C 
ATOM      5  O   UNL d   1      27.647 -17.067  -0.935  0.00  0.00    -0.266 OA
ATOM      6  H   UNL d   1      25.906 -15.886  -3.369  0.00  0.00     0.190 HD
BRANCH   4   7
ATOM      7  C   UNL d   1      25.255 -17.204  -1.098  0.00  0.00     0.033 A 
ATOM      8  C   UNL d   1      25.072 -18.469  -0.497  0.00  0.00     0.019 A 
ATOM      9  C   UNL d   1      23.787 -18.944  -0.124  0.00  0.00     0.030 A 
ATOM     10  C   UNL d   1      22.658 -18.145  -0.318  0.00  0.00     0.034 A 
ATOM     11  C   UNL d   1      22.843 -16.876  -0.874  0.00  0.00     0.030 A 
ATOM     12  C   UNL d   1      24.116 -16.406  -1.249  0.00  0.00     0.019 A 
BRANCH  10  13
ATOM     13  N   UNL d   1      21.360 -18.578   0.073  0.00  0.00    -0.327 N 
ATOM     14  C   UNL d   1      20.529 -19.283  -0.793  0.00  0.00     0.222 C 
ATOM     15  O   UNL d   1      20.878 -19.658  -1.911  0.00  0.00    -0.273 OA
ATOM     16  H   UNL d   1      21.100 -18.494   1.048  0.00  0.00     0.169 HD
BRANCH  14  17
ATOM     17  C   UNL d   1      19.137 -19.616  -0.261  0.00  0.00     0.103 C 
BRANCH  17  18
ATOM     18  C   UNL d   1      19.259 -20.539   0.964  0.00  0.00     0.005 C 
ATOM     19  C   UNL d   1      18.208 -21.633   0.995  0.00  0.00     0.005 C 
ENDBRANCH  17  18
ENDBRANCH  14  17
ENDBRANCH  10  13
ENDBRANCH   4   7
ENDBRANCH   1   3
BRANCH   1  20
ATOM     20  C   UNL d   1      27.910 -14.792  -4.497  0.00  0.00     0.193 C 
ATOM     21  S   UNL d   1      28.670 -15.224  -5.946  0.00  0.00    -0.039 SA
BRANCH  20  22
ATOM     22  N   UNL d   1      27.183 -13.596  -4.294  0.00  0.00    -0.301 N 
ATOM     23  C   UNL d   1      25.777 -13.509  -4.096  0.00  0.00     0.248 C 
ATOM     24  O   UNL d   1      25.023 -14.481  -4.127  0.00  0.00    -0.271 OA
ATOM     25  H   UNL d   1      27.703 -12.729  -4.305  0.00  0.00     0.171 HD
BRANCH  23  26
ATOM     26  C   UNL d   1      25.154 -12.110  -3.912  0.00  0.00     0.278 C 
BRANCH  26  27
ATOM     27  O   UNL d   1      26.133 -11.090  -4.201  0.00  0.00    -0.342 OA
BRANCH  27  28
ATOM     28  C   UNL d   1      26.273 -10.542  -5.451  0.00  0.00     0.075 A 
ATOM     29  C   UNL d   1      27.309 -11.093  -6.231  0.00  0.00     0.039 A 
ATOM     30  C   UNL d   1      27.641 -10.565  -7.489  0.00  0.00     0.022 A 
ATOM     31  C   UNL d   1      26.906  -9.504  -7.999  0.00  0.00     0.011 A 
ATOM     32 BR   UNL d   1      27.224  -8.868  -9.750  0.00  0.00    -0.051 Br
ATOM     33  C   UNL d   1      25.897  -8.931  -7.234  0.00  0.00     0.028 A 
ATOM     34  C   UNL d   1      25.575  -9.437  -5.957  0.00  0.00    -0.027 A 
ATOM     35  C   UNL d   1      24.488  -8.743  -5.207  0.00  0.00     0.051 C 
ENDBRANCH  27  28
ENDBRANCH  26  27
ENDBRANCH  23  26
ENDBRANCH  20  22
ENDBRANCH   1  20
TORSDOF 10
ENDMDL
MODEL 9
REMARK VINA RESULT:    -8.756      2.977      4.361
REMARK INTER + INTRA:         -15.282
REMARK INTER:                 -11.739
REMARK INTRA:                  -3.543
REMARK CONF_INDEPENDENT:        2.983
REMARK UNBOUND:                -3.543
REMARK  10 active torsions:
REMARK  status: ('A' for Active; 'I' for Inactive)
REMARK    1  A    between atoms: C_2  and  C_3 
REMARK    2  A    between atoms: C_3  and  C_4 
REMARK       I    between atoms: C_4  and  N_6 
REMARK    3  A    between atoms: N_6  and  C_7 
REMARK    4  A    between atoms: C_10  and  C_11 
REMARK       I    between atoms: C_11  and  N_13 
REMARK    5  A    between atoms: N_13  and  N_14 
REMARK    6  A    between atoms: N_14  and  C_15 
REMARK    7  A    between atoms: C_15  and  N_17 
REMARK       I    between atoms: N_17  and  C_18 
REMARK    8  A    between atoms: C_18  and  C_20 
REMARK    9  A    between atoms: C_20  and  O_21 
REMARK   10  A    between atoms: O_21  and  C_22 
ROOT
ATOM      1  N   UNL d   1      29.431 -16.126  -2.664  0.00  0.00    -0.273 N 
ATOM      2  H   UNL d   1      30.058 -15.891  -1.895  0.00  0.00     0.189 HD
ENDROOT
BRANCH   1   3
ATOM      3  N   UNL d   1      28.050 -16.376  -2.271  0.00  0.00    -0.264 N 
ATOM      4  C   UNL d   1      27.655 -16.654  -0.970  0.00  0.00     0.270 C 
ATOM      5  O   UNL d   1      28.471 -16.701  -0.041  0.00  0.00    -0.266 OA
ATOM      6  H   UNL d   1      27.398 -16.358  -3.054  0.00  0.00     0.190 HD
BRANCH   4   7
ATOM      7  C   UNL d   1      26.176 -16.934  -0.710  0.00  0.00     0.033 A 
ATOM      8  C   UNL d   1      25.795 -17.889   0.257  0.00  0.00     0.019 A 
ATOM      9  C   UNL d   1      24.438 -18.260   0.453  0.00  0.00     0.030 A 
ATOM     10  C   UNL d   1      23.428 -17.655  -0.298  0.00  0.00     0.034 A 
ATOM     11  C   UNL d   1      23.801 -16.679  -1.226  0.00  0.00     0.030 A 
ATOM     12  C   UNL d   1      25.146 -16.315  -1.426  0.00  0.00     0.019 A 
BRANCH  10  13
ATOM     13  N   UNL d   1      22.057 -17.981  -0.105  0.00  0.00    -0.327 N 
ATOM     14  C   UNL d   1      21.356 -18.776  -1.007  0.00  0.00     0.222 C 
ATOM     15  O   UNL d   1      21.881 -19.323  -1.977  0.00  0.00    -0.273 OA
ATOM     16  H   UNL d   1      21.628 -17.745   0.781  0.00  0.00     0.169 HD
BRANCH  14  17
ATOM     17  C   UNL d   1      19.872 -18.979  -0.710  0.00  0.00     0.103 C 
BRANCH  17  18
ATOM     18  C   UNL d   1      19.693 -20.197   0.212  0.00  0.00     0.005 C 
ATOM     19  C   UNL d   1      19.749 -19.844   1.687  0.00  0.00     0.005 C 
ENDBRANCH  17  18
ENDBRANCH  14  17
ENDBRANCH  10  13
ENDBRANCH   4   7
ENDBRANCH   1   3
BRANCH   1  20
ATOM     20  C   UNL d   1      29.750 -16.230  -4.032  0.00  0.00     0.193 C 
ATOM     21  S   UNL d   1      30.517 -17.634  -4.586  0.00  0.00    -0.039 SA
BRANCH  20  22
ATOM     22  N   UNL d   1      29.382 -15.138  -4.851  0.00  0.00    -0.301 N 
ATOM     23  C   UNL d   1      28.065 -14.858  -5.311  0.00  0.00     0.248 C 
ATOM     24  O   UNL d   1      27.095 -15.579  -5.079  0.00  0.00    -0.271 OA
ATOM     25  H   UNL d   1      30.118 -14.510  -5.147  0.00  0.00     0.171 HD
BRANCH  23  26
ATOM     26  C   UNL d   1      27.858 -13.628  -6.218  0.00  0.00     0.278 C 
BRANCH  26  27
ATOM     27  O   UNL d   1      27.199 -12.576  -5.482  0.00  0.00    -0.342 OA
BRANCH  27  28
ATOM     28  C   UNL d   1      27.038 -12.625  -4.120  0.00  0.00     0.075 A 
ATOM     29  C   UNL d   1      28.156 -12.204  -3.373  0.00  0.00     0.039 A 
ATOM     30  C   UNL d   1      28.180 -12.296  -1.972  0.00  0.00     0.022 A 
ATOM     31  C   UNL d   1      27.064 -12.773  -1.301  0.00  0.00     0.011 A 
ATOM     32 BR   UNL d   1      27.002 -12.769   0.589  0.00  0.00    -0.051 Br
ATOM     33  C   UNL d   1      25.961 -13.218  -2.021  0.00  0.00     0.028 A 
ATOM     34  C   UNL d   1      25.939 -13.154  -3.431  0.00  0.00    -0.027 A 
ATOM     35  C   UNL d   1      24.717 -13.671  -4.113  0.00  0.00     0.051 C 
ENDBRANCH  27  28
ENDBRANCH  26  27
ENDBRANCH  23  26
ENDBRANCH  20  22
ENDBRANCH   1  20
TORSDOF 10
ENDMDL
