MODEL 1
REMARK VINA RESULT:   -33.150      0.000      0.000
REMARK INTER + INTRA:         -37.626
REMARK INTER:                 -35.835
REMARK INTRA:                  -1.791
REMARK CONF_INDEPENDENT:        2.685
REMARK UNBOUND:                -1.791
REMARK  9 active torsions:
REMARK  status: ('A' for Active; 'I' for Inactive)
REMARK    1  A    between atoms: C_2  and  C_3 
REMARK    2  A    between atoms: C_3  and  C_4 
REMARK    3  A    between atoms: C_4  and  C_5 
REMARK    4  A    between atoms: C_8  and  C_9 
REMARK    5  A    between atoms: C_9  and  N_11 
REMARK    6  A    between atoms: N_11  and  C_12 
REMARK    7  A    between atoms: C_15  and  N_16 
REMARK       I    between atoms: N_16  and  C_17 
REMARK    8  A    between atoms: C_17  and  C_19 
REMARK    9  A    between atoms: C_19  and  N_20 
ROOT
ATOM      1  C   UNL d   1      25.315 -17.474  -0.331  0.00  0.00     0.028 A 
ATOM      2  C   UNL d   1      25.769 -16.323  -0.990  0.00  0.00     0.031 A 
ATOM      3  C   UNL d   1      27.026 -15.745  -0.693  0.00  0.00     0.032 A 
ATOM      4  C   UNL d   1      27.804 -16.267   0.339  0.00  0.00     0.034 A 
ATOM      5  C   UNL d   1      27.364 -17.432   0.950  0.00  0.00     0.032 A 
ATOM      6  C   UNL d   1      26.164 -18.018   0.609  0.00  0.00     0.031 A 
ENDROOT
BRANCH   1   7
ATOM      7  N   UNL d   1      24.108 -18.049  -0.624  0.00  0.00    -0.378 N 
ATOM      8  H   UNL d   1      23.978 -19.023  -0.349  0.00  0.00     0.160 HD
BRANCH   7   9
ATOM      9  C   UNL d   1      22.871 -17.391  -1.116  0.00  0.00     0.157 C 
ATOM     10  C   UNL d   1      22.588 -16.008  -0.527  0.00  0.00     0.041 C 
BRANCH   9  11
ATOM     11  C   UNL d   1      21.676 -18.248  -0.841  0.00  0.00     0.195 A 
ATOM     12  O   UNL d   1      20.455 -17.842  -1.299  0.00  0.00    -0.194 OA
ATOM     13  N   UNL d   1      19.544 -18.826  -0.895  0.00  0.00    -0.111 NA
ATOM     14  C   UNL d   1      20.321 -19.707  -0.251  0.00  0.00     0.156 A 
ATOM     15  N   UNL d   1      21.641 -19.372  -0.167  0.00  0.00    -0.207 NA
BRANCH  14  16
ATOM     16  C   UNL d   1      19.864 -21.025   0.233  0.00  0.00     0.083 C 
BRANCH  16  17
ATOM     17  C   UNL d   1      18.500 -20.874   0.910  0.00  0.00     0.007 C 
BRANCH  17  18
ATOM     18  C   UNL d   1      18.565 -19.948   2.114  0.00  0.00    -0.004 C 
ATOM     19  C   UNL d   1      19.573 -20.465   3.124  0.00  0.00     0.005 C 
ENDBRANCH  17  18
ENDBRANCH  16  17
ENDBRANCH  14  16
ENDBRANCH   9  11
ENDBRANCH   7   9
ENDBRANCH   1   7
BRANCH   4  20
ATOM     20  N   UNL d   1      29.011 -15.641   0.756  0.00  0.00    -0.326 N 
ATOM     21  C   UNL d   1      28.993 -14.490   1.513  0.00  0.00     0.248 C 
ATOM     22  O   UNL d   1      27.969 -13.824   1.731  0.00  0.00    -0.271 OA
ATOM     23  H   UNL d   1      29.856 -15.921   0.266  0.00  0.00     0.169 HD
BRANCH  21  24
ATOM     24  C   UNL d   1      30.295 -13.961   2.106  0.00  0.00     0.337 C 
BRANCH  24  25
ATOM     25  N   UNL d   1      30.248 -13.879   3.675  0.00  0.00    -0.063 N 
ATOM     26  C   UNL d   1      28.970 -14.487   4.212  0.00  0.00     0.235 C 
ATOM     27  C   UNL d   1      29.132 -14.875   5.680  0.00  0.00     0.028 C 
ATOM     28  C   UNL d   1      28.764 -13.759   6.668  0.00  0.00     0.002 C 
ATOM     29  C   UNL d   1      29.230 -12.364   6.286  0.00  0.00     0.002 C 
ATOM     30  C   UNL d   1      30.617 -12.381   5.688  0.00  0.00     0.028 C 
ATOM     31  C   UNL d   1      30.516 -12.469   4.180  0.00  0.00     0.235 C 
ATOM     32  H   UNL d   1      31.056 -14.443   3.982  0.00  0.00     0.280 HD
ENDBRANCH  24  25
ENDBRANCH  21  24
ENDBRANCH   4  20
TORSDOF 9
ENDMDL
MODEL 2
REMARK VINA RESULT:   -32.859      4.841      6.983
REMARK INTER + INTRA:         -37.314
REMARK INTER:                 -35.544
REMARK INTRA:                  -1.770
REMARK CONF_INDEPENDENT:        2.685
REMARK UNBOUND:                -1.770
REMARK  9 active torsions:
REMARK  status: ('A' for Active; 'I' for Inactive)
REMARK    1  A    between atoms: C_2  and  C_3 
REMARK    2  A    between atoms: C_3  and  C_4 
REMARK    3  A    between atoms: C_4  and  C_5 
REMARK    4  A    between atoms: C_8  and  C_9 
REMARK    5  A    between atoms: C_9  and  N_11 
REMARK    6  A    between atoms: N_11  and  C_12 
REMARK    7  A    between atoms: C_15  and  N_16 
REMARK       I    between atoms: N_16  and  C_17 
REMARK    8  A    between atoms: C_17  and  C_19 
REMARK    9  A    between atoms: C_19  and  N_20 
ROOT
ATOM      1  C   UNL d   1      24.345 -15.823  -1.722  0.00  0.00     0.028 A 
ATOM      2  C   UNL d   1      25.671 -16.195  -1.455  0.00  0.00     0.031 A 
ATOM      3  C   UNL d   1      26.756 -15.645  -2.177  0.00  0.00     0.032 A 
ATOM      4  C   UNL d   1      26.514 -14.780  -3.243  0.00  0.00     0.034 A 
ATOM      5  C   UNL d   1      25.202 -14.385  -3.466  0.00  0.00     0.032 A 
ATOM      6  C   UNL d   1      24.160 -14.885  -2.714  0.00  0.00     0.031 A 
ENDROOT
BRANCH   1   7
ATOM      7  N   UNL d   1      23.292 -16.338  -1.018  0.00  0.00    -0.378 N 
ATOM      8  H   UNL d   1      22.366 -15.963  -1.225  0.00  0.00     0.160 HD
BRANCH   7   9
ATOM      9  C   UNL d   1      23.275 -17.520  -0.119  0.00  0.00     0.157 C 
ATOM     10  C   UNL d   1      24.400 -18.531  -0.349  0.00  0.00     0.041 C 
BRANCH   9  11
ATOM     11  C   UNL d   1      21.979 -18.257  -0.244  0.00  0.00     0.195 A 
ATOM     12  O   UNL d   1      20.963 -17.685  -0.955  0.00  0.00    -0.194 OA
ATOM     13  N   UNL d   1      19.894 -18.587  -0.896  0.00  0.00    -0.111 NA
ATOM     14  C   UNL d   1      20.391 -19.594  -0.166  0.00  0.00     0.156 A 
ATOM     15  N   UNL d   1      21.668 -19.416   0.285  0.00  0.00    -0.207 NA
BRANCH  14  16
ATOM     16  C   UNL d   1      19.708 -20.884   0.052  0.00  0.00     0.083 C 
BRANCH  16  17
ATOM     17  C   UNL d   1      18.390 -20.644   0.792  0.00  0.00     0.007 C 
BRANCH  17  18
ATOM     18  C   UNL d   1      18.604 -19.908   2.104  0.00  0.00    -0.004 C 
ATOM     19  C   UNL d   1      19.829 -20.449   2.821  0.00  0.00     0.005 C 
ENDBRANCH  17  18
ENDBRANCH  16  17
ENDBRANCH  14  16
ENDBRANCH   9  11
ENDBRANCH   7   9
ENDBRANCH   1   7
BRANCH   4  20
ATOM     20  N   UNL d   1      27.564 -14.306  -4.075  0.00  0.00    -0.326 N 
ATOM     21  C   UNL d   1      27.528 -14.486  -5.441  0.00  0.00     0.248 C 
ATOM     22  O   UNL d   1      26.703 -15.210  -6.020  0.00  0.00    -0.271 OA
ATOM     23  H   UNL d   1      28.437 -14.072  -3.611  0.00  0.00     0.169 HD
BRANCH  21  24
ATOM     24  C   UNL d   1      28.568 -13.794  -6.318  0.00  0.00     0.337 C 
BRANCH  24  25
ATOM     25  N   UNL d   1      29.653 -14.793  -6.860  0.00  0.00    -0.063 N 
ATOM     26  C   UNL d   1      29.918 -15.901  -5.863  0.00  0.00     0.235 C 
ATOM     27  C   UNL d   1      30.547 -17.109  -6.553  0.00  0.00     0.028 C 
ATOM     28  C   UNL d   1      32.080 -17.077  -6.602  0.00  0.00     0.002 C 
ATOM     29  C   UNL d   1      32.699 -15.725  -6.919  0.00  0.00     0.002 C 
ATOM     30  C   UNL d   1      31.919 -14.989  -7.982  0.00  0.00     0.028 C 
ATOM     31  C   UNL d   1      30.909 -14.071  -7.325  0.00  0.00     0.235 C 
ATOM     32  H   UNL d   1      29.228 -15.190  -7.713  0.00  0.00     0.280 HD
ENDBRANCH  24  25
ENDBRANCH  21  24
ENDBRANCH   4  20
TORSDOF 9
ENDMDL
MODEL 3
REMARK VINA RESULT:   -32.613      4.834      7.250
REMARK INTER + INTRA:         -37.018
REMARK INTER:                 -35.298
REMARK INTRA:                  -1.720
REMARK CONF_INDEPENDENT:        2.685
REMARK UNBOUND:                -1.720
REMARK  9 active torsions:
REMARK  status: ('A' for Active; 'I' for Inactive)
REMARK    1  A    between atoms: C_2  and  C_3 
REMARK    2  A    between atoms: C_3  and  C_4 
REMARK    3  A    between atoms: C_4  and  C_5 
REMARK    4  A    between atoms: C_8  and  C_9 
REMARK    5  A    between atoms: C_9  and  N_11 
REMARK    6  A    between atoms: N_11  and  C_12 
REMARK    7  A    between atoms: C_15  and  N_16 
REMARK       I    between atoms: N_16  and  C_17 
REMARK    8  A    between atoms: C_17  and  C_19 
REMARK    9  A    between atoms: C_19  and  N_20 
ROOT
ATOM      1  C   UNL d   1      24.464 -15.933  -1.818  0.00  0.00     0.028 A 
ATOM      2  C   UNL d   1      25.739 -16.464  -1.571  0.00  0.00     0.031 A 
ATOM      3  C   UNL d   1      26.896 -15.928  -2.183  0.00  0.00     0.032 A 
ATOM      4  C   UNL d   1      26.776 -14.908  -3.124  0.00  0.00     0.034 A 
ATOM      5  C   UNL d   1      25.516 -14.362  -3.324  0.00  0.00     0.032 A 
ATOM      6  C   UNL d   1      24.404 -14.856  -2.676  0.00  0.00     0.031 A 
ENDROOT
BRANCH   1   7
ATOM      7  N   UNL d   1      23.341 -16.435  -1.219  0.00  0.00    -0.378 N 
ATOM      8  H   UNL d   1      22.443 -16.192  -1.637  0.00  0.00     0.160 HD
BRANCH   7   9
ATOM      9  C   UNL d   1      23.250 -17.457  -0.145  0.00  0.00     0.157 C 
ATOM     10  C   UNL d   1      24.374 -18.495  -0.134  0.00  0.00     0.041 C 
BRANCH   9  11
ATOM     11  C   UNL d   1      21.955 -18.200  -0.238  0.00  0.00     0.195 A 
ATOM     12  O   UNL d   1      20.949 -17.678  -1.000  0.00  0.00    -0.194 OA
ATOM     13  N   UNL d   1      19.878 -18.575  -0.895  0.00  0.00    -0.111 NA
ATOM     14  C   UNL d   1      20.365 -19.529  -0.091  0.00  0.00     0.156 A 
ATOM     15  N   UNL d   1      21.635 -19.321   0.364  0.00  0.00    -0.207 NA
BRANCH  14  16
ATOM     16  C   UNL d   1      19.678 -20.802   0.205  0.00  0.00     0.083 C 
BRANCH  16  17
ATOM     17  C   UNL d   1      18.312 -20.510   0.831  0.00  0.00     0.007 C 
BRANCH  17  18
ATOM     18  C   UNL d   1      18.436 -20.084   2.285  0.00  0.00    -0.004 C 
ATOM     19  C   UNL d   1      19.808 -20.444   2.826  0.00  0.00     0.005 C 
ENDBRANCH  17  18
ENDBRANCH  16  17
ENDBRANCH  14  16
ENDBRANCH   9  11
ENDBRANCH   7   9
ENDBRANCH   1   7
BRANCH   4  20
ATOM     20  N   UNL d   1      27.897 -14.429  -3.856  0.00  0.00    -0.326 N 
ATOM     21  C   UNL d   1      28.042 -14.702  -5.199  0.00  0.00     0.248 C 
ATOM     22  O   UNL d   1      27.334 -15.512  -5.818  0.00  0.00    -0.271 OA
ATOM     23  H   UNL d   1      28.691 -14.111  -3.308  0.00  0.00     0.169 HD
BRANCH  21  24
ATOM     24  C   UNL d   1      29.146 -14.010  -5.992  0.00  0.00     0.337 C 
BRANCH  24  25
ATOM     25  N   UNL d   1      28.660 -12.666  -6.646  0.00  0.00    -0.063 N 
ATOM     26  C   UNL d   1      27.216 -12.381  -6.292  0.00  0.00     0.235 C 
ATOM     27  C   UNL d   1      26.900 -10.898  -6.470  0.00  0.00     0.028 C 
ATOM     28  C   UNL d   1      26.406 -10.526  -7.874  0.00  0.00     0.002 C 
ATOM     29  C   UNL d   1      27.131 -11.201  -9.027  0.00  0.00     0.002 C 
ATOM     30  C   UNL d   1      28.618 -11.290  -8.776  0.00  0.00     0.028 C 
ATOM     31  C   UNL d   1      28.945 -12.625  -8.141  0.00  0.00     0.235 C 
ATOM     32  H   UNL d   1      29.269 -11.946  -6.226  0.00  0.00     0.280 HD
ENDBRANCH  24  25
ENDBRANCH  21  24
ENDBRANCH   4  20
TORSDOF 9
ENDMDL
MODEL 4
REMARK VINA RESULT:   -32.400      2.786      3.339
REMARK INTER + INTRA:         -36.735
REMARK INTER:                 -35.085
REMARK INTRA:                  -1.650
REMARK CONF_INDEPENDENT:        2.685
REMARK UNBOUND:                -1.650
REMARK  9 active torsions:
REMARK  status: ('A' for Active; 'I' for Inactive)
REMARK    1  A    between atoms: C_2  and  C_3 
REMARK    2  A    between atoms: C_3  and  C_4 
REMARK    3  A    between atoms: C_4  and  C_5 
REMARK    4  A    between atoms: C_8  and  C_9 
REMARK    5  A    between atoms: C_9  and  N_11 
REMARK    6  A    between atoms: N_11  and  C_12 
REMARK    7  A    between atoms: C_15  and  N_16 
REMARK       I    between atoms: N_16  and  C_17 
REMARK    8  A    between atoms: C_17  and  C_19 
REMARK    9  A    between atoms: C_19  and  N_20 
ROOT
ATOM      1  C   UNL d   1      25.318 -17.660  -0.085  0.00  0.00     0.028 A 
ATOM      2  C   UNL d   1      25.590 -16.286  -0.167  0.00  0.00     0.031 A 
ATOM      3  C   UNL d   1      26.908 -15.784  -0.072  0.00  0.00     0.032 A 
ATOM      4  C   UNL d   1      27.965 -16.651   0.200  0.00  0.00     0.034 A 
ATOM      5  C   UNL d   1      27.688 -18.010   0.233  0.00  0.00     0.032 A 
ATOM      6  C   UNL d   1      26.405 -18.491   0.080  0.00  0.00     0.031 A 
ENDROOT
BRANCH   1   7
ATOM      7  N   UNL d   1      24.048 -18.156  -0.192  0.00  0.00    -0.378 N 
ATOM      8  H   UNL d   1      23.798 -18.932   0.421  0.00  0.00     0.160 HD
BRANCH   7   9
ATOM      9  C   UNL d   1      22.900 -17.591  -0.947  0.00  0.00     0.157 C 
ATOM     10  C   UNL d   1      22.538 -16.146  -0.601  0.00  0.00     0.041 C 
BRANCH   9  11
ATOM     11  C   UNL d   1      21.674 -18.423  -0.737  0.00  0.00     0.195 A 
ATOM     12  O   UNL d   1      20.486 -17.984  -1.248  0.00  0.00    -0.194 OA
ATOM     13  N   UNL d   1      19.534 -18.950  -0.897  0.00  0.00    -0.111 NA
ATOM     14  C   UNL d   1      20.259 -19.854  -0.224  0.00  0.00     0.156 A 
ATOM     15  N   UNL d   1      21.581 -19.551  -0.075  0.00  0.00    -0.207 NA
BRANCH  14  16
ATOM     16  C   UNL d   1      19.749 -21.165   0.224  0.00  0.00     0.083 C 
BRANCH  16  17
ATOM     17  C   UNL d   1      18.457 -20.964   1.020  0.00  0.00     0.007 C 
BRANCH  17  18
ATOM     18  C   UNL d   1      18.620 -19.914   2.107  0.00  0.00    -0.004 C 
ATOM     19  C   UNL d   1      19.920 -20.131   2.861  0.00  0.00     0.005 C 
ENDBRANCH  17  18
ENDBRANCH  16  17
ENDBRANCH  14  16
ENDBRANCH   9  11
ENDBRANCH   7   9
ENDBRANCH   1   7
BRANCH   4  20
ATOM     20  N   UNL d   1      29.284 -16.175   0.432  0.00  0.00    -0.326 N 
ATOM     21  C   UNL d   1      30.138 -15.902  -0.615  0.00  0.00     0.248 C 
ATOM     22  O   UNL d   1      29.904 -16.212  -1.794  0.00  0.00    -0.271 OA
ATOM     23  H   UNL d   1      29.647 -16.292   1.373  0.00  0.00     0.169 HD
BRANCH  21  24
ATOM     24  C   UNL d   1      31.468 -15.208  -0.339  0.00  0.00     0.337 C 
BRANCH  24  25
ATOM     25  N   UNL d   1      32.177 -15.765   0.948  0.00  0.00    -0.063 N 
ATOM     26  C   UNL d   1      33.258 -14.819   1.426  0.00  0.00     0.235 C 
ATOM     27  C   UNL d   1      33.584 -15.070   2.896  0.00  0.00     0.028 C 
ATOM     28  C   UNL d   1      34.690 -16.108   3.125  0.00  0.00     0.002 C 
ATOM     29  C   UNL d   1      34.635 -17.336   2.230  0.00  0.00     0.002 C 
ATOM     30  C   UNL d   1      33.217 -17.813   2.024  0.00  0.00     0.028 C 
ATOM     31  C   UNL d   1      32.655 -17.198   0.759  0.00  0.00     0.235 C 
ATOM     32  H   UNL d   1      31.423 -15.814   1.651  0.00  0.00     0.280 HD
ENDBRANCH  24  25
ENDBRANCH  21  24
ENDBRANCH   4  20
TORSDOF 9
ENDMDL
MODEL 5
REMARK VINA RESULT:   -32.076      4.335      6.863
REMARK INTER + INTRA:         -36.560
REMARK INTER:                 -34.761
REMARK INTRA:                  -1.799
REMARK CONF_INDEPENDENT:        2.685
REMARK UNBOUND:                -1.799
REMARK  9 active torsions:
REMARK  status: ('A' for Active; 'I' for Inactive)
REMARK    1  A    between atoms: C_2  and  C_3 
REMARK    2  A    between atoms: C_3  and  C_4 
REMARK    3  A    between atoms: C_4  and  C_5 
REMARK    4  A    between atoms: C_8  and  C_9 
REMARK    5  A    between atoms: C_9  and  N_11 
REMARK    6  A    between atoms: N_11  and  C_12 
REMARK    7  A    between atoms: C_15  and  N_16 
REMARK       I    between atoms: N_16  and  C_17 
REMARK    8  A    between atoms: C_17  and  C_19 
REMARK    9  A    between atoms: C_19  and  N_20 
ROOT
ATOM      1  C   UNL d   1      24.483 -16.043  -1.166  0.00  0.00     0.028 A 
ATOM      2  C   UNL d   1      25.768 -16.186  -0.624  0.00  0.00     0.031 A 
ATOM      3  C   UNL d   1      26.904 -15.623  -1.252  0.00  0.00     0.032 A 
ATOM      4  C   UNL d   1      26.773 -14.986  -2.485  0.00  0.00     0.034 A 
ATOM      5  C   UNL d   1      25.491 -14.813  -2.986  0.00  0.00     0.032 A 
ATOM      6  C   UNL d   1      24.385 -15.316  -2.333  0.00  0.00     0.031 A 
ENDROOT
BRANCH   1   7
ATOM      7  N   UNL d   1      23.376 -16.571  -0.557  0.00  0.00    -0.378 N 
ATOM      8  H   UNL d   1      22.488 -16.092  -0.711  0.00  0.00     0.160 HD
BRANCH   7   9
ATOM      9  C   UNL d   1      23.246 -17.872   0.148  0.00  0.00     0.157 C 
ATOM     10  C   UNL d   1      24.285 -18.928  -0.234  0.00  0.00     0.041 C 
BRANCH   9  11
ATOM     11  C   UNL d   1      21.894 -18.465  -0.093  0.00  0.00     0.195 A 
ATOM     12  O   UNL d   1      21.017 -17.799  -0.899  0.00  0.00    -0.194 OA
ATOM     13  N   UNL d   1      19.854 -18.580  -0.935  0.00  0.00    -0.111 NA
ATOM     14  C   UNL d   1      20.170 -19.622  -0.154  0.00  0.00     0.156 A 
ATOM     15  N   UNL d   1      21.411 -19.575   0.413  0.00  0.00    -0.207 NA
BRANCH  14  16
ATOM     16  C   UNL d   1      19.333 -20.827   0.008  0.00  0.00     0.083 C 
BRANCH  16  17
ATOM     17  C   UNL d   1      18.076 -20.470   0.805  0.00  0.00     0.007 C 
BRANCH  17  18
ATOM     18  C   UNL d   1      18.413 -19.780   2.115  0.00  0.00    -0.004 C 
ATOM     19  C   UNL d   1      19.606 -20.449   2.774  0.00  0.00     0.005 C 
ENDBRANCH  17  18
ENDBRANCH  16  17
ENDBRANCH  14  16
ENDBRANCH   9  11
ENDBRANCH   7   9
ENDBRANCH   1   7
BRANCH   4  20
ATOM     20  N   UNL d   1      27.903 -14.520  -3.211  0.00  0.00    -0.326 N 
ATOM     21  C   UNL d   1      28.050 -14.793  -4.554  0.00  0.00     0.248 C 
ATOM     22  O   UNL d   1      27.335 -15.592  -5.177  0.00  0.00    -0.271 OA
ATOM     23  H   UNL d   1      28.699 -14.215  -2.659  0.00  0.00     0.169 HD
BRANCH  21  24
ATOM     24  C   UNL d   1      29.167 -14.114  -5.340  0.00  0.00     0.337 C 
BRANCH  24  25
ATOM     25  N   UNL d   1      30.281 -15.126  -5.793  0.00  0.00    -0.063 N 
ATOM     26  C   UNL d   1      30.577 -14.983  -7.270  0.00  0.00     0.235 C 
ATOM     27  C   UNL d   1      31.952 -15.557  -7.604  0.00  0.00     0.028 C 
ATOM     28  C   UNL d   1      31.938 -17.048  -7.968  0.00  0.00     0.002 C 
ATOM     29  C   UNL d   1      31.032 -17.924  -7.118  0.00  0.00     0.002 C 
ATOM     30  C   UNL d   1      31.080 -17.529  -5.661  0.00  0.00     0.028 C 
ATOM     31  C   UNL d   1      29.962 -16.551  -5.365  0.00  0.00     0.235 C 
ATOM     32  H   UNL d   1      31.111 -14.850  -5.245  0.00  0.00     0.280 HD
ENDBRANCH  24  25
ENDBRANCH  21  24
ENDBRANCH   4  20
TORSDOF 9
ENDMDL
MODEL 6
REMARK VINA RESULT:   -31.584      4.700      6.796
REMARK INTER + INTRA:         -36.143
REMARK INTER:                 -34.269
REMARK INTRA:                  -1.874
REMARK CONF_INDEPENDENT:        2.685
REMARK UNBOUND:                -1.874
REMARK  9 active torsions:
REMARK  status: ('A' for Active; 'I' for Inactive)
REMARK    1  A    between atoms: C_2  and  C_3 
REMARK    2  A    between atoms: C_3  and  C_4 
REMARK    3  A    between atoms: C_4  and  C_5 
REMARK    4  A    between atoms: C_8  and  C_9 
REMARK    5  A    between atoms: C_9  and  N_11 
REMARK    6  A    between atoms: N_11  and  C_12 
REMARK    7  A    between atoms: C_15  and  N_16 
REMARK       I    between atoms: N_16  and  C_17 
REMARK    8  A    between atoms: C_17  and  C_19 
REMARK    9  A    between atoms: C_19  and  N_20 
ROOT
ATOM      1  C   UNL d   1      24.247 -15.951  -1.476  0.00  0.00     0.028 A 
ATOM      2  C   UNL d   1      25.562 -16.354  -1.203  0.00  0.00     0.031 A 
ATOM      3  C   UNL d   1      26.669 -15.760  -1.853  0.00  0.00     0.032 A 
ATOM      4  C   UNL d   1      26.462 -14.815  -2.856  0.00  0.00     0.034 A 
ATOM      5  C   UNL d   1      25.160 -14.394  -3.083  0.00  0.00     0.032 A 
ATOM      6  C   UNL d   1      24.094 -14.939  -2.399  0.00  0.00     0.031 A 
ENDROOT
BRANCH   1   7
ATOM      7  N   UNL d   1      23.171 -16.509  -0.840  0.00  0.00    -0.378 N 
ATOM      8  H   UNL d   1      22.255 -16.101  -1.031  0.00  0.00     0.160 HD
BRANCH   7   9
ATOM      9  C   UNL d   1      23.118 -17.766  -0.051  0.00  0.00     0.157 C 
ATOM     10  C   UNL d   1      24.173 -18.811  -0.416  0.00  0.00     0.041 C 
BRANCH   9  11
ATOM     11  C   UNL d   1      21.777 -18.415  -0.189  0.00  0.00     0.195 A 
ATOM     12  O   UNL d   1      20.826 -17.806  -0.956  0.00  0.00    -0.194 OA
ATOM     13  N   UNL d   1      19.694 -18.629  -0.896  0.00  0.00    -0.111 NA
ATOM     14  C   UNL d   1      20.098 -19.635  -0.108  0.00  0.00     0.156 A 
ATOM     15  N   UNL d   1      21.369 -19.526   0.377  0.00  0.00    -0.207 NA
BRANCH  14  16
ATOM     16  C   UNL d   1      19.319 -20.865   0.139  0.00  0.00     0.083 C 
BRANCH  16  17
ATOM     17  C   UNL d   1      18.080 -20.524   0.971  0.00  0.00     0.007 C 
BRANCH  17  18
ATOM     18  C   UNL d   1      18.443 -19.789   2.251  0.00  0.00    -0.004 C 
ATOM     19  C   UNL d   1      19.633 -20.451   2.922  0.00  0.00     0.005 C 
ENDBRANCH  17  18
ENDBRANCH  16  17
ENDBRANCH  14  16
ENDBRANCH   9  11
ENDBRANCH   7   9
ENDBRANCH   1   7
BRANCH   4  20
ATOM     20  N   UNL d   1      27.537 -14.289  -3.622  0.00  0.00    -0.326 N 
ATOM     21  C   UNL d   1      27.694 -14.618  -4.952  0.00  0.00     0.248 C 
ATOM     22  O   UNL d   1      27.046 -15.509  -5.522  0.00  0.00    -0.271 OA
ATOM     23  H   UNL d   1      28.308 -13.885  -3.099  0.00  0.00     0.169 HD
BRANCH  21  24
ATOM     24  C   UNL d   1      28.736 -13.883  -5.789  0.00  0.00     0.337 C 
BRANCH  24  25
ATOM     25  N   UNL d   1      28.185 -12.538  -6.385  0.00  0.00    -0.063 N 
ATOM     26  C   UNL d   1      29.253 -11.465  -6.385  0.00  0.00     0.235 C 
ATOM     27  C   UNL d   1      28.915 -10.367  -7.390  0.00  0.00     0.028 C 
ATOM     28  C   UNL d   1      28.070  -9.225  -6.811  0.00  0.00     0.002 C 
ATOM     29  C   UNL d   1      26.949  -9.646  -5.875  0.00  0.00     0.002 C 
ATOM     30  C   UNL d   1      26.253 -10.895  -6.362  0.00  0.00     0.028 C 
ATOM     31  C   UNL d   1      26.885 -12.111  -5.719  0.00  0.00     0.235 C 
ATOM     32  H   UNL d   1      27.934 -12.776  -7.358  0.00  0.00     0.280 HD
ENDBRANCH  24  25
ENDBRANCH  21  24
ENDBRANCH   4  20
TORSDOF 9
ENDMDL
MODEL 7
REMARK VINA RESULT:   -30.806      1.816      2.542
REMARK INTER + INTRA:         -35.169
REMARK INTER:                 -33.491
REMARK INTRA:                  -1.678
REMARK CONF_INDEPENDENT:        2.685
REMARK UNBOUND:                -1.678
REMARK  9 active torsions:
REMARK  status: ('A' for Active; 'I' for Inactive)
REMARK    1  A    between atoms: C_2  and  C_3 
REMARK    2  A    between atoms: C_3  and  C_4 
REMARK    3  A    between atoms: C_4  and  C_5 
REMARK    4  A    between atoms: C_8  and  C_9 
REMARK    5  A    between atoms: C_9  and  N_11 
REMARK    6  A    between atoms: N_11  and  C_12 
REMARK    7  A    between atoms: C_15  and  N_16 
REMARK       I    between atoms: N_16  and  C_17 
REMARK    8  A    between atoms: C_17  and  C_19 
REMARK    9  A    between atoms: C_19  and  N_20 
ROOT
ATOM      1  C   UNL d   1      25.377 -17.600  -0.366  0.00  0.00     0.028 A 
ATOM      2  C   UNL d   1      26.381 -18.249   0.366  0.00  0.00     0.031 A 
ATOM      3  C   UNL d   1      27.722 -17.798   0.348  0.00  0.00     0.032 A 
ATOM      4  C   UNL d   1      28.088 -16.741  -0.483  0.00  0.00     0.034 A 
ATOM      5  C   UNL d   1      27.077 -16.079  -1.165  0.00  0.00     0.032 A 
ATOM      6  C   UNL d   1      25.764 -16.493  -1.091  0.00  0.00     0.031 A 
ENDROOT
BRANCH   1   7
ATOM      7  N   UNL d   1      24.075 -18.019  -0.342  0.00  0.00    -0.378 N 
ATOM      8  H   UNL d   1      23.849 -18.798   0.278  0.00  0.00     0.160 HD
BRANCH   7   9
ATOM      9  C   UNL d   1      22.886 -17.369  -0.951  0.00  0.00     0.157 C 
ATOM     10  C   UNL d   1      22.575 -15.964  -0.434  0.00  0.00     0.041 C 
BRANCH   9  11
ATOM     11  C   UNL d   1      21.664 -18.206  -0.739  0.00  0.00     0.195 A 
ATOM     12  O   UNL d   1      20.479 -17.786  -1.270  0.00  0.00    -0.194 OA
ATOM     13  N   UNL d   1      19.530 -18.752  -0.912  0.00  0.00    -0.111 NA
ATOM     14  C   UNL d   1      20.255 -19.639  -0.216  0.00  0.00     0.156 A 
ATOM     15  N   UNL d   1      21.573 -19.323  -0.058  0.00  0.00    -0.207 NA
BRANCH  14  16
ATOM     16  C   UNL d   1      19.750 -20.946   0.250  0.00  0.00     0.083 C 
BRANCH  16  17
ATOM     17  C   UNL d   1      18.611 -20.725   1.249  0.00  0.00     0.007 C 
BRANCH  17  18
ATOM     18  C   UNL d   1      19.111 -20.712   2.684  0.00  0.00    -0.004 C 
ATOM     19  C   UNL d   1      20.280 -19.755   2.828  0.00  0.00     0.005 C 
ENDBRANCH  17  18
ENDBRANCH  16  17
ENDBRANCH  14  16
ENDBRANCH   9  11
ENDBRANCH   7   9
ENDBRANCH   1   7
BRANCH   4  20
ATOM     20  N   UNL d   1      29.444 -16.339  -0.629  0.00  0.00    -0.326 N 
ATOM     21  C   UNL d   1      29.836 -15.044  -0.367  0.00  0.00     0.248 C 
ATOM     22  O   UNL d   1      29.044 -14.110  -0.169  0.00  0.00    -0.271 OA
ATOM     23  H   UNL d   1      30.041 -16.957  -1.170  0.00  0.00     0.169 HD
BRANCH  21  24
ATOM     24  C   UNL d   1      31.323 -14.700  -0.343  0.00  0.00     0.337 C 
BRANCH  24  25
ATOM     25  N   UNL d   1      31.826 -14.324   1.097  0.00  0.00    -0.063 N 
ATOM     26  C   UNL d   1      31.209 -13.024   1.566  0.00  0.00     0.235 C 
ATOM     27  C   UNL d   1      31.270 -12.916   3.088  0.00  0.00     0.028 C 
ATOM     28  C   UNL d   1      32.548 -12.253   3.619  0.00  0.00     0.002 C 
ATOM     29  C   UNL d   1      33.837 -12.658   2.923  0.00  0.00     0.002 C 
ATOM     30  C   UNL d   1      33.859 -14.134   2.602  0.00  0.00     0.028 C 
ATOM     31  C   UNL d   1      33.345 -14.354   1.195  0.00  0.00     0.235 C 
ATOM     32  H   UNL d   1      31.494 -15.100   1.691  0.00  0.00     0.280 HD
ENDBRANCH  24  25
ENDBRANCH  21  24
ENDBRANCH   4  20
TORSDOF 9
ENDMDL
MODEL 8
REMARK VINA RESULT:   -30.262      3.520      4.519
REMARK INTER + INTRA:         -34.561
REMARK INTER:                 -32.947
REMARK INTRA:                  -1.614
REMARK CONF_INDEPENDENT:        2.685
REMARK UNBOUND:                -1.614
REMARK  9 active torsions:
REMARK  status: ('A' for Active; 'I' for Inactive)
REMARK    1  A    between atoms: C_2  and  C_3 
REMARK    2  A    between atoms: C_3  and  C_4 
REMARK    3  A    between atoms: C_4  and  C_5 
REMARK    4  A    between atoms: C_8  and  C_9 
REMARK    5  A    between atoms: C_9  and  N_11 
REMARK    6  A    between atoms: N_11  and  C_12 
REMARK    7  A    between atoms: C_15  and  N_16 
REMARK       I    between atoms: N_16  and  C_17 
REMARK    8  A    between atoms: C_17  and  C_19 
REMARK    9  A    between atoms: C_19  and  N_20 
ROOT
ATOM      1  C   UNL d   1      25.453 -17.571  -1.117  0.00  0.00     0.028 A 
ATOM      2  C   UNL d   1      26.178 -16.517  -1.691  0.00  0.00     0.031 A 
ATOM      3  C   UNL d   1      27.508 -16.232  -1.300  0.00  0.00     0.032 A 
ATOM      4  C   UNL d   1      28.094 -16.948  -0.258  0.00  0.00     0.034 A 
ATOM      5  C   UNL d   1      27.383 -18.017   0.268  0.00  0.00     0.032 A 
ATOM      6  C   UNL d   1      26.109 -18.320  -0.164  0.00  0.00     0.031 A 
ENDROOT
BRANCH   1   7
ATOM      7  N   UNL d   1      24.172 -17.863  -1.500  0.00  0.00    -0.378 N 
ATOM      8  H   UNL d   1      24.000 -18.797  -1.874  0.00  0.00     0.160 HD
BRANCH   7   9
ATOM      9  C   UNL d   1      22.938 -17.071  -1.266  0.00  0.00     0.157 C 
ATOM     10  C   UNL d   1      23.030 -16.035  -0.145  0.00  0.00     0.041 C 
BRANCH   9  11
ATOM     11  C   UNL d   1      21.788 -17.974  -0.948  0.00  0.00     0.195 A 
ATOM     12  O   UNL d   1      20.530 -17.594  -1.321  0.00  0.00    -0.194 OA
ATOM     13  N   UNL d   1      19.674 -18.618  -0.895  0.00  0.00    -0.111 NA
ATOM     14  C   UNL d   1      20.515 -19.491  -0.324  0.00  0.00     0.156 A 
ATOM     15  N   UNL d   1      21.827 -19.117  -0.307  0.00  0.00    -0.207 NA
BRANCH  14  16
ATOM     16  C   UNL d   1      20.127 -20.837   0.144  0.00  0.00     0.083 C 
BRANCH  16  17
ATOM     17  C   UNL d   1      18.663 -20.819   0.590  0.00  0.00     0.007 C 
BRANCH  17  18
ATOM     18  C   UNL d   1      18.508 -20.275   2.000  0.00  0.00    -0.004 C 
ATOM     19  C   UNL d   1      19.847 -19.800   2.534  0.00  0.00     0.005 C 
ENDBRANCH  17  18
ENDBRANCH  16  17
ENDBRANCH  14  16
ENDBRANCH   9  11
ENDBRANCH   7   9
ENDBRANCH   1   7
BRANCH   4  20
ATOM     20  N   UNL d   1      29.378 -16.612   0.252  0.00  0.00    -0.326 N 
ATOM     21  C   UNL d   1      30.521 -17.189  -0.256  0.00  0.00     0.248 C 
ATOM     22  O   UNL d   1      30.518 -18.150  -1.041  0.00  0.00    -0.271 OA
ATOM     23  H   UNL d   1      29.396 -16.142   1.153  0.00  0.00     0.169 HD
BRANCH  21  24
ATOM     24  C   UNL d   1      31.886 -16.661   0.177  0.00  0.00     0.337 C 
BRANCH  24  25
ATOM     25  N   UNL d   1      32.668 -15.985  -1.007  0.00  0.00    -0.063 N 
ATOM     26  C   UNL d   1      34.114 -16.431  -1.027  0.00  0.00     0.235 C 
ATOM     27  C   UNL d   1      34.728 -16.210  -2.407  0.00  0.00     0.028 C 
ATOM     28  C   UNL d   1      35.373 -14.830  -2.594  0.00  0.00     0.002 C 
ATOM     29  C   UNL d   1      34.602 -13.659  -2.007  0.00  0.00     0.002 C 
ATOM     30  C   UNL d   1      33.114 -13.805  -2.224  0.00  0.00     0.028 C 
ATOM     31  C   UNL d   1      32.490 -14.474  -1.017  0.00  0.00     0.235 C 
ATOM     32  H   UNL d   1      32.188 -16.327  -1.855  0.00  0.00     0.280 HD
ENDBRANCH  24  25
ENDBRANCH  21  24
ENDBRANCH   4  20
TORSDOF 9
ENDMDL
