MODEL 1
REMARK VINA RESULT:    -7.742      0.000      0.000
REMARK INTER + INTRA:         -11.205
REMARK INTER:                  -9.830
REMARK INTRA:                  -1.375
REMARK CONF_INDEPENDENT:        2.088
REMARK UNBOUND:                -1.375
REMARK  7 active torsions:
REMARK  status: ('A' for Active; 'I' for Inactive)
REMARK    1  A    between atoms: O_2  and  C_3 
REMARK    2  A    between atoms: C_5  and  C_6 
REMARK    3  A    between atoms: C_13  and  C_14 
REMARK       I    between atoms: C_14  and  N_16 
REMARK    4  A    between atoms: N_16  and  N_17 
REMARK    5  A    between atoms: C_18  and  C_19 
REMARK    6  A    between atoms: C_24  and  O_25 
REMARK    7  A    between atoms: C_29  and  O_30 
ROOT
ATOM      1  C   UNL d   1      28.665 -14.354  -6.506  0.00  0.00     0.158 C 
ATOM      2  N   UNL d   1      29.661 -13.308  -6.714  0.00  0.00    -0.354 N 
ATOM      3  C   UNL d   1      29.342 -12.004  -6.863  0.00  0.00     0.172 C 
ATOM      4  S   UNL d   1      30.447 -10.887  -7.398  0.00  0.00    -0.041 SA
ATOM      5  N   UNL d   1      28.094 -11.647  -6.464  0.00  0.00    -0.337 N 
ATOM      6  C   UNL d   1      27.224 -12.483  -5.781  0.00  0.00     0.021 C 
ATOM      7  C   UNL d   1      26.136 -11.741  -5.051  0.00  0.00     0.069 C 
ATOM      8  C   UNL d   1      27.442 -13.826  -5.769  0.00  0.00     0.060 C 
ATOM      9  H   UNL d   1      30.612 -13.569  -6.944  0.00  0.00     0.163 HD
ATOM     10  H   UNL d   1      27.887 -10.655  -6.526  0.00  0.00     0.168 HD
ENDROOT
BRANCH   8  11
ATOM     11  C   UNL d   1      26.468 -14.753  -5.029  0.00  0.00     0.272 C 
ATOM     12  O   UNL d   1      26.093 -15.802  -5.570  0.00  0.00    -0.266 OA
ATOM     13  N   UNL d   1      26.016 -14.403  -3.763  0.00  0.00    -0.243 N 
ATOM     14  H   UNL d   1      26.317 -13.582  -3.269  0.00  0.00     0.192 HD
BRANCH  13  15
ATOM     15  N   UNL d   1      25.097 -15.187  -3.110  0.00  0.00    -0.183 NA
ATOM     16  C   UNL d   1      25.426 -15.681  -1.955  0.00  0.00     0.153 C 
BRANCH  16  17
ATOM     17  C   UNL d   1      24.509 -16.603  -1.226  0.00  0.00     0.016 A 
ATOM     18  C   UNL d   1      23.136 -16.322  -1.170  0.00  0.00     0.016 A 
ATOM     19  C   UNL d   1      22.268 -17.210  -0.520  0.00  0.00     0.001 A 
ATOM     20  C   UNL d   1      22.770 -18.354   0.095  0.00  0.00     0.003 A 
ATOM     21  C   UNL d   1      24.141 -18.616   0.070  0.00  0.00     0.037 A 
ATOM     22  C   UNL d   1      25.020 -17.747  -0.588  0.00  0.00     0.080 A 
BRANCH  22  23
ATOM     23  O   UNL d   1      26.377 -17.900  -0.609  0.00  0.00    -0.355 OA
ATOM     24  C   UNL d   1      27.030 -18.218   0.605  0.00  0.00     0.210 C 
ENDBRANCH  22  23
ENDBRANCH  16  17
ENDBRANCH  13  15
ENDBRANCH   8  11
BRANCH   1  25
ATOM     25  C   UNL d   1      29.384 -15.480  -5.797  0.00  0.00    -0.028 A 
ATOM     26  C   UNL d   1      30.037 -16.489  -6.523  0.00  0.00     0.049 A 
ATOM     27  C   UNL d   1      30.521 -17.629  -5.873  0.00  0.00     0.101 A 
ATOM     28  C   UNL d   1      30.416 -17.711  -4.477  0.00  0.00     0.099 A 
ATOM     29  C   UNL d   1      29.807 -16.692  -3.745  0.00  0.00     0.040 A 
ATOM     30  C   UNL d   1      29.288 -15.586  -4.402  0.00  0.00     0.012 A 
BRANCH  27  31
ATOM     31  O   UNL d   1      31.004 -18.578  -6.736  0.00  0.00    -0.353 OA
ATOM     32  C   UNL d   1      30.406 -19.865  -6.664  0.00  0.00     0.210 C 
ENDBRANCH  27  31
BRANCH  28  33
ATOM     33  O   UNL d   1      30.885 -18.797  -3.790  0.00  0.00    -0.358 OA
ATOM     34  H   UNL d   1      31.377 -19.378  -4.392  0.00  0.00     0.217 HD
ENDBRANCH  28  33
ENDBRANCH   1  25
TORSDOF 7
ENDMDL
MODEL 2
REMARK VINA RESULT:    -7.340      0.744      1.721
REMARK INTER + INTRA:         -11.074
REMARK INTER:                  -9.428
REMARK INTRA:                  -1.646
REMARK CONF_INDEPENDENT:        2.088
REMARK UNBOUND:                -1.646
REMARK  7 active torsions:
REMARK  status: ('A' for Active; 'I' for Inactive)
REMARK    1  A    between atoms: O_2  and  C_3 
REMARK    2  A    between atoms: C_5  and  C_6 
REMARK    3  A    between atoms: C_13  and  C_14 
REMARK       I    between atoms: C_14  and  N_16 
REMARK    4  A    between atoms: N_16  and  N_17 
REMARK    5  A    between atoms: C_18  and  C_19 
REMARK    6  A    between atoms: C_24  and  O_25 
REMARK    7  A    between atoms: C_29  and  O_30 
ROOT
ATOM      1  C   UNL d   1      28.663 -14.510  -6.522  0.00  0.00     0.158 C 
ATOM      2  N   UNL d   1      29.717 -13.518  -6.701  0.00  0.00    -0.354 N 
ATOM      3  C   UNL d   1      29.473 -12.194  -6.813  0.00  0.00     0.172 C 
ATOM      4  S   UNL d   1      30.641 -11.128  -7.317  0.00  0.00    -0.041 SA
ATOM      5  N   UNL d   1      28.248 -11.778  -6.404  0.00  0.00    -0.337 N 
ATOM      6  C   UNL d   1      27.331 -12.581  -5.744  0.00  0.00     0.021 C 
ATOM      7  C   UNL d   1      26.285 -11.798  -4.994  0.00  0.00     0.069 C 
ATOM      8  C   UNL d   1      27.471 -13.934  -5.770  0.00  0.00     0.060 C 
ATOM      9  H   UNL d   1      30.652 -13.827  -6.938  0.00  0.00     0.163 HD
ATOM     10  H   UNL d   1      28.098 -10.773  -6.438  0.00  0.00     0.168 HD
ENDROOT
BRANCH   8  11
ATOM     11  C   UNL d   1      26.444 -14.825  -5.056  0.00  0.00     0.272 C 
ATOM     12  O   UNL d   1      25.917 -15.762  -5.669  0.00  0.00    -0.266 OA
ATOM     13  N   UNL d   1      26.116 -14.565  -3.731  0.00  0.00    -0.243 N 
ATOM     14  H   UNL d   1      26.540 -13.840  -3.181  0.00  0.00     0.192 HD
BRANCH  13  15
ATOM     15  N   UNL d   1      25.155 -15.311  -3.093  0.00  0.00    -0.183 NA
ATOM     16  C   UNL d   1      25.431 -15.785  -1.916  0.00  0.00     0.153 C 
BRANCH  16  17
ATOM     17  C   UNL d   1      24.466 -16.667  -1.200  0.00  0.00     0.016 A 
ATOM     18  C   UNL d   1      23.106 -16.325  -1.159  0.00  0.00     0.016 A 
ATOM     19  C   UNL d   1      22.192 -17.174  -0.520  0.00  0.00     0.001 A 
ATOM     20  C   UNL d   1      22.636 -18.341   0.099  0.00  0.00     0.003 A 
ATOM     21  C   UNL d   1      23.994 -18.663   0.088  0.00  0.00     0.037 A 
ATOM     22  C   UNL d   1      24.918 -17.833  -0.558  0.00  0.00     0.080 A 
BRANCH  22  23
ATOM     23  O   UNL d   1      26.267 -18.046  -0.565  0.00  0.00    -0.355 OA
ATOM     24  C   UNL d   1      26.997 -17.729   0.605  0.00  0.00     0.210 C 
ENDBRANCH  22  23
ENDBRANCH  16  17
ENDBRANCH  13  15
ENDBRANCH   8  11
BRANCH   1  25
ATOM     25  C   UNL d   1      29.315 -15.696  -5.844  0.00  0.00    -0.028 A 
ATOM     26  C   UNL d   1      29.107 -15.950  -4.479  0.00  0.00     0.049 A 
ATOM     27  C   UNL d   1      29.868 -16.918  -3.816  0.00  0.00     0.101 A 
ATOM     28  C   UNL d   1      30.782 -17.686  -4.552  0.00  0.00     0.099 A 
ATOM     29  C   UNL d   1      30.960 -17.468  -5.918  0.00  0.00     0.040 A 
ATOM     30  C   UNL d   1      30.236 -16.474  -6.559  0.00  0.00     0.012 A 
BRANCH  27  31
ATOM     31  O   UNL d   1      29.644 -16.947  -2.464  0.00  0.00    -0.353 OA
ATOM     32  C   UNL d   1      29.011 -15.807  -1.901  0.00  0.00     0.210 C 
ENDBRANCH  27  31
BRANCH  28  33
ATOM     33  O   UNL d   1      31.540 -18.656  -3.956  0.00  0.00    -0.358 OA
ATOM     34  H   UNL d   1      31.429 -18.613  -2.993  0.00  0.00     0.217 HD
ENDBRANCH  28  33
ENDBRANCH   1  25
TORSDOF 7
ENDMDL
MODEL 3
REMARK VINA RESULT:    -7.093      4.769      7.231
REMARK INTER + INTRA:         -10.781
REMARK INTER:                  -9.181
REMARK INTRA:                  -1.600
REMARK CONF_INDEPENDENT:        2.088
REMARK UNBOUND:                -1.600
REMARK  7 active torsions:
REMARK  status: ('A' for Active; 'I' for Inactive)
REMARK    1  A    between atoms: O_2  and  C_3 
REMARK    2  A    between atoms: C_5  and  C_6 
REMARK    3  A    between atoms: C_13  and  C_14 
REMARK       I    between atoms: C_14  and  N_16 
REMARK    4  A    between atoms: N_16  and  N_17 
REMARK    5  A    between atoms: C_18  and  C_19 
REMARK    6  A    between atoms: C_24  and  O_25 
REMARK    7  A    between atoms: C_29  and  O_30 
ROOT
ATOM      1  C   UNL d   1      25.604 -14.662  -1.896  0.00  0.00     0.158 C 
ATOM      2  N   UNL d   1      25.946 -15.082  -3.250  0.00  0.00    -0.354 N 
ATOM      3  C   UNL d   1      26.948 -14.525  -3.965  0.00  0.00     0.172 C 
ATOM      4  S   UNL d   1      27.121 -14.800  -5.593  0.00  0.00    -0.041 SA
ATOM      5  N   UNL d   1      27.854 -13.803  -3.258  0.00  0.00    -0.337 N 
ATOM      6  C   UNL d   1      27.900 -13.750  -1.873  0.00  0.00     0.021 C 
ATOM      7  C   UNL d   1      29.232 -13.294  -1.339  0.00  0.00     0.069 C 
ATOM      8  C   UNL d   1      26.823 -14.149  -1.143  0.00  0.00     0.060 C 
ATOM      9  H   UNL d   1      25.306 -15.678  -3.759  0.00  0.00     0.163 HD
ATOM     10  H   UNL d   1      28.634 -13.439  -3.797  0.00  0.00     0.168 HD
ENDROOT
BRANCH   8  11
ATOM     11  C   UNL d   1      26.867 -14.071   0.390  0.00  0.00     0.272 C 
ATOM     12  O   UNL d   1      26.180 -13.226   0.979  0.00  0.00    -0.266 OA
ATOM     13  N   UNL d   1      27.679 -14.949   1.098  0.00  0.00    -0.243 N 
ATOM     14  H   UNL d   1      28.227 -15.673   0.670  0.00  0.00     0.192 HD
BRANCH  13  15
ATOM     15  N   UNL d   1      27.779 -14.856   2.465  0.00  0.00    -0.183 NA
ATOM     16  C   UNL d   1      28.023 -13.689   2.982  0.00  0.00     0.153 C 
BRANCH  16  17
ATOM     17  C   UNL d   1      28.221 -13.528   4.450  0.00  0.00     0.016 A 
ATOM     18  C   UNL d   1      28.682 -14.610   5.215  0.00  0.00     0.016 A 
ATOM     19  C   UNL d   1      28.907 -14.447   6.589  0.00  0.00     0.001 A 
ATOM     20  C   UNL d   1      28.645 -13.223   7.200  0.00  0.00     0.003 A 
ATOM     21  C   UNL d   1      28.153 -12.157   6.445  0.00  0.00     0.037 A 
ATOM     22  C   UNL d   1      27.937 -12.298   5.069  0.00  0.00     0.080 A 
BRANCH  22  23
ATOM     23  O   UNL d   1      27.405 -11.325   4.272  0.00  0.00    -0.355 OA
ATOM     24  C   UNL d   1      28.096 -10.094   4.174  0.00  0.00     0.210 C 
ENDBRANCH  22  23
ENDBRANCH  16  17
ENDBRANCH  13  15
ENDBRANCH   8  11
BRANCH   1  25
ATOM     25  C   UNL d   1      24.924 -15.849  -1.249  0.00  0.00    -0.028 A 
ATOM     26  C   UNL d   1      25.676 -16.879  -0.662  0.00  0.00     0.049 A 
ATOM     27  C   UNL d   1      25.055 -18.062  -0.251  0.00  0.00     0.101 A 
ATOM     28  C   UNL d   1      23.661 -18.172  -0.360  0.00  0.00     0.099 A 
ATOM     29  C   UNL d   1      22.903 -17.134  -0.901  0.00  0.00     0.040 A 
ATOM     30  C   UNL d   1      23.532 -15.981  -1.349  0.00  0.00     0.012 A 
BRANCH  27  31
ATOM     31  O   UNL d   1      25.941 -19.019   0.170  0.00  0.00    -0.353 OA
ATOM     32  C   UNL d   1      27.027 -18.570   0.970  0.00  0.00     0.210 C 
ENDBRANCH  27  31
BRANCH  28  33
ATOM     33  O   UNL d   1      23.001 -19.301   0.041  0.00  0.00    -0.358 OA
ATOM     34  H   UNL d   1      23.643 -20.004   0.234  0.00  0.00     0.217 HD
ENDBRANCH  28  33
ENDBRANCH   1  25
TORSDOF 7
ENDMDL
MODEL 4
REMARK VINA RESULT:    -6.869      2.145      3.231
REMARK INTER + INTRA:         -10.583
REMARK INTER:                  -8.957
REMARK INTRA:                  -1.626
REMARK CONF_INDEPENDENT:        2.088
REMARK UNBOUND:                -1.626
REMARK  7 active torsions:
REMARK  status: ('A' for Active; 'I' for Inactive)
REMARK    1  A    between atoms: O_2  and  C_3 
REMARK    2  A    between atoms: C_5  and  C_6 
REMARK    3  A    between atoms: C_13  and  C_14 
REMARK       I    between atoms: C_14  and  N_16 
REMARK    4  A    between atoms: N_16  and  N_17 
REMARK    5  A    between atoms: C_18  and  C_19 
REMARK    6  A    between atoms: C_24  and  O_25 
REMARK    7  A    between atoms: C_29  and  O_30 
ROOT
ATOM      1  C   UNL d   1      26.747 -11.519  -6.513  0.00  0.00     0.158 C 
ATOM      2  N   UNL d   1      27.266 -10.229  -6.954  0.00  0.00    -0.354 N 
ATOM      3  C   UNL d   1      26.804  -9.049  -6.485  0.00  0.00     0.172 C 
ATOM      4  S   UNL d   1      27.186  -7.607  -7.213  0.00  0.00    -0.041 SA
ATOM      5  N   UNL d   1      26.086  -9.106  -5.334  0.00  0.00    -0.337 N 
ATOM      6  C   UNL d   1      25.951 -10.243  -4.554  0.00  0.00     0.021 C 
ATOM      7  C   UNL d   1      25.531  -9.947  -3.138  0.00  0.00     0.069 C 
ATOM      8  C   UNL d   1      26.251 -11.464  -5.076  0.00  0.00     0.060 C 
ATOM      9  H   UNL d   1      27.860 -10.188  -7.773  0.00  0.00     0.163 HD
ATOM     10  H   UNL d   1      25.795  -8.207  -4.961  0.00  0.00     0.168 HD
ENDROOT
BRANCH   8  11
ATOM     11  C   UNL d   1      26.082 -12.726  -4.217  0.00  0.00     0.272 C 
ATOM     12  O   UNL d   1      26.851 -12.926  -3.268  0.00  0.00    -0.266 OA
ATOM     13  N   UNL d   1      25.071 -13.630  -4.519  0.00  0.00    -0.243 N 
ATOM     14  H   UNL d   1      24.402 -13.495  -5.255  0.00  0.00     0.192 HD
BRANCH  13  15
ATOM     15  N   UNL d   1      24.941 -14.794  -3.801  0.00  0.00    -0.183 NA
ATOM     16  C   UNL d   1      24.777 -14.705  -2.516  0.00  0.00     0.153 C 
BRANCH  16  17
ATOM     17  C   UNL d   1      24.707 -15.927  -1.666  0.00  0.00     0.016 A 
ATOM     18  C   UNL d   1      23.475 -16.342  -1.140  0.00  0.00     0.016 A 
ATOM     19  C   UNL d   1      23.403 -17.514  -0.375  0.00  0.00     0.001 A 
ATOM     20  C   UNL d   1      24.556 -18.249  -0.111  0.00  0.00     0.003 A 
ATOM     21  C   UNL d   1      25.787 -17.817  -0.604  0.00  0.00     0.037 A 
ATOM     22  C   UNL d   1      25.875 -16.657  -1.383  0.00  0.00     0.080 A 
BRANCH  22  23
ATOM     23  O   UNL d   1      27.047 -16.136  -1.854  0.00  0.00    -0.355 OA
ATOM     24  C   UNL d   1      27.866 -15.418  -0.951  0.00  0.00     0.210 C 
ENDBRANCH  22  23
ENDBRANCH  16  17
ENDBRANCH  13  15
ENDBRANCH   8  11
BRANCH   1  25
ATOM     25  C   UNL d   1      27.857 -12.519  -6.753  0.00  0.00    -0.028 A 
ATOM     26  C   UNL d   1      27.765 -13.831  -6.260  0.00  0.00     0.049 A 
ATOM     27  C   UNL d   1      28.872 -14.684  -6.306  0.00  0.00     0.101 A 
ATOM     28  C   UNL d   1      30.049 -14.237  -6.924  0.00  0.00     0.099 A 
ATOM     29  C   UNL d   1      30.132 -12.950  -7.455  0.00  0.00     0.040 A 
ATOM     30  C   UNL d   1      29.045 -12.094  -7.364  0.00  0.00     0.012 A 
BRANCH  27  31
ATOM     31  O   UNL d   1      28.663 -15.875  -5.662  0.00  0.00    -0.353 OA
ATOM     32  C   UNL d   1      29.189 -15.987  -4.346  0.00  0.00     0.210 C 
ENDBRANCH  27  31
BRANCH  28  33
ATOM     33  O   UNL d   1      31.156 -15.036  -7.009  0.00  0.00    -0.358 OA
ATOM     34  H   UNL d   1      30.918 -15.950  -6.789  0.00  0.00     0.217 HD
ENDBRANCH  28  33
ENDBRANCH   1  25
TORSDOF 7
ENDMDL
MODEL 5
REMARK VINA RESULT:    -6.844      5.893      8.350
REMARK INTER + INTRA:         -10.387
REMARK INTER:                  -8.932
REMARK INTRA:                  -1.455
REMARK CONF_INDEPENDENT:        2.088
REMARK UNBOUND:                -1.455
REMARK  7 active torsions:
REMARK  status: ('A' for Active; 'I' for Inactive)
REMARK    1  A    between atoms: O_2  and  C_3 
REMARK    2  A    between atoms: C_5  and  C_6 
REMARK    3  A    between atoms: C_13  and  C_14 
REMARK       I    between atoms: C_14  and  N_16 
REMARK    4  A    between atoms: N_16  and  N_17 
REMARK    5  A    between atoms: C_18  and  C_19 
REMARK    6  A    between atoms: C_24  and  O_25 
REMARK    7  A    between atoms: C_29  and  O_30 
ROOT
ATOM      1  C   UNL d   1      30.760 -14.402   2.877  0.00  0.00     0.158 C 
ATOM      2  N   UNL d   1      32.030 -13.742   3.158  0.00  0.00    -0.354 N 
ATOM      3  C   UNL d   1      33.023 -13.633   2.248  0.00  0.00     0.172 C 
ATOM      4  S   UNL d   1      34.555 -13.159   2.676  0.00  0.00    -0.041 SA
ATOM      5  N   UNL d   1      32.671 -13.848   0.955  0.00  0.00    -0.337 N 
ATOM      6  C   UNL d   1      31.365 -13.998   0.516  0.00  0.00     0.021 C 
ATOM      7  C   UNL d   1      31.201 -13.749  -0.960  0.00  0.00     0.069 C 
ATOM      8  C   UNL d   1      30.377 -14.281   1.409  0.00  0.00     0.060 C 
ATOM      9  H   UNL d   1      32.269 -13.517   4.116  0.00  0.00     0.163 HD
ATOM     10  H   UNL d   1      33.413 -13.706   0.275  0.00  0.00     0.168 HD
ENDROOT
BRANCH   8  11
ATOM     11  C   UNL d   1      28.934 -14.468   0.920  0.00  0.00     0.272 C 
ATOM     12  O   UNL d   1      28.315 -13.500   0.459  0.00  0.00    -0.266 OA
ATOM     13  N   UNL d   1      28.338 -15.721   1.003  0.00  0.00    -0.243 N 
ATOM     14  H   UNL d   1      28.808 -16.542   1.336  0.00  0.00     0.192 HD
BRANCH  13  15
ATOM     15  N   UNL d   1      27.028 -15.894   0.628  0.00  0.00    -0.183 NA
ATOM     16  C   UNL d   1      26.610 -17.104   0.409  0.00  0.00     0.153 C 
BRANCH  16  17
ATOM     17  C   UNL d   1      25.224 -17.361  -0.075  0.00  0.00     0.016 A 
ATOM     18  C   UNL d   1      24.591 -18.575   0.231  0.00  0.00     0.016 A 
ATOM     19  C   UNL d   1      23.274 -18.799  -0.190  0.00  0.00     0.001 A 
ATOM     20  C   UNL d   1      22.603 -17.833  -0.935  0.00  0.00     0.003 A 
ATOM     21  C   UNL d   1      23.245 -16.639  -1.270  0.00  0.00     0.037 A 
ATOM     22  C   UNL d   1      24.556 -16.393  -0.845  0.00  0.00     0.080 A 
BRANCH  22  23
ATOM     23  O   UNL d   1      25.273 -15.279  -1.178  0.00  0.00    -0.355 OA
ATOM     24  C   UNL d   1      25.248 -14.849  -2.526  0.00  0.00     0.210 C 
ENDBRANCH  22  23
ENDBRANCH  16  17
ENDBRANCH  13  15
ENDBRANCH   8  11
BRANCH   1  25
ATOM     25  C   UNL d   1      29.755 -13.802   3.836  0.00  0.00    -0.028 A 
ATOM     26  C   UNL d   1      29.016 -12.661   3.484  0.00  0.00     0.049 A 
ATOM     27  C   UNL d   1      28.245 -11.995   4.442  0.00  0.00     0.101 A 
ATOM     28  C   UNL d   1      28.158 -12.529   5.736  0.00  0.00     0.099 A 
ATOM     29  C   UNL d   1      28.856 -13.687   6.079  0.00  0.00     0.040 A 
ATOM     30  C   UNL d   1      29.655 -14.316   5.136  0.00  0.00     0.012 A 
BRANCH  27  31
ATOM     31  O   UNL d   1      27.699 -10.827   3.978  0.00  0.00    -0.353 OA
ATOM     32  C   UNL d   1      27.301 -10.810   2.614  0.00  0.00     0.210 C 
ENDBRANCH  27  31
BRANCH  28  33
ATOM     33  O   UNL d   1      27.407 -11.925   6.707  0.00  0.00    -0.358 OA
ATOM     34  H   UNL d   1      27.071 -11.076   6.380  0.00  0.00     0.217 HD
ENDBRANCH  28  33
ENDBRANCH   1  25
TORSDOF 7
ENDMDL
MODEL 6
REMARK VINA RESULT:    -6.734      8.256     10.769
REMARK INTER + INTRA:         -10.384
REMARK INTER:                  -8.822
REMARK INTRA:                  -1.562
REMARK CONF_INDEPENDENT:        2.088
REMARK UNBOUND:                -1.562
REMARK  7 active torsions:
REMARK  status: ('A' for Active; 'I' for Inactive)
REMARK    1  A    between atoms: O_2  and  C_3 
REMARK    2  A    between atoms: C_5  and  C_6 
REMARK    3  A    between atoms: C_13  and  C_14 
REMARK       I    between atoms: C_14  and  N_16 
REMARK    4  A    between atoms: N_16  and  N_17 
REMARK    5  A    between atoms: C_18  and  C_19 
REMARK    6  A    between atoms: C_24  and  O_25 
REMARK    7  A    between atoms: C_29  and  O_30 
ROOT
ATOM      1  C   UNL d   1      33.426 -20.159   2.697  0.00  0.00     0.158 C 
ATOM      2  N   UNL d   1      33.592 -18.746   3.017  0.00  0.00    -0.354 N 
ATOM      3  C   UNL d   1      33.756 -17.790   2.076  0.00  0.00     0.172 C 
ATOM      4  S   UNL d   1      34.244 -16.252   2.466  0.00  0.00    -0.041 SA
ATOM      5  N   UNL d   1      33.413 -18.137   0.810  0.00  0.00    -0.337 N 
ATOM      6  C   UNL d   1      32.767 -19.316   0.471  0.00  0.00     0.021 C 
ATOM      7  C   UNL d   1      32.086 -19.257  -0.871  0.00  0.00     0.069 C 
ATOM      8  C   UNL d   1      32.744 -20.354   1.351  0.00  0.00     0.060 C 
ATOM      9  H   UNL d   1      33.780 -18.474   3.974  0.00  0.00     0.163 HD
ATOM     10  H   UNL d   1      33.485 -17.392   0.122  0.00  0.00     0.168 HD
ENDROOT
BRANCH   8  11
ATOM     11  C   UNL d   1      32.046 -21.667   0.967  0.00  0.00     0.272 C 
ATOM     12  O   UNL d   1      32.688 -22.725   0.974  0.00  0.00    -0.266 OA
ATOM     13  N   UNL d   1      30.702 -21.650   0.615  0.00  0.00    -0.243 N 
ATOM     14  H   UNL d   1      30.130 -20.825   0.628  0.00  0.00     0.192 HD
BRANCH  13  15
ATOM     15  N   UNL d   1      30.075 -22.803   0.210  0.00  0.00    -0.183 NA
ATOM     16  C   UNL d   1      30.472 -23.360  -0.894  0.00  0.00     0.153 C 
BRANCH  16  17
ATOM     17  C   UNL d   1      29.786 -24.569  -1.433  0.00  0.00     0.016 A 
ATOM     18  C   UNL d   1      28.591 -24.430  -2.154  0.00  0.00     0.016 A 
ATOM     19  C   UNL d   1      27.968 -25.563  -2.695  0.00  0.00     0.001 A 
ATOM     20  C   UNL d   1      28.517 -26.827  -2.493  0.00  0.00     0.003 A 
ATOM     21  C   UNL d   1      29.687 -26.968  -1.746  0.00  0.00     0.037 A 
ATOM     22  C   UNL d   1      30.331 -25.846  -1.211  0.00  0.00     0.080 A 
BRANCH  22  23
ATOM     23  O   UNL d   1      31.444 -25.904  -0.422  0.00  0.00    -0.355 OA
ATOM     24  C   UNL d   1      31.264 -25.981   0.979  0.00  0.00     0.210 C 
ENDBRANCH  22  23
ENDBRANCH  16  17
ENDBRANCH  13  15
ENDBRANCH   8  11
BRANCH   1  25
ATOM     25  C   UNL d   1      32.685 -20.768   3.867  0.00  0.00    -0.028 A 
ATOM     26  C   UNL d   1      31.348 -21.180   3.738  0.00  0.00     0.049 A 
ATOM     27  C   UNL d   1      30.610 -21.550   4.867  0.00  0.00     0.101 A 
ATOM     28  C   UNL d   1      31.248 -21.581   6.116  0.00  0.00     0.099 A 
ATOM     29  C   UNL d   1      32.588 -21.216   6.243  0.00  0.00     0.040 A 
ATOM     30  C   UNL d   1      33.300 -20.806   5.126  0.00  0.00     0.012 A 
BRANCH  27  31
ATOM     31  O   UNL d   1      29.289 -21.789   4.593  0.00  0.00    -0.353 OA
ATOM     32  C   UNL d   1      28.944 -21.950   3.223  0.00  0.00     0.210 C 
ENDBRANCH  27  31
BRANCH  28  33
ATOM     33  O   UNL d   1      30.576 -21.949   7.249  0.00  0.00    -0.358 OA
ATOM     34  H   UNL d   1      29.735 -22.370   7.010  0.00  0.00     0.217 HD
ENDBRANCH  28  33
ENDBRANCH   1  25
TORSDOF 7
ENDMDL
MODEL 7
REMARK VINA RESULT:    -6.708      2.746      4.412
REMARK INTER + INTRA:         -10.260
REMARK INTER:                  -8.796
REMARK INTRA:                  -1.464
REMARK CONF_INDEPENDENT:        2.088
REMARK UNBOUND:                -1.464
REMARK  7 active torsions:
REMARK  status: ('A' for Active; 'I' for Inactive)
REMARK    1  A    between atoms: O_2  and  C_3 
REMARK    2  A    between atoms: C_5  and  C_6 
REMARK    3  A    between atoms: C_13  and  C_14 
REMARK       I    between atoms: C_14  and  N_16 
REMARK    4  A    between atoms: N_16  and  N_17 
REMARK    5  A    between atoms: C_18  and  C_19 
REMARK    6  A    between atoms: C_24  and  O_25 
REMARK    7  A    between atoms: C_29  and  O_30 
ROOT
ATOM      1  C   UNL d   1      25.618 -10.899  -5.533  0.00  0.00     0.158 C 
ATOM      2  N   UNL d   1      25.671  -9.677  -6.328  0.00  0.00    -0.354 N 
ATOM      3  C   UNL d   1      25.260  -8.476  -5.865  0.00  0.00     0.172 C 
ATOM      4  S   UNL d   1      25.045  -7.176  -6.873  0.00  0.00    -0.041 SA
ATOM      5  N   UNL d   1      25.121  -8.374  -4.519  0.00  0.00    -0.337 N 
ATOM      6  C   UNL d   1      25.527  -9.345  -3.616  0.00  0.00     0.021 C 
ATOM      7  C   UNL d   1      25.705  -8.819  -2.216  0.00  0.00     0.069 C 
ATOM      8  C   UNL d   1      25.778 -10.611  -4.048  0.00  0.00     0.060 C 
ATOM      9  H   UNL d   1      25.844  -9.742  -7.324  0.00  0.00     0.163 HD
ATOM     10  H   UNL d   1      24.868  -7.451  -4.178  0.00  0.00     0.168 HD
ENDROOT
BRANCH   8  11
ATOM     11  C   UNL d   1      26.208 -11.691  -3.045  0.00  0.00     0.272 C 
ATOM     12  O   UNL d   1      27.115 -11.449  -2.238  0.00  0.00    -0.266 OA
ATOM     13  N   UNL d   1      25.576 -12.928  -3.057  0.00  0.00    -0.243 N 
ATOM     14  H   UNL d   1      24.813 -13.161  -3.667  0.00  0.00     0.192 HD
BRANCH  13  15
ATOM     15  N   UNL d   1      25.987 -13.928  -2.209  0.00  0.00    -0.183 NA
ATOM     16  C   UNL d   1      25.416 -15.090  -2.312  0.00  0.00     0.153 C 
BRANCH  16  17
ATOM     17  C   UNL d   1      25.757 -16.197  -1.374  0.00  0.00     0.016 A 
ATOM     18  C   UNL d   1      27.090 -16.613  -1.241  0.00  0.00     0.016 A 
ATOM     19  C   UNL d   1      27.417 -17.626  -0.330  0.00  0.00     0.001 A 
ATOM     20  C   UNL d   1      26.417 -18.240   0.421  0.00  0.00     0.003 A 
ATOM     21  C   UNL d   1      25.086 -17.850   0.264  0.00  0.00     0.037 A 
ATOM     22  C   UNL d   1      24.745 -16.829  -0.632  0.00  0.00     0.080 A 
BRANCH  22  23
ATOM     23  O   UNL d   1      23.464 -16.429  -0.886  0.00  0.00    -0.355 OA
ATOM     24  C   UNL d   1      22.442 -17.408  -0.855  0.00  0.00     0.210 C 
ENDBRANCH  22  23
ENDBRANCH  16  17
ENDBRANCH  13  15
ENDBRANCH   8  11
BRANCH   1  25
ATOM     25  C   UNL d   1      26.672 -11.819  -6.109  0.00  0.00    -0.028 A 
ATOM     26  C   UNL d   1      26.711 -13.179  -5.761  0.00  0.00     0.049 A 
ATOM     27  C   UNL d   1      27.800 -13.973  -6.131  0.00  0.00     0.101 A 
ATOM     28  C   UNL d   1      28.813 -13.412  -6.923  0.00  0.00     0.099 A 
ATOM     29  C   UNL d   1      28.758 -12.073  -7.309  0.00  0.00     0.040 A 
ATOM     30  C   UNL d   1      27.697 -11.280  -6.899  0.00  0.00     0.012 A 
BRANCH  27  31
ATOM     31  O   UNL d   1      27.754 -15.235  -5.599  0.00  0.00    -0.353 OA
ATOM     32  C   UNL d   1      28.500 -15.449  -4.408  0.00  0.00     0.210 C 
ENDBRANCH  27  31
BRANCH  28  33
ATOM     33  O   UNL d   1      29.893 -14.148  -7.325  0.00  0.00    -0.358 OA
ATOM     34  H   UNL d   1      29.596 -14.904  -7.856  0.00  0.00     0.217 HD
ENDBRANCH  28  33
ENDBRANCH   1  25
TORSDOF 7
ENDMDL
MODEL 8
REMARK VINA RESULT:    -6.508      2.630      5.617
REMARK INTER + INTRA:         -10.161
REMARK INTER:                  -8.596
REMARK INTRA:                  -1.564
REMARK CONF_INDEPENDENT:        2.088
REMARK UNBOUND:                -1.564
REMARK  7 active torsions:
REMARK  status: ('A' for Active; 'I' for Inactive)
REMARK    1  A    between atoms: O_2  and  C_3 
REMARK    2  A    between atoms: C_5  and  C_6 
REMARK    3  A    between atoms: C_13  and  C_14 
REMARK       I    between atoms: C_14  and  N_16 
REMARK    4  A    between atoms: N_16  and  N_17 
REMARK    5  A    between atoms: C_18  and  C_19 
REMARK    6  A    between atoms: C_24  and  O_25 
REMARK    7  A    between atoms: C_29  and  O_30 
ROOT
ATOM      1  C   UNL d   1      28.348 -11.359  -5.852  0.00  0.00     0.158 C 
ATOM      2  N   UNL d   1      28.702 -11.059  -7.235  0.00  0.00    -0.354 N 
ATOM      3  C   UNL d   1      29.337 -11.938  -8.042  0.00  0.00     0.172 C 
ATOM      4  S   UNL d   1      29.996 -11.476  -9.493  0.00  0.00    -0.041 SA
ATOM      5  N   UNL d   1      29.324 -13.233  -7.638  0.00  0.00    -0.337 N 
ATOM      6  C   UNL d   1      28.577 -13.711  -6.572  0.00  0.00     0.021 C 
ATOM      7  C   UNL d   1      28.358 -15.200  -6.618  0.00  0.00     0.069 C 
ATOM      8  C   UNL d   1      28.076 -12.843  -5.651  0.00  0.00     0.060 C 
ATOM      9  H   UNL d   1      28.648 -10.103  -7.564  0.00  0.00     0.163 HD
ATOM     10  H   UNL d   1      29.753 -13.892  -8.281  0.00  0.00     0.168 HD
ENDROOT
BRANCH   8  11
ATOM     11  C   UNL d   1      27.266 -13.373  -4.460  0.00  0.00     0.272 C 
ATOM     12  O   UNL d   1      27.677 -13.183  -3.308  0.00  0.00    -0.266 OA
ATOM     13  N   UNL d   1      26.082 -14.064  -4.689  0.00  0.00    -0.243 N 
ATOM     14  H   UNL d   1      25.689 -14.214  -5.601  0.00  0.00     0.192 HD
BRANCH  13  15
ATOM     15  N   UNL d   1      25.375 -14.600  -3.641  0.00  0.00    -0.183 NA
ATOM     16  C   UNL d   1      25.919 -15.569  -2.968  0.00  0.00     0.153 C 
BRANCH  16  17
ATOM     17  C   UNL d   1      25.178 -16.248  -1.867  0.00  0.00     0.016 A 
ATOM     18  C   UNL d   1      23.826 -15.945  -1.645  0.00  0.00     0.016 A 
ATOM     19  C   UNL d   1      23.119 -16.614  -0.637  0.00  0.00     0.001 A 
ATOM     20  C   UNL d   1      23.762 -17.555   0.163  0.00  0.00     0.003 A 
ATOM     21  C   UNL d   1      25.116 -17.831  -0.036  0.00  0.00     0.037 A 
ATOM     22  C   UNL d   1      25.834 -17.183  -1.048  0.00  0.00     0.080 A 
BRANCH  22  23
ATOM     23  O   UNL d   1      27.171 -17.353  -1.269  0.00  0.00    -0.355 OA
ATOM     24  C   UNL d   1      28.007 -17.580  -0.150  0.00  0.00     0.210 C 
ENDBRANCH  22  23
ENDBRANCH  16  17
ENDBRANCH  13  15
ENDBRANCH   8  11
BRANCH   1  25
ATOM     25  C   UNL d   1      27.180 -10.458  -5.515  0.00  0.00    -0.028 A 
ATOM     26  C   UNL d   1      26.889 -10.124  -4.183  0.00  0.00     0.049 A 
ATOM     27  C   UNL d   1      25.698  -9.464  -3.863  0.00  0.00     0.101 A 
ATOM     28  C   UNL d   1      24.840  -9.070  -4.900  0.00  0.00     0.099 A 
ATOM     29  C   UNL d   1      25.146  -9.360  -6.230  0.00  0.00     0.040 A 
ATOM     30  C   UNL d   1      26.306 -10.056  -6.535  0.00  0.00     0.012 A 
BRANCH  27  31
ATOM     31  O   UNL d   1      25.497  -9.335  -2.514  0.00  0.00    -0.353 OA
ATOM     32  C   UNL d   1      26.626  -8.955  -1.738  0.00  0.00     0.210 C 
ENDBRANCH  27  31
BRANCH  28  33
ATOM     33  O   UNL d   1      23.669  -8.409  -4.645  0.00  0.00    -0.358 OA
ATOM     34  H   UNL d   1      23.672  -8.079  -3.732  0.00  0.00     0.217 HD
ENDBRANCH  28  33
ENDBRANCH   1  25
TORSDOF 7
ENDMDL
MODEL 9
REMARK VINA RESULT:    -6.393      2.437      5.140
REMARK INTER + INTRA:         -10.484
REMARK INTER:                  -8.481
REMARK INTRA:                  -2.003
REMARK CONF_INDEPENDENT:        2.088
REMARK UNBOUND:                -2.003
REMARK  7 active torsions:
REMARK  status: ('A' for Active; 'I' for Inactive)
REMARK    1  A    between atoms: O_2  and  C_3 
REMARK    2  A    between atoms: C_5  and  C_6 
REMARK    3  A    between atoms: C_13  and  C_14 
REMARK       I    between atoms: C_14  and  N_16 
REMARK    4  A    between atoms: N_16  and  N_17 
REMARK    5  A    between atoms: C_18  and  C_19 
REMARK    6  A    between atoms: C_24  and  O_25 
REMARK    7  A    between atoms: C_29  and  O_30 
ROOT
ATOM      1  C   UNL d   1      30.285 -13.160  -6.500  0.00  0.00     0.158 C 
ATOM      2  N   UNL d   1      30.974 -12.763  -7.723  0.00  0.00    -0.354 N 
ATOM      3  C   UNL d   1      31.904 -13.533  -8.330  0.00  0.00     0.172 C 
ATOM      4  S   UNL d   1      32.885 -12.940  -9.530  0.00  0.00    -0.041 SA
ATOM      5  N   UNL d   1      31.926 -14.840  -7.963  0.00  0.00    -0.337 N 
ATOM      6  C   UNL d   1      30.971 -15.441  -7.157  0.00  0.00     0.021 C 
ATOM      7  C   UNL d   1      30.944 -16.941  -7.284  0.00  0.00     0.069 C 
ATOM      8  C   UNL d   1      30.138 -14.672  -6.404  0.00  0.00     0.060 C 
ATOM      9  H   UNL d   1      30.905 -11.804  -8.040  0.00  0.00     0.163 HD
ATOM     10  H   UNL d   1      32.589 -15.420  -8.469  0.00  0.00     0.168 HD
ENDROOT
BRANCH   8  11
ATOM     11  C   UNL d   1      29.094 -15.338  -5.496  0.00  0.00     0.272 C 
ATOM     12  O   UNL d   1      27.938 -15.497  -5.909  0.00  0.00    -0.266 OA
ATOM     13  N   UNL d   1      29.459 -15.752  -4.221  0.00  0.00    -0.243 N 
ATOM     14  H   UNL d   1      30.391 -15.677  -3.854  0.00  0.00     0.192 HD
BRANCH  13  15
ATOM     15  N   UNL d   1      28.526 -16.294  -3.371  0.00  0.00    -0.183 NA
ATOM     16  C   UNL d   1      27.488 -15.575  -3.064  0.00  0.00     0.153 C 
BRANCH  16  17
ATOM     17  C   UNL d   1      26.475 -16.069  -2.089  0.00  0.00     0.016 A 
ATOM     18  C   UNL d   1      26.889 -16.774  -0.950  0.00  0.00     0.016 A 
ATOM     19  C   UNL d   1      25.940 -17.204  -0.012  0.00  0.00     0.001 A 
ATOM     20  C   UNL d   1      24.586 -16.957  -0.224  0.00  0.00     0.003 A 
ATOM     21  C   UNL d   1      24.171 -16.285  -1.375  0.00  0.00     0.037 A 
ATOM     22  C   UNL d   1      25.107 -15.837  -2.315  0.00  0.00     0.080 A 
BRANCH  22  23
ATOM     23  O   UNL d   1      24.780 -15.225  -3.492  0.00  0.00    -0.355 OA
ATOM     24  C   UNL d   1      24.534 -13.831  -3.471  0.00  0.00     0.210 C 
ENDBRANCH  22  23
ENDBRANCH  16  17
ENDBRANCH  13  15
ENDBRANCH   8  11
BRANCH   1  25
ATOM     25  C   UNL d   1      28.975 -12.403  -6.494  0.00  0.00    -0.028 A 
ATOM     26  C   UNL d   1      28.264 -12.204  -5.299  0.00  0.00     0.049 A 
ATOM     27  C   UNL d   1      26.965 -11.687  -5.328  0.00  0.00     0.101 A 
ATOM     28  C   UNL d   1      26.416 -11.296  -6.558  0.00  0.00     0.099 A 
ATOM     29  C   UNL d   1      27.135 -11.450  -7.742  0.00  0.00     0.040 A 
ATOM     30  C   UNL d   1      28.405 -12.007  -7.711  0.00  0.00     0.012 A 
BRANCH  27  31
ATOM     31  O   UNL d   1      26.358 -11.685  -4.100  0.00  0.00    -0.353 OA
ATOM     32  C   UNL d   1      27.211 -11.805  -2.970  0.00  0.00     0.210 C 
ENDBRANCH  27  31
BRANCH  28  33
ATOM     33  O   UNL d   1      25.155 -10.771  -6.641  0.00  0.00    -0.358 OA
ATOM     34  H   UNL d   1      24.708 -10.856  -5.784  0.00  0.00     0.217 HD
ENDBRANCH  28  33
ENDBRANCH   1  25
TORSDOF 7
ENDMDL
