MODEL 1
REMARK VINA RESULT:   -33.437      0.000      0.000
REMARK INTER + INTRA:         -37.472
REMARK INTER:                 -36.121
REMARK INTRA:                  -1.351
REMARK CONF_INDEPENDENT:        2.685
REMARK UNBOUND:                -1.351
REMARK  9 active torsions:
REMARK  status: ('A' for Active; 'I' for Inactive)
REMARK    1  A    between atoms: C_2  and  C_3 
REMARK    2  A    between atoms: C_3  and  C_4 
REMARK    3  A    between atoms: C_4  and  C_5 
REMARK    4  A    between atoms: C_9  and  C_8 
REMARK    5  A    between atoms: C_9  and  N_11 
REMARK    6  A    between atoms: N_11  and  C_12 
REMARK    7  A    between atoms: C_15  and  N_16 
REMARK       I    between atoms: N_16  and  C_17 
REMARK    8  A    between atoms: C_17  and  C_19 
REMARK    9  A    between atoms: C_19  and  N_20 
ROOT
ATOM      1  C   UNL d   1      25.266 -17.219  -0.820  0.00  0.00     0.028 A 
ATOM      2  C   UNL d   1      25.979 -16.180  -1.432  0.00  0.00     0.031 A 
ATOM      3  C   UNL d   1      27.264 -15.785  -0.989  0.00  0.00     0.032 A 
ATOM      4  C   UNL d   1      27.827 -16.378   0.130  0.00  0.00     0.034 A 
ATOM      5  C   UNL d   1      27.127 -17.447   0.685  0.00  0.00     0.032 A 
ATOM      6  C   UNL d   1      25.917 -17.872   0.194  0.00  0.00     0.031 A 
ENDROOT
BRANCH   1   7
ATOM      7  N   UNL d   1      24.011 -17.601  -1.264  0.00  0.00    -0.378 N 
ATOM      8  H   UNL d   1      24.021 -18.473  -1.787  0.00  0.00     0.160 HD
BRANCH   7   9
ATOM      9  C   UNL d   1      22.776 -17.365  -0.458  0.00  0.00     0.157 C 
ATOM     10  C   UNL d   1      22.179 -16.020  -0.895  0.00  0.00     0.041 C 
BRANCH   9  11
ATOM     11  C   UNL d   1      21.638 -18.351  -0.474  0.00  0.00     0.195 A 
ATOM     12  O   UNL d   1      20.555 -18.067  -1.270  0.00  0.00    -0.194 OA
ATOM     13  N   UNL d   1      19.584 -19.039  -0.977  0.00  0.00    -0.111 NA
ATOM     14  C   UNL d   1      20.229 -19.855  -0.135  0.00  0.00     0.156 A 
ATOM     15  N   UNL d   1      21.485 -19.454   0.224  0.00  0.00    -0.207 NA
BRANCH  14  16
ATOM     16  C   UNL d   1      19.740 -21.199   0.230  0.00  0.00     0.083 C 
BRANCH  16  17
ATOM     17  C   UNL d   1      18.398 -21.055   0.948  0.00  0.00     0.007 C 
BRANCH  17  18
ATOM     18  C   UNL d   1      18.516 -20.168   2.175  0.00  0.00    -0.004 C 
ATOM     19  C   UNL d   1      19.816 -20.450   2.907  0.00  0.00     0.005 C 
ENDBRANCH  17  18
ENDBRANCH  16  17
ENDBRANCH  14  16
ENDBRANCH   9  11
ENDBRANCH   7   9
ENDBRANCH   1   7
BRANCH   4  20
ATOM     20  N   UNL d   1      29.057 -15.895   0.674  0.00  0.00    -0.326 N 
ATOM     21  C   UNL d   1      29.062 -14.824   1.520  0.00  0.00     0.248 C 
ATOM     22  O   UNL d   1      27.995 -14.300   1.841  0.00  0.00    -0.271 OA
ATOM     23  H   UNL d   1      29.916 -16.323   0.349  0.00  0.00     0.169 HD
BRANCH  21  24
ATOM     24  C   UNL d   1      30.343 -14.235   2.108  0.00  0.00     0.337 C 
BRANCH  24  25
ATOM     25  N   UNL d   1      30.278 -13.929   3.683  0.00  0.00    -0.063 N 
ATOM     26  C   UNL d   1      29.241 -14.789   4.356  0.00  0.00     0.235 C 
ATOM     27  C   UNL d   1      29.496 -14.825   5.858  0.00  0.00     0.028 C 
ATOM     28  C   UNL d   1      28.746 -13.743   6.642  0.00  0.00     0.002 C 
ATOM     29  C   UNL d   1      28.730 -12.365   6.006  0.00  0.00     0.002 C 
ATOM     30  C   UNL d   1      30.082 -12.026   5.422  0.00  0.00     0.028 C 
ATOM     31  C   UNL d   1      30.125 -12.449   3.984  0.00  0.00     0.235 C 
ATOM     32  H   UNL d   1      31.206 -14.177   4.047  0.00  0.00     0.280 HD
ENDBRANCH  24  25
ENDBRANCH  21  24
ENDBRANCH   4  20
TORSDOF 9
ENDMDL
MODEL 2
REMARK VINA RESULT:   -33.094      3.475      4.363
REMARK INTER + INTRA:         -37.129
REMARK INTER:                 -35.779
REMARK INTRA:                  -1.350
REMARK CONF_INDEPENDENT:        2.685
REMARK UNBOUND:                -1.350
REMARK  9 active torsions:
REMARK  status: ('A' for Active; 'I' for Inactive)
REMARK    1  A    between atoms: C_2  and  C_3 
REMARK    2  A    between atoms: C_3  and  C_4 
REMARK    3  A    between atoms: C_4  and  C_5 
REMARK    4  A    between atoms: C_9  and  C_8 
REMARK    5  A    between atoms: C_9  and  N_11 
REMARK    6  A    between atoms: N_11  and  C_12 
REMARK    7  A    between atoms: C_15  and  N_16 
REMARK       I    between atoms: N_16  and  C_17 
REMARK    8  A    between atoms: C_17  and  C_19 
REMARK    9  A    between atoms: C_19  and  N_20 
ROOT
ATOM      1  C   UNL d   1      25.326 -17.368  -0.996  0.00  0.00     0.028 A 
ATOM      2  C   UNL d   1      25.869 -18.109   0.060  0.00  0.00     0.031 A 
ATOM      3  C   UNL d   1      27.196 -17.913   0.514  0.00  0.00     0.032 A 
ATOM      4  C   UNL d   1      28.030 -17.018  -0.138  0.00  0.00     0.034 A 
ATOM      5  C   UNL d   1      27.450 -16.251  -1.146  0.00  0.00     0.032 A 
ATOM      6  C   UNL d   1      26.137 -16.396  -1.522  0.00  0.00     0.031 A 
ENDROOT
BRANCH   1   7
ATOM      7  N   UNL d   1      24.026 -17.565  -1.430  0.00  0.00    -0.378 N 
ATOM      8  H   UNL d   1      23.932 -18.349  -2.071  0.00  0.00     0.160 HD
BRANCH   7   9
ATOM      9  C   UNL d   1      22.847 -17.338  -0.540  0.00  0.00     0.157 C 
ATOM     10  C   UNL d   1      22.246 -15.972  -0.895  0.00  0.00     0.041 C 
BRANCH   9  11
ATOM     11  C   UNL d   1      21.695 -18.307  -0.516  0.00  0.00     0.195 A 
ATOM     12  O   UNL d   1      20.582 -17.999  -1.261  0.00  0.00    -0.194 OA
ATOM     13  N   UNL d   1      19.610 -18.959  -0.935  0.00  0.00    -0.111 NA
ATOM     14  C   UNL d   1      20.279 -19.793  -0.129  0.00  0.00     0.156 A 
ATOM     15  N   UNL d   1      21.555 -19.414   0.179  0.00  0.00    -0.207 NA
BRANCH  14  16
ATOM     16  C   UNL d   1      19.785 -21.133   0.245  0.00  0.00     0.083 C 
BRANCH  16  17
ATOM     17  C   UNL d   1      18.389 -20.991   0.850  0.00  0.00     0.007 C 
BRANCH  17  18
ATOM     18  C   UNL d   1      18.406 -20.107   2.086  0.00  0.00    -0.004 C 
ATOM     19  C   UNL d   1      19.596 -20.450   2.963  0.00  0.00     0.005 C 
ENDBRANCH  17  18
ENDBRANCH  16  17
ENDBRANCH  14  16
ENDBRANCH   9  11
ENDBRANCH   7   9
ENDBRANCH   1   7
BRANCH   4  20
ATOM     20  N   UNL d   1      29.410 -16.913   0.216  0.00  0.00    -0.326 N 
ATOM     21  C   UNL d   1      30.361 -17.558  -0.519  0.00  0.00     0.248 C 
ATOM     22  O   UNL d   1      30.024 -18.203  -1.513  0.00  0.00    -0.271 OA
ATOM     23  H   UNL d   1      29.641 -16.412   1.066  0.00  0.00     0.169 HD
BRANCH  21  24
ATOM     24  C   UNL d   1      31.848 -17.516  -0.176  0.00  0.00     0.337 C 
BRANCH  24  25
ATOM     25  N   UNL d   1      32.331 -18.650   0.853  0.00  0.00    -0.063 N 
ATOM     26  C   UNL d   1      32.661 -18.052   2.196  0.00  0.00     0.235 C 
ATOM     27  C   UNL d   1      32.672 -19.145   3.258  0.00  0.00     0.028 C 
ATOM     28  C   UNL d   1      34.050 -19.780   3.482  0.00  0.00     0.002 C 
ATOM     29  C   UNL d   1      34.850 -20.070   2.225  0.00  0.00     0.002 C 
ATOM     30  C   UNL d   1      33.962 -20.636   1.140  0.00  0.00     0.028 C 
ATOM     31  C   UNL d   1      33.441 -19.517   0.288  0.00  0.00     0.235 C 
ATOM     32  H   UNL d   1      31.529 -19.283   0.956  0.00  0.00     0.280 HD
ENDBRANCH  24  25
ENDBRANCH  21  24
ENDBRANCH   4  20
TORSDOF 9
ENDMDL
MODEL 3
REMARK VINA RESULT:   -32.932      4.863      7.024
REMARK INTER + INTRA:         -37.213
REMARK INTER:                 -35.617
REMARK INTRA:                  -1.597
REMARK CONF_INDEPENDENT:        2.685
REMARK UNBOUND:                -1.597
REMARK  9 active torsions:
REMARK  status: ('A' for Active; 'I' for Inactive)
REMARK    1  A    between atoms: C_2  and  C_3 
REMARK    2  A    between atoms: C_3  and  C_4 
REMARK    3  A    between atoms: C_4  and  C_5 
REMARK    4  A    between atoms: C_9  and  C_8 
REMARK    5  A    between atoms: C_9  and  N_11 
REMARK    6  A    between atoms: N_11  and  C_12 
REMARK    7  A    between atoms: C_15  and  N_16 
REMARK       I    between atoms: N_16  and  C_17 
REMARK    8  A    between atoms: C_17  and  C_19 
REMARK    9  A    between atoms: C_19  and  N_20 
ROOT
ATOM      1  C   UNL d   1      24.598 -15.909  -1.853  0.00  0.00     0.028 A 
ATOM      2  C   UNL d   1      24.406 -14.815  -2.705  0.00  0.00     0.031 A 
ATOM      3  C   UNL d   1      25.456 -14.275  -3.487  0.00  0.00     0.032 A 
ATOM      4  C   UNL d   1      26.742 -14.778  -3.368  0.00  0.00     0.034 A 
ATOM      5  C   UNL d   1      26.896 -15.902  -2.560  0.00  0.00     0.032 A 
ATOM      6  C   UNL d   1      25.851 -16.465  -1.870  0.00  0.00     0.031 A 
ENDROOT
BRANCH   1   7
ATOM      7  N   UNL d   1      23.564 -16.433  -1.096  0.00  0.00    -0.378 N 
ATOM      8  H   UNL d   1      22.680 -15.950  -1.239  0.00  0.00     0.160 HD
BRANCH   7   9
ATOM      9  C   UNL d   1      23.442 -17.895  -0.817  0.00  0.00     0.157 C 
ATOM     10  C   UNL d   1      24.165 -18.183   0.505  0.00  0.00     0.041 C 
BRANCH   9  11
ATOM     11  C   UNL d   1      22.093 -18.556  -0.708  0.00  0.00     0.195 A 
ATOM     12  O   UNL d   1      21.019 -17.918  -1.278  0.00  0.00    -0.194 OA
ATOM     13  N   UNL d   1      19.879 -18.643  -0.894  0.00  0.00    -0.111 NA
ATOM     14  C   UNL d   1      20.402 -19.689  -0.242  0.00  0.00     0.156 A 
ATOM     15  N   UNL d   1      21.758 -19.660  -0.079  0.00  0.00    -0.207 NA
BRANCH  14  16
ATOM     16  C   UNL d   1      19.632 -20.901   0.101  0.00  0.00     0.083 C 
BRANCH  16  17
ATOM     17  C   UNL d   1      18.297 -20.478   0.714  0.00  0.00     0.007 C 
BRANCH  17  18
ATOM     18  C   UNL d   1      18.493 -19.810   2.064  0.00  0.00    -0.004 C 
ATOM     19  C   UNL d   1      19.664 -20.437   2.798  0.00  0.00     0.005 C 
ENDBRANCH  17  18
ENDBRANCH  16  17
ENDBRANCH  14  16
ENDBRANCH   9  11
ENDBRANCH   7   9
ENDBRANCH   1   7
BRANCH   4  20
ATOM     20  N   UNL d   1      27.837 -14.153  -4.041  0.00  0.00    -0.326 N 
ATOM     21  C   UNL d   1      28.095 -14.439  -5.349  0.00  0.00     0.248 C 
ATOM     22  O   UNL d   1      27.354 -15.213  -5.958  0.00  0.00    -0.271 OA
ATOM     23  H   UNL d   1      28.449 -13.561  -3.493  0.00  0.00     0.169 HD
BRANCH  21  24
ATOM     24  C   UNL d   1      29.268 -13.836  -6.117  0.00  0.00     0.337 C 
BRANCH  24  25
ATOM     25  N   UNL d   1      30.167 -14.901  -6.915  0.00  0.00    -0.063 N 
ATOM     26  C   UNL d   1      30.114 -16.252  -6.253  0.00  0.00     0.235 C 
ATOM     27  C   UNL d   1      30.574 -17.325  -7.233  0.00  0.00     0.028 C 
ATOM     28  C   UNL d   1      32.075 -17.628  -7.163  0.00  0.00     0.002 C 
ATOM     29  C   UNL d   1      32.982 -16.418  -7.032  0.00  0.00     0.002 C 
ATOM     30  C   UNL d   1      32.513 -15.294  -7.927  0.00  0.00     0.028 C 
ATOM     31  C   UNL d   1      31.579 -14.404  -7.163  0.00  0.00     0.235 C 
ATOM     32  H   UNL d   1      29.744 -14.968  -7.849  0.00  0.00     0.280 HD
ENDBRANCH  24  25
ENDBRANCH  21  24
ENDBRANCH   4  20
TORSDOF 9
ENDMDL
MODEL 4
REMARK VINA RESULT:   -32.764      4.932      7.437
REMARK INTER + INTRA:         -36.992
REMARK INTER:                 -35.448
REMARK INTRA:                  -1.544
REMARK CONF_INDEPENDENT:        2.685
REMARK UNBOUND:                -1.544
REMARK  9 active torsions:
REMARK  status: ('A' for Active; 'I' for Inactive)
REMARK    1  A    between atoms: C_2  and  C_3 
REMARK    2  A    between atoms: C_3  and  C_4 
REMARK    3  A    between atoms: C_4  and  C_5 
REMARK    4  A    between atoms: C_9  and  C_8 
REMARK    5  A    between atoms: C_9  and  N_11 
REMARK    6  A    between atoms: N_11  and  C_12 
REMARK    7  A    between atoms: C_15  and  N_16 
REMARK       I    between atoms: N_16  and  C_17 
REMARK    8  A    between atoms: C_17  and  C_19 
REMARK    9  A    between atoms: C_19  and  N_20 
ROOT
ATOM      1  C   UNL d   1      24.592 -15.907  -1.836  0.00  0.00     0.028 A 
ATOM      2  C   UNL d   1      25.884 -16.392  -1.599  0.00  0.00     0.031 A 
ATOM      3  C   UNL d   1      27.019 -15.871  -2.265  0.00  0.00     0.032 A 
ATOM      4  C   UNL d   1      26.868 -14.899  -3.242  0.00  0.00     0.034 A 
ATOM      5  C   UNL d   1      25.583 -14.391  -3.417  0.00  0.00     0.032 A 
ATOM      6  C   UNL d   1      24.503 -14.851  -2.707  0.00  0.00     0.031 A 
ENDROOT
BRANCH   1   7
ATOM      7  N   UNL d   1      23.489 -16.421  -1.177  0.00  0.00    -0.378 N 
ATOM      8  H   UNL d   1      22.619 -15.959  -1.433  0.00  0.00     0.160 HD
BRANCH   7   9
ATOM      9  C   UNL d   1      23.358 -17.874  -0.858  0.00  0.00     0.157 C 
ATOM     10  C   UNL d   1      24.057 -18.125   0.485  0.00  0.00     0.041 C 
BRANCH   9  11
ATOM     11  C   UNL d   1      22.005 -18.528  -0.752  0.00  0.00     0.195 A 
ATOM     12  O   UNL d   1      20.926 -17.855  -1.271  0.00  0.00    -0.194 OA
ATOM     13  N   UNL d   1      19.787 -18.587  -0.897  0.00  0.00    -0.111 NA
ATOM     14  C   UNL d   1      20.313 -19.666  -0.303  0.00  0.00     0.156 A 
ATOM     15  N   UNL d   1      21.672 -19.656  -0.167  0.00  0.00    -0.207 NA
BRANCH  14  16
ATOM     16  C   UNL d   1      19.538 -20.886  -0.001  0.00  0.00     0.083 C 
BRANCH  16  17
ATOM     17  C   UNL d   1      18.375 -20.514   0.918  0.00  0.00     0.007 C 
BRANCH  17  18
ATOM     18  C   UNL d   1      18.831 -19.620   2.058  0.00  0.00    -0.004 C 
ATOM     19  C   UNL d   1      20.131 -20.137   2.646  0.00  0.00     0.005 C 
ENDBRANCH  17  18
ENDBRANCH  16  17
ENDBRANCH  14  16
ENDBRANCH   9  11
ENDBRANCH   7   9
ENDBRANCH   1   7
BRANCH   4  20
ATOM     20  N   UNL d   1      27.984 -14.465  -4.022  0.00  0.00    -0.326 N 
ATOM     21  C   UNL d   1      28.040 -14.740  -5.357  0.00  0.00     0.248 C 
ATOM     22  O   UNL d   1      27.103 -15.333  -5.893  0.00  0.00    -0.271 OA
ATOM     23  H   UNL d   1      28.755 -14.023  -3.535  0.00  0.00     0.169 HD
BRANCH  21  24
ATOM     24  C   UNL d   1      29.218 -14.337  -6.240  0.00  0.00     0.337 C 
BRANCH  24  25
ATOM     25  N   UNL d   1      28.848 -13.327  -7.433  0.00  0.00    -0.063 N 
ATOM     26  C   UNL d   1      30.092 -12.728  -8.035  0.00  0.00     0.235 C 
ATOM     27  C   UNL d   1      29.773 -12.153  -9.410  0.00  0.00     0.028 C 
ATOM     28  C   UNL d   1      29.374 -10.673  -9.387  0.00  0.00     0.002 C 
ATOM     29  C   UNL d   1      28.437 -10.265  -8.265  0.00  0.00     0.002 C 
ATOM     30  C   UNL d   1      27.361 -11.306  -8.056  0.00  0.00     0.028 C 
ATOM     31  C   UNL d   1      27.817 -12.292  -7.022  0.00  0.00     0.235 C 
ATOM     32  H   UNL d   1      28.376 -13.903  -8.140  0.00  0.00     0.280 HD
ENDBRANCH  24  25
ENDBRANCH  21  24
ENDBRANCH   4  20
TORSDOF 9
ENDMDL
MODEL 5
REMARK VINA RESULT:   -32.715      4.535      6.883
REMARK INTER + INTRA:         -36.763
REMARK INTER:                 -35.400
REMARK INTRA:                  -1.364
REMARK CONF_INDEPENDENT:        2.685
REMARK UNBOUND:                -1.364
REMARK  9 active torsions:
REMARK  status: ('A' for Active; 'I' for Inactive)
REMARK    1  A    between atoms: C_2  and  C_3 
REMARK    2  A    between atoms: C_3  and  C_4 
REMARK    3  A    between atoms: C_4  and  C_5 
REMARK    4  A    between atoms: C_9  and  C_8 
REMARK    5  A    between atoms: C_9  and  N_11 
REMARK    6  A    between atoms: N_11  and  C_12 
REMARK    7  A    between atoms: C_15  and  N_16 
REMARK       I    between atoms: N_16  and  C_17 
REMARK    8  A    between atoms: C_17  and  C_19 
REMARK    9  A    between atoms: C_19  and  N_20 
ROOT
ATOM      1  C   UNL d   1      24.799 -16.208  -1.680  0.00  0.00     0.028 A 
ATOM      2  C   UNL d   1      26.014 -16.768  -1.267  0.00  0.00     0.031 A 
ATOM      3  C   UNL d   1      27.260 -16.318  -1.768  0.00  0.00     0.032 A 
ATOM      4  C   UNL d   1      27.303 -15.345  -2.754  0.00  0.00     0.034 A 
ATOM      5  C   UNL d   1      26.088 -14.762  -3.104  0.00  0.00     0.032 A 
ATOM      6  C   UNL d   1      24.894 -15.153  -2.551  0.00  0.00     0.031 A 
ENDROOT
BRANCH   1   7
ATOM      7  N   UNL d   1      23.586 -16.652  -1.180  0.00  0.00    -0.378 N 
ATOM      8  H   UNL d   1      22.786 -16.197  -1.612  0.00  0.00     0.160 HD
BRANCH   7   9
ATOM      9  C   UNL d   1      23.362 -18.075  -0.784  0.00  0.00     0.157 C 
ATOM     10  C   UNL d   1      23.995 -18.283   0.598  0.00  0.00     0.041 C 
BRANCH   9  11
ATOM     11  C   UNL d   1      21.972 -18.647  -0.696  0.00  0.00     0.195 A 
ATOM     12  O   UNL d   1      20.945 -17.927  -1.258  0.00  0.00    -0.194 OA
ATOM     13  N   UNL d   1      19.758 -18.583  -0.895  0.00  0.00    -0.111 NA
ATOM     14  C   UNL d   1      20.206 -19.674  -0.263  0.00  0.00     0.156 A 
ATOM     15  N   UNL d   1      21.560 -19.739  -0.093  0.00  0.00    -0.207 NA
BRANCH  14  16
ATOM     16  C   UNL d   1      19.355 -20.840   0.049  0.00  0.00     0.083 C 
BRANCH  16  17
ATOM     17  C   UNL d   1      18.245 -20.397   1.001  0.00  0.00     0.007 C 
BRANCH  17  18
ATOM     18  C   UNL d   1      18.672 -20.528   2.454  0.00  0.00    -0.004 C 
ATOM     19  C   UNL d   1      20.108 -20.066   2.625  0.00  0.00     0.005 C 
ENDBRANCH  17  18
ENDBRANCH  16  17
ENDBRANCH  14  16
ENDBRANCH   9  11
ENDBRANCH   7   9
ENDBRANCH   1   7
BRANCH   4  20
ATOM     20  N   UNL d   1      28.540 -14.982  -3.371  0.00  0.00    -0.326 N 
ATOM     21  C   UNL d   1      28.718 -15.155  -4.712  0.00  0.00     0.248 C 
ATOM     22  O   UNL d   1      27.791 -15.593  -5.395  0.00  0.00    -0.271 OA
ATOM     23  H   UNL d   1      29.293 -14.670  -2.768  0.00  0.00     0.169 HD
BRANCH  21  24
ATOM     24  C   UNL d   1      30.025 -14.822  -5.428  0.00  0.00     0.337 C 
BRANCH  24  25
ATOM     25  N   UNL d   1      30.914 -16.098  -5.829  0.00  0.00    -0.063 N 
ATOM     26  C   UNL d   1      30.796 -16.394  -7.301  0.00  0.00     0.235 C 
ATOM     27  C   UNL d   1      31.953 -17.281  -7.742  0.00  0.00     0.028 C 
ATOM     28  C   UNL d   1      31.649 -18.782  -7.672  0.00  0.00     0.002 C 
ATOM     29  C   UNL d   1      30.898 -19.240  -6.434  0.00  0.00     0.002 C 
ATOM     30  C   UNL d   1      31.428 -18.552  -5.197  0.00  0.00     0.028 C 
ATOM     31  C   UNL d   1      30.639 -17.301  -4.946  0.00  0.00     0.235 C 
ATOM     32  H   UNL d   1      31.883 -15.832  -5.617  0.00  0.00     0.280 HD
ENDBRANCH  24  25
ENDBRANCH  21  24
ENDBRANCH   4  20
TORSDOF 9
ENDMDL
MODEL 6
REMARK VINA RESULT:   -32.411      2.961      3.392
REMARK INTER + INTRA:         -36.295
REMARK INTER:                 -35.096
REMARK INTRA:                  -1.199
REMARK CONF_INDEPENDENT:        2.685
REMARK UNBOUND:                -1.199
REMARK  9 active torsions:
REMARK  status: ('A' for Active; 'I' for Inactive)
REMARK    1  A    between atoms: C_2  and  C_3 
REMARK    2  A    between atoms: C_3  and  C_4 
REMARK    3  A    between atoms: C_4  and  C_5 
REMARK    4  A    between atoms: C_9  and  C_8 
REMARK    5  A    between atoms: C_9  and  N_11 
REMARK    6  A    between atoms: N_11  and  C_12 
REMARK    7  A    between atoms: C_15  and  N_16 
REMARK       I    between atoms: N_16  and  C_17 
REMARK    8  A    between atoms: C_17  and  C_19 
REMARK    9  A    between atoms: C_19  and  N_20 
ROOT
ATOM      1  C   UNL d   1      25.397 -17.507  -0.773  0.00  0.00     0.028 A 
ATOM      2  C   UNL d   1      25.881 -16.280  -1.244  0.00  0.00     0.031 A 
ATOM      3  C   UNL d   1      27.165 -15.794  -0.899  0.00  0.00     0.032 A 
ATOM      4  C   UNL d   1      27.960 -16.498  -0.008  0.00  0.00     0.034 A 
ATOM      5  C   UNL d   1      27.483 -17.742   0.399  0.00  0.00     0.032 A 
ATOM      6  C   UNL d   1      26.269 -18.238  -0.008  0.00  0.00     0.031 A 
ENDROOT
BRANCH   1   7
ATOM      7  N   UNL d   1      24.141 -17.976  -1.121  0.00  0.00    -0.378 N 
ATOM      8  H   UNL d   1      24.152 -18.936  -1.456  0.00  0.00     0.160 HD
BRANCH   7   9
ATOM      9  C   UNL d   1      22.910 -17.587  -0.369  0.00  0.00     0.157 C 
ATOM     10  C   UNL d   1      22.479 -16.199  -0.860  0.00  0.00     0.041 C 
BRANCH   9  11
ATOM     11  C   UNL d   1      21.674 -18.446  -0.406  0.00  0.00     0.195 A 
ATOM     12  O   UNL d   1      20.625 -18.026  -1.188  0.00  0.00    -0.194 OA
ATOM     13  N   UNL d   1      19.557 -18.896  -0.917  0.00  0.00    -0.111 NA
ATOM     14  C   UNL d   1      20.113 -19.800  -0.101  0.00  0.00     0.156 A 
ATOM     15  N   UNL d   1      21.406 -19.545   0.262  0.00  0.00    -0.207 NA
BRANCH  14  16
ATOM     16  C   UNL d   1      19.484 -21.094   0.230  0.00  0.00     0.083 C 
BRANCH  16  17
ATOM     17  C   UNL d   1      18.152 -20.828   0.930  0.00  0.00     0.007 C 
BRANCH  17  18
ATOM     18  C   UNL d   1      18.350 -20.075   2.235  0.00  0.00    -0.004 C 
ATOM     19  C   UNL d   1      19.679 -20.450   2.863  0.00  0.00     0.005 C 
ENDBRANCH  17  18
ENDBRANCH  16  17
ENDBRANCH  14  16
ENDBRANCH   9  11
ENDBRANCH   7   9
ENDBRANCH   1   7
BRANCH   4  20
ATOM     20  N   UNL d   1      29.195 -15.953   0.460  0.00  0.00    -0.326 N 
ATOM     21  C   UNL d   1      30.145 -15.539  -0.427  0.00  0.00     0.248 C 
ATOM     22  O   UNL d   1      29.916 -15.604  -1.635  0.00  0.00    -0.271 OA
ATOM     23  H   UNL d   1      29.363 -15.960   1.459  0.00  0.00     0.169 HD
BRANCH  21  24
ATOM     24  C   UNL d   1      31.498 -14.980   0.005  0.00  0.00     0.337 C 
BRANCH  24  25
ATOM     25  N   UNL d   1      32.194 -15.770   1.219  0.00  0.00    -0.063 N 
ATOM     26  C   UNL d   1      33.595 -15.271   1.452  0.00  0.00     0.235 C 
ATOM     27  C   UNL d   1      34.065 -15.683   2.841  0.00  0.00     0.028 C 
ATOM     28  C   UNL d   1      34.805 -17.025   2.875  0.00  0.00     0.002 C 
ATOM     29  C   UNL d   1      34.200 -18.128   2.026  0.00  0.00     0.002 C 
ATOM     30  C   UNL d   1      32.693 -18.132   2.143  0.00  0.00     0.028 C 
ATOM     31  C   UNL d   1      32.107 -17.277   1.059  0.00  0.00     0.235 C 
ATOM     32  H   UNL d   1      31.621 -15.559   2.044  0.00  0.00     0.280 HD
ENDBRANCH  24  25
ENDBRANCH  21  24
ENDBRANCH   4  20
TORSDOF 9
ENDMDL
MODEL 7
REMARK VINA RESULT:   -32.244      2.122      2.864
REMARK INTER + INTRA:         -36.140
REMARK INTER:                 -34.929
REMARK INTRA:                  -1.211
REMARK CONF_INDEPENDENT:        2.685
REMARK UNBOUND:                -1.211
REMARK  9 active torsions:
REMARK  status: ('A' for Active; 'I' for Inactive)
REMARK    1  A    between atoms: C_2  and  C_3 
REMARK    2  A    between atoms: C_3  and  C_4 
REMARK    3  A    between atoms: C_4  and  C_5 
REMARK    4  A    between atoms: C_9  and  C_8 
REMARK    5  A    between atoms: C_9  and  N_11 
REMARK    6  A    between atoms: N_11  and  C_12 
REMARK    7  A    between atoms: C_15  and  N_16 
REMARK       I    between atoms: N_16  and  C_17 
REMARK    8  A    between atoms: C_17  and  C_19 
REMARK    9  A    between atoms: C_19  and  N_20 
ROOT
ATOM      1  C   UNL d   1      25.355 -17.430  -0.787  0.00  0.00     0.028 A 
ATOM      2  C   UNL d   1      26.177 -18.415  -0.225  0.00  0.00     0.031 A 
ATOM      3  C   UNL d   1      27.482 -18.130   0.243  0.00  0.00     0.032 A 
ATOM      4  C   UNL d   1      28.017 -16.861   0.086  0.00  0.00     0.034 A 
ATOM      5  C   UNL d   1      27.160 -15.885  -0.420  0.00  0.00     0.032 A 
ATOM      6  C   UNL d   1      25.869 -16.159  -0.796  0.00  0.00     0.031 A 
ENDROOT
BRANCH   1   7
ATOM      7  N   UNL d   1      24.078 -17.718  -1.238  0.00  0.00    -0.378 N 
ATOM      8  H   UNL d   1      24.025 -18.591  -1.757  0.00  0.00     0.160 HD
BRANCH   7   9
ATOM      9  C   UNL d   1      22.858 -17.387  -0.441  0.00  0.00     0.157 C 
ATOM     10  C   UNL d   1      22.356 -16.012  -0.901  0.00  0.00     0.041 C 
BRANCH   9  11
ATOM     11  C   UNL d   1      21.656 -18.294  -0.448  0.00  0.00     0.195 A 
ATOM     12  O   UNL d   1      20.567 -17.909  -1.191  0.00  0.00    -0.194 OA
ATOM     13  N   UNL d   1      19.543 -18.824  -0.895  0.00  0.00    -0.111 NA
ATOM     14  C   UNL d   1      20.162 -19.712  -0.107  0.00  0.00     0.156 A 
ATOM     15  N   UNL d   1      21.454 -19.409   0.218  0.00  0.00    -0.207 NA
BRANCH  14  16
ATOM     16  C   UNL d   1      19.595 -21.034   0.230  0.00  0.00     0.083 C 
BRANCH  16  17
ATOM     17  C   UNL d   1      18.231 -20.830   0.888  0.00  0.00     0.007 C 
BRANCH  17  18
ATOM     18  C   UNL d   1      18.360 -20.127   2.229  0.00  0.00    -0.004 C 
ATOM     19  C   UNL d   1      19.697 -20.451   2.868  0.00  0.00     0.005 C 
ENDBRANCH  17  18
ENDBRANCH  16  17
ENDBRANCH  14  16
ENDBRANCH   9  11
ENDBRANCH   7   9
ENDBRANCH   1   7
BRANCH   4  20
ATOM     20  N   UNL d   1      29.380 -16.594   0.423  0.00  0.00    -0.326 N 
ATOM     21  C   UNL d   1      30.378 -16.897  -0.456  0.00  0.00     0.248 C 
ATOM     22  O   UNL d   1      30.094 -17.370  -1.557  0.00  0.00    -0.271 OA
ATOM     23  H   UNL d   1      29.575 -16.249   1.355  0.00  0.00     0.169 HD
BRANCH  21  24
ATOM     24  C   UNL d   1      31.856 -16.671  -0.146  0.00  0.00     0.337 C 
BRANCH  24  25
ATOM     25  N   UNL d   1      32.139 -15.817   1.184  0.00  0.00    -0.063 N 
ATOM     26  C   UNL d   1      31.306 -14.562   1.204  0.00  0.00     0.235 C 
ATOM     27  C   UNL d   1      31.237 -14.013   2.624  0.00  0.00     0.028 C 
ATOM     28  C   UNL d   1      32.332 -12.990   2.948  0.00  0.00     0.002 C 
ATOM     29  C   UNL d   1      33.720 -13.333   2.438  0.00  0.00     0.002 C 
ATOM     30  C   UNL d   1      34.020 -14.801   2.638  0.00  0.00     0.028 C 
ATOM     31  C   UNL d   1      33.618 -15.564   1.411  0.00  0.00     0.235 C 
ATOM     32  H   UNL d   1      31.853 -16.422   1.963  0.00  0.00     0.280 HD
ENDBRANCH  24  25
ENDBRANCH  21  24
ENDBRANCH   4  20
TORSDOF 9
ENDMDL
MODEL 8
REMARK VINA RESULT:   -31.471      3.523      5.449
REMARK INTER + INTRA:         -35.555
REMARK INTER:                 -34.155
REMARK INTRA:                  -1.400
REMARK CONF_INDEPENDENT:        2.685
REMARK UNBOUND:                -1.400
REMARK  9 active torsions:
REMARK  status: ('A' for Active; 'I' for Inactive)
REMARK    1  A    between atoms: C_2  and  C_3 
REMARK    2  A    between atoms: C_3  and  C_4 
REMARK    3  A    between atoms: C_4  and  C_5 
REMARK    4  A    between atoms: C_9  and  C_8 
REMARK    5  A    between atoms: C_9  and  N_11 
REMARK    6  A    between atoms: N_11  and  C_12 
REMARK    7  A    between atoms: C_15  and  N_16 
REMARK       I    between atoms: N_16  and  C_17 
REMARK    8  A    between atoms: C_17  and  C_19 
REMARK    9  A    between atoms: C_19  and  N_20 
ROOT
ATOM      1  C   UNL d   1      25.271 -17.417  -0.935  0.00  0.00     0.028 A 
ATOM      2  C   UNL d   1      25.812 -17.976   0.229  0.00  0.00     0.031 A 
ATOM      3  C   UNL d   1      27.132 -17.692   0.659  0.00  0.00     0.032 A 
ATOM      4  C   UNL d   1      27.961 -16.898  -0.119  0.00  0.00     0.034 A 
ATOM      5  C   UNL d   1      27.382 -16.307  -1.239  0.00  0.00     0.032 A 
ATOM      6  C   UNL d   1      26.076 -16.528  -1.600  0.00  0.00     0.031 A 
ENDROOT
BRANCH   1   7
ATOM      7  N   UNL d   1      23.978 -17.698  -1.344  0.00  0.00    -0.378 N 
ATOM      8  H   UNL d   1      23.916 -18.524  -1.935  0.00  0.00     0.160 HD
BRANCH   7   9
ATOM      9  C   UNL d   1      22.796 -17.470  -0.459  0.00  0.00     0.157 C 
ATOM     10  C   UNL d   1      22.227 -16.082  -0.785  0.00  0.00     0.041 C 
BRANCH   9  11
ATOM     11  C   UNL d   1      21.624 -18.415  -0.470  0.00  0.00     0.195 A 
ATOM     12  O   UNL d   1      20.539 -18.082  -1.244  0.00  0.00    -0.194 OA
ATOM     13  N   UNL d   1      19.539 -19.022  -0.948  0.00  0.00    -0.111 NA
ATOM     14  C   UNL d   1      20.168 -19.872  -0.127  0.00  0.00     0.156 A 
ATOM     15  N   UNL d   1      21.443 -19.521   0.217  0.00  0.00    -0.207 NA
BRANCH  14  16
ATOM     16  C   UNL d   1      19.637 -21.203   0.229  0.00  0.00     0.083 C 
BRANCH  16  17
ATOM     17  C   UNL d   1      18.402 -21.020   1.110  0.00  0.00     0.007 C 
BRANCH  17  18
ATOM     18  C   UNL d   1      18.653 -20.007   2.215  0.00  0.00    -0.004 C 
ATOM     19  C   UNL d   1      19.820 -20.448   3.079  0.00  0.00     0.005 C 
ENDBRANCH  17  18
ENDBRANCH  16  17
ENDBRANCH  14  16
ENDBRANCH   9  11
ENDBRANCH   7   9
ENDBRANCH   1   7
BRANCH   4  20
ATOM     20  N   UNL d   1      29.336 -16.718   0.227  0.00  0.00    -0.326 N 
ATOM     21  C   UNL d   1      30.317 -17.265  -0.547  0.00  0.00     0.248 C 
ATOM     22  O   UNL d   1      30.011 -17.885  -1.566  0.00  0.00    -0.271 OA
ATOM     23  H   UNL d   1      29.543 -16.243   1.097  0.00  0.00     0.169 HD
BRANCH  21  24
ATOM     24  C   UNL d   1      31.802 -17.141  -0.216  0.00  0.00     0.337 C 
BRANCH  24  25
ATOM     25  N   UNL d   1      32.772 -18.022  -1.145  0.00  0.00    -0.063 N 
ATOM     26  C   UNL d   1      32.639 -17.624  -2.591  0.00  0.00     0.235 C 
ATOM     27  C   UNL d   1      33.846 -18.121  -3.376  0.00  0.00     0.028 C 
ATOM     28  C   UNL d   1      33.654 -19.508  -4.000  0.00  0.00     0.002 C 
ATOM     29  C   UNL d   1      32.971 -20.535  -3.116  0.00  0.00     0.002 C 
ATOM     30  C   UNL d   1      33.480 -20.447  -1.695  0.00  0.00     0.028 C 
ATOM     31  C   UNL d   1      32.608 -19.513  -0.910  0.00  0.00     0.235 C 
ATOM     32  H   UNL d   1      33.724 -17.808  -0.824  0.00  0.00     0.280 HD
ENDBRANCH  24  25
ENDBRANCH  21  24
ENDBRANCH   4  20
TORSDOF 9
ENDMDL
MODEL 9
REMARK VINA RESULT:   -31.327      3.786      6.361
REMARK INTER + INTRA:         -35.364
REMARK INTER:                 -34.012
REMARK INTRA:                  -1.353
REMARK CONF_INDEPENDENT:        2.685
REMARK UNBOUND:                -1.353
REMARK  9 active torsions:
REMARK  status: ('A' for Active; 'I' for Inactive)
REMARK    1  A    between atoms: C_2  and  C_3 
REMARK    2  A    between atoms: C_3  and  C_4 
REMARK    3  A    between atoms: C_4  and  C_5 
REMARK    4  A    between atoms: C_9  and  C_8 
REMARK    5  A    between atoms: C_9  and  N_11 
REMARK    6  A    between atoms: N_11  and  C_12 
REMARK    7  A    between atoms: C_15  and  N_16 
REMARK       I    between atoms: N_16  and  C_17 
REMARK    8  A    between atoms: C_17  and  C_19 
REMARK    9  A    between atoms: C_19  and  N_20 
ROOT
ATOM      1  C   UNL d   1      25.364 -17.532   0.105  0.00  0.00     0.028 A 
ATOM      2  C   UNL d   1      26.416 -18.371   0.494  0.00  0.00     0.031 A 
ATOM      3  C   UNL d   1      27.770 -18.058   0.223  0.00  0.00     0.032 A 
ATOM      4  C   UNL d   1      28.089 -16.929  -0.515  0.00  0.00     0.034 A 
ATOM      5  C   UNL d   1      27.032 -16.081  -0.839  0.00  0.00     0.032 A 
ATOM      6  C   UNL d   1      25.731 -16.358  -0.499  0.00  0.00     0.031 A 
ENDROOT
BRANCH   1   7
ATOM      7  N   UNL d   1      24.044 -17.846   0.379  0.00  0.00    -0.378 N 
ATOM      8  H   UNL d   1      23.752 -17.566   1.312  0.00  0.00     0.160 HD
BRANCH   7   9
ATOM      9  C   UNL d   1      22.975 -17.769  -0.662  0.00  0.00     0.157 C 
ATOM     10  C   UNL d   1      23.594 -18.188  -2.003  0.00  0.00     0.041 C 
BRANCH   9  11
ATOM     11  C   UNL d   1      21.700 -18.560  -0.526  0.00  0.00     0.195 A 
ATOM     12  O   UNL d   1      20.643 -18.215  -1.333  0.00  0.00    -0.194 OA
ATOM     13  N   UNL d   1      19.547 -18.977  -0.896  0.00  0.00    -0.111 NA
ATOM     14  C   UNL d   1      20.093 -19.769   0.036  0.00  0.00     0.156 A 
ATOM     15  N   UNL d   1      21.408 -19.526   0.315  0.00  0.00    -0.207 NA
BRANCH  14  16
ATOM     16  C   UNL d   1      19.419 -20.962   0.585  0.00  0.00     0.083 C 
BRANCH  16  17
ATOM     17  C   UNL d   1      18.847 -20.615   1.959  0.00  0.00     0.007 C 
BRANCH  17  18
ATOM     18  C   UNL d   1      19.923 -20.082   2.890  0.00  0.00    -0.004 C 
ATOM     19  C   UNL d   1      19.892 -20.826   4.213  0.00  0.00     0.005 C 
ENDBRANCH  17  18
ENDBRANCH  16  17
ENDBRANCH  14  16
ENDBRANCH   9  11
ENDBRANCH   7   9
ENDBRANCH   1   7
BRANCH   4  20
ATOM     20  N   UNL d   1      29.436 -16.675  -0.919  0.00  0.00    -0.326 N 
ATOM     21  C   UNL d   1      29.844 -16.977  -2.184  0.00  0.00     0.248 C 
ATOM     22  O   UNL d   1      29.033 -17.438  -2.989  0.00  0.00    -0.271 OA
ATOM     23  H   UNL d   1      30.082 -16.340  -0.214  0.00  0.00     0.169 HD
BRANCH  21  24
ATOM     24  C   UNL d   1      31.276 -16.765  -2.669  0.00  0.00     0.337 C 
BRANCH  24  25
ATOM     25  N   UNL d   1      31.577 -17.331  -4.142  0.00  0.00    -0.063 N 
ATOM     26  C   UNL d   1      30.775 -16.587  -5.177  0.00  0.00     0.235 C 
ATOM     27  C   UNL d   1      31.385 -16.806  -6.556  0.00  0.00     0.028 C 
ATOM     28  C   UNL d   1      30.792 -17.998  -7.316  0.00  0.00     0.002 C 
ATOM     29  C   UNL d   1      30.556 -19.250  -6.490  0.00  0.00     0.002 C 
ATOM     30  C   UNL d   1      31.711 -19.497  -5.546  0.00  0.00     0.028 C 
ATOM     31  C   UNL d   1      31.427 -18.838  -4.229  0.00  0.00     0.235 C 
ATOM     32  H   UNL d   1      32.576 -17.155  -4.302  0.00  0.00     0.280 HD
ENDBRANCH  24  25
ENDBRANCH  21  24
ENDBRANCH   4  20
TORSDOF 9
ENDMDL
