MODEL 1
REMARK VINA RESULT:    -7.362      0.000      0.000
REMARK INTER + INTRA:         -10.429
REMARK INTER:                  -8.854
REMARK INTRA:                  -1.575
REMARK CONF_INDEPENDENT:        1.492
REMARK UNBOUND:                -1.575
REMARK  5 active torsions:
REMARK  status: ('A' for Active; 'I' for Inactive)
REMARK       I    between atoms: C_2  and  N_3 
REMARK    1  A    between atoms: C_2  and  C_14 
REMARK    2  A    between atoms: N_3  and  N_4 
REMARK    3  A    between atoms: C_5  and  C_6 
REMARK    4  A    between atoms: C_9  and  O_10 
REMARK    5  A    between atoms: C_11  and  O_12 
ROOT
ATOM      1  N   UNL d   1      22.479 -19.169  -1.024  0.00  0.00    -0.183 NA
ATOM      2  C   UNL d   1      21.631 -18.592  -0.228  0.00  0.00     0.150 C 
ENDROOT
BRANCH   1   3
ATOM      3  N   UNL d   1      23.479 -18.389  -1.577  0.00  0.00    -0.243 N 
ATOM      4  C   UNL d   1      24.460 -17.832  -0.748  0.00  0.00     0.271 C 
ATOM      5  O   UNL d   1      24.537 -17.998   0.471  0.00  0.00    -0.266 OA
ATOM      6  H   UNL d   1      23.545 -18.312  -2.586  0.00  0.00     0.192 HD
BRANCH   4   7
ATOM      7  C   UNL d   1      25.500 -16.979  -1.409  0.00  0.00     0.033 A 
ATOM      8  C   UNL d   1      25.177 -16.205  -2.541  0.00  0.00     0.019 A 
ATOM      9  C   UNL d   1      26.153 -15.413  -3.170  0.00  0.00     0.025 A 
ATOM     10  C   UNL d   1      27.459 -15.412  -2.685  0.00  0.00     0.034 A 
ATOM     11 CL   UNL d   1      28.663 -14.442  -3.441  0.00  0.00    -0.084 Cl
ATOM     12  C   UNL d   1      27.798 -16.202  -1.586  0.00  0.00     0.025 A 
ATOM     13  C   UNL d   1      26.824 -16.989  -0.955  0.00  0.00     0.019 A 
ENDBRANCH   4   7
ENDBRANCH   1   3
BRANCH   2  14
ATOM     14  C   UNL d   1      20.470 -19.331   0.347  0.00  0.00    -0.014 A 
ATOM     15  C   UNL d   1      20.404 -19.668   1.707  0.00  0.00     0.016 A 
ATOM     16  C   UNL d   1      19.333 -20.440   2.198  0.00  0.00     0.040 A 
ATOM     17  C   UNL d   1      18.340 -20.872   1.324  0.00  0.00     0.098 A 
ATOM     18  C   UNL d   1      18.396 -20.509  -0.021  0.00  0.00     0.099 A 
ATOM     19  C   UNL d   1      19.444 -19.734  -0.515  0.00  0.00     0.052 A 
BRANCH  17  20
ATOM     20  O   UNL d   1      17.294 -21.655   1.730  0.00  0.00    -0.358 OA
ATOM     21  H   UNL d   1      16.913 -22.103   0.953  0.00  0.00     0.217 HD
ENDBRANCH  17  20
BRANCH  18  22
ATOM     22  O   UNL d   1      17.426 -20.924  -0.892  0.00  0.00    -0.358 OA
ATOM     23  H   UNL d   1      16.998 -21.689  -0.463  0.00  0.00     0.217 HD
ENDBRANCH  18  22
ENDBRANCH   2  14
TORSDOF 5
ENDMDL
MODEL 2
REMARK VINA RESULT:    -7.157      3.931      9.071
REMARK INTER + INTRA:          -9.728
REMARK INTER:                  -8.648
REMARK INTRA:                  -1.080
REMARK CONF_INDEPENDENT:        1.492
REMARK UNBOUND:                -1.080
REMARK  5 active torsions:
REMARK  status: ('A' for Active; 'I' for Inactive)
REMARK       I    between atoms: C_2  and  N_3 
REMARK    1  A    between atoms: C_2  and  C_14 
REMARK    2  A    between atoms: N_3  and  N_4 
REMARK    3  A    between atoms: C_5  and  C_6 
REMARK    4  A    between atoms: C_9  and  O_10 
REMARK    5  A    between atoms: C_11  and  O_12 
ROOT
ATOM      1  N   UNL d   1      24.431 -17.625  -1.015  0.00  0.00    -0.183 NA
ATOM      2  C   UNL d   1      25.565 -17.758  -0.397  0.00  0.00     0.150 C 
ENDROOT
BRANCH   1   3
ATOM      3  N   UNL d   1      23.376 -18.422  -0.605  0.00  0.00    -0.243 N 
ATOM      4  C   UNL d   1      22.082 -17.888  -0.564  0.00  0.00     0.271 C 
ATOM      5  O   UNL d   1      21.777 -16.740  -0.896  0.00  0.00    -0.266 OA
ATOM      6  H   UNL d   1      23.538 -19.408  -0.436  0.00  0.00     0.192 HD
BRANCH   4   7
ATOM      7  C   UNL d   1      20.989 -18.798  -0.090  0.00  0.00     0.033 A 
ATOM      8  C   UNL d   1      21.004 -19.309   1.222  0.00  0.00     0.019 A 
ATOM      9  C   UNL d   1      19.987 -20.172   1.666  0.00  0.00     0.025 A 
ATOM     10  C   UNL d   1      18.968 -20.545   0.792  0.00  0.00     0.034 A 
ATOM     11 CL   UNL d   1      17.713 -21.596   1.325  0.00  0.00    -0.084 Cl
ATOM     12  C   UNL d   1      18.963 -20.072  -0.520  0.00  0.00     0.025 A 
ATOM     13  C   UNL d   1      19.975 -19.208  -0.963  0.00  0.00     0.019 A 
ENDBRANCH   4   7
ENDBRANCH   1   3
BRANCH   2  14
ATOM     14  C   UNL d   1      26.780 -17.006  -0.823  0.00  0.00    -0.014 A 
ATOM     15  C   UNL d   1      26.795 -16.212  -1.979  0.00  0.00     0.016 A 
ATOM     16  C   UNL d   1      27.985 -15.584  -2.397  0.00  0.00     0.040 A 
ATOM     17  C   UNL d   1      29.151 -15.759  -1.657  0.00  0.00     0.098 A 
ATOM     18  C   UNL d   1      29.122 -16.525  -0.493  0.00  0.00     0.099 A 
ATOM     19  C   UNL d   1      27.948 -17.140  -0.063  0.00  0.00     0.052 A 
BRANCH  17  20
ATOM     20  O   UNL d   1      30.346 -15.208  -2.029  0.00  0.00    -0.358 OA
ATOM     21  H   UNL d   1      31.006 -15.384  -1.334  0.00  0.00     0.217 HD
ENDBRANCH  17  20
BRANCH  18  22
ATOM     22  O   UNL d   1      30.259 -16.706   0.247  0.00  0.00    -0.358 OA
ATOM     23  H   UNL d   1      29.957 -16.822   1.169  0.00  0.00     0.217 HD
ENDBRANCH  18  22
ENDBRANCH   2  14
TORSDOF 5
ENDMDL
MODEL 3
REMARK VINA RESULT:    -7.030      0.763      1.541
REMARK INTER + INTRA:          -9.637
REMARK INTER:                  -8.522
REMARK INTRA:                  -1.115
REMARK CONF_INDEPENDENT:        1.492
REMARK UNBOUND:                -1.115
REMARK  5 active torsions:
REMARK  status: ('A' for Active; 'I' for Inactive)
REMARK       I    between atoms: C_2  and  N_3 
REMARK    1  A    between atoms: C_2  and  C_14 
REMARK    2  A    between atoms: N_3  and  N_4 
REMARK    3  A    between atoms: C_5  and  C_6 
REMARK    4  A    between atoms: C_9  and  O_10 
REMARK    5  A    between atoms: C_11  and  O_12 
ROOT
ATOM      1  N   UNL d   1      22.775 -18.893  -0.960  0.00  0.00    -0.183 NA
ATOM      2  C   UNL d   1      21.611 -18.411  -0.644  0.00  0.00     0.150 C 
ENDROOT
BRANCH   1   3
ATOM      3  N   UNL d   1      23.702 -18.028  -1.514  0.00  0.00    -0.243 N 
ATOM      4  C   UNL d   1      24.834 -17.662  -0.775  0.00  0.00     0.271 C 
ATOM      5  O   UNL d   1      25.107 -18.072   0.355  0.00  0.00    -0.266 OA
ATOM      6  H   UNL d   1      23.601 -17.749  -2.483  0.00  0.00     0.192 HD
BRANCH   4   7
ATOM      7  C   UNL d   1      25.786 -16.704  -1.426  0.00  0.00     0.033 A 
ATOM      8  C   UNL d   1      25.341 -15.825  -2.432  0.00  0.00     0.019 A 
ATOM      9  C   UNL d   1      26.234 -14.934  -3.051  0.00  0.00     0.025 A 
ATOM     10  C   UNL d   1      27.578 -14.938  -2.685  0.00  0.00     0.034 A 
ATOM     11 CL   UNL d   1      28.682 -13.848  -3.432  0.00  0.00    -0.084 Cl
ATOM     12  C   UNL d   1      28.037 -15.829  -1.715  0.00  0.00     0.025 A 
ATOM     13  C   UNL d   1      27.146 -16.715  -1.093  0.00  0.00     0.019 A 
ENDBRANCH   4   7
ENDBRANCH   1   3
BRANCH   2  14
ATOM     14  C   UNL d   1      20.520 -19.283  -0.122  0.00  0.00    -0.014 A 
ATOM     15  C   UNL d   1      19.450 -19.697  -0.929  0.00  0.00     0.016 A 
ATOM     16  C   UNL d   1      18.393 -20.450  -0.380  0.00  0.00     0.040 A 
ATOM     17  C   UNL d   1      18.415 -20.779   0.973  0.00  0.00     0.098 A 
ATOM     18  C   UNL d   1      19.496 -20.389   1.762  0.00  0.00     0.099 A 
ATOM     19  C   UNL d   1      20.552 -19.656   1.227  0.00  0.00     0.052 A 
BRANCH  17  20
ATOM     20  O   UNL d   1      17.403 -21.475   1.575  0.00  0.00    -0.358 OA
ATOM     21  H   UNL d   1      17.046 -22.126   0.944  0.00  0.00     0.217 HD
ENDBRANCH  17  20
BRANCH  18  22
ATOM     22  O   UNL d   1      19.532 -20.706   3.093  0.00  0.00    -0.358 OA
ATOM     23  H   UNL d   1      18.800 -21.337   3.233  0.00  0.00     0.217 HD
ENDBRANCH  18  22
ENDBRANCH   2  14
TORSDOF 5
ENDMDL
MODEL 4
REMARK VINA RESULT:    -7.005      4.138      8.902
REMARK INTER + INTRA:         -10.001
REMARK INTER:                  -8.497
REMARK INTRA:                  -1.504
REMARK CONF_INDEPENDENT:        1.492
REMARK UNBOUND:                -1.504
REMARK  5 active torsions:
REMARK  status: ('A' for Active; 'I' for Inactive)
REMARK       I    between atoms: C_2  and  N_3 
REMARK    1  A    between atoms: C_2  and  C_14 
REMARK    2  A    between atoms: N_3  and  N_4 
REMARK    3  A    between atoms: C_5  and  C_6 
REMARK    4  A    between atoms: C_9  and  O_10 
REMARK    5  A    between atoms: C_11  and  O_12 
ROOT
ATOM      1  N   UNL d   1      24.298 -16.281  -0.734  0.00  0.00    -0.183 NA
ATOM      2  C   UNL d   1      24.388 -16.126  -2.020  0.00  0.00     0.150 C 
ENDROOT
BRANCH   1   3
ATOM      3  N   UNL d   1      23.215 -16.990  -0.244  0.00  0.00    -0.243 N 
ATOM      4  C   UNL d   1      22.737 -18.099  -0.954  0.00  0.00     0.271 C 
ATOM      5  O   UNL d   1      23.222 -18.536  -1.999  0.00  0.00    -0.266 OA
ATOM      6  H   UNL d   1      22.846 -16.759   0.671  0.00  0.00     0.192 HD
BRANCH   4   7
ATOM      7  C   UNL d   1      21.548 -18.808  -0.379  0.00  0.00     0.033 A 
ATOM      8  C   UNL d   1      21.405 -18.950   1.015  0.00  0.00     0.019 A 
ATOM      9  C   UNL d   1      20.296 -19.624   1.556  0.00  0.00     0.025 A 
ATOM     10  C   UNL d   1      19.343 -20.179   0.705  0.00  0.00     0.034 A 
ATOM     11 CL   UNL d   1      17.977 -21.002   1.354  0.00  0.00    -0.084 Cl
ATOM     12  C   UNL d   1      19.493 -20.074  -0.678  0.00  0.00     0.025 A 
ATOM     13  C   UNL d   1      20.596 -19.398  -1.219  0.00  0.00     0.019 A 
ENDBRANCH   4   7
ENDBRANCH   1   3
BRANCH   2  14
ATOM     14  C   UNL d   1      25.471 -15.305  -2.634  0.00  0.00    -0.014 A 
ATOM     15  C   UNL d   1      26.029 -14.198  -1.976  0.00  0.00     0.016 A 
ATOM     16  C   UNL d   1      26.990 -13.396  -2.621  0.00  0.00     0.040 A 
ATOM     17  C   UNL d   1      27.382 -13.704  -3.921  0.00  0.00     0.098 A 
ATOM     18  C   UNL d   1      26.846 -14.823  -4.558  0.00  0.00     0.099 A 
ATOM     19  C   UNL d   1      25.905 -15.631  -3.925  0.00  0.00     0.052 A 
BRANCH  17  20
ATOM     20  O   UNL d   1      28.283 -12.944  -4.616  0.00  0.00    -0.358 OA
ATOM     21  H   UNL d   1      28.274 -13.219  -5.551  0.00  0.00     0.217 HD
ENDBRANCH  17  20
BRANCH  18  22
ATOM     22  O   UNL d   1      27.223 -15.140  -5.834  0.00  0.00    -0.358 OA
ATOM     23  H   UNL d   1      28.070 -14.675  -5.981  0.00  0.00     0.217 HD
ENDBRANCH  18  22
ENDBRANCH   2  14
TORSDOF 5
ENDMDL
MODEL 5
REMARK VINA RESULT:    -6.571      3.949      8.738
REMARK INTER + INTRA:          -9.635
REMARK INTER:                  -8.062
REMARK INTRA:                  -1.573
REMARK CONF_INDEPENDENT:        1.492
REMARK UNBOUND:                -1.573
REMARK  5 active torsions:
REMARK  status: ('A' for Active; 'I' for Inactive)
REMARK       I    between atoms: C_2  and  N_3 
REMARK    1  A    between atoms: C_2  and  C_14 
REMARK    2  A    between atoms: N_3  and  N_4 
REMARK    3  A    between atoms: C_5  and  C_6 
REMARK    4  A    between atoms: C_9  and  O_10 
REMARK    5  A    between atoms: C_11  and  O_12 
ROOT
ATOM      1  N   UNL d   1      24.442 -17.593   0.059  0.00  0.00    -0.183 NA
ATOM      2  C   UNL d   1      24.665 -17.277  -1.180  0.00  0.00     0.150 C 
ENDROOT
BRANCH   1   3
ATOM      3  N   UNL d   1      23.340 -18.384   0.335  0.00  0.00    -0.243 N 
ATOM      4  C   UNL d   1      22.098 -18.057  -0.221  0.00  0.00     0.271 C 
ATOM      5  O   UNL d   1      21.888 -17.111  -0.983  0.00  0.00    -0.266 OA
ATOM      6  H   UNL d   1      23.468 -19.245   0.855  0.00  0.00     0.192 HD
BRANCH   4   7
ATOM      7  C   UNL d   1      20.942 -18.943   0.137  0.00  0.00     0.033 A 
ATOM      8  C   UNL d   1      20.021 -19.348  -0.847  0.00  0.00     0.019 A 
ATOM      9  C   UNL d   1      18.930 -20.170  -0.512  0.00  0.00     0.025 A 
ATOM     10  C   UNL d   1      18.745 -20.565   0.811  0.00  0.00     0.034 A 
ATOM     11 CL   UNL d   1      17.417 -21.576   1.235  0.00  0.00    -0.084 Cl
ATOM     12  C   UNL d   1      19.632 -20.140   1.800  0.00  0.00     0.025 A 
ATOM     13  C   UNL d   1      20.723 -19.325   1.466  0.00  0.00     0.019 A 
ENDBRANCH   4   7
ENDBRANCH   1   3
BRANCH   2  14
ATOM     14  C   UNL d   1      25.776 -16.359  -1.565  0.00  0.00    -0.014 A 
ATOM     15  C   UNL d   1      27.079 -16.523  -1.073  0.00  0.00     0.016 A 
ATOM     16  C   UNL d   1      28.084 -15.589  -1.391  0.00  0.00     0.040 A 
ATOM     17  C   UNL d   1      27.775 -14.495  -2.195  0.00  0.00     0.098 A 
ATOM     18  C   UNL d   1      26.485 -14.354  -2.705  0.00  0.00     0.099 A 
ATOM     19  C   UNL d   1      25.487 -15.280  -2.408  0.00  0.00     0.052 A 
BRANCH  17  20
ATOM     20  O   UNL d   1      28.695 -13.533  -2.510  0.00  0.00    -0.358 OA
ATOM     21  H   UNL d   1      28.226 -12.725  -2.787  0.00  0.00     0.217 HD
ENDBRANCH  17  20
BRANCH  18  22
ATOM     22  O   UNL d   1      26.167 -13.286  -3.499  0.00  0.00    -0.358 OA
ATOM     23  H   UNL d   1      27.017 -12.855  -3.714  0.00  0.00     0.217 HD
ENDBRANCH  18  22
ENDBRANCH   2  14
TORSDOF 5
ENDMDL
MODEL 6
REMARK VINA RESULT:    -6.357      7.088      8.946
REMARK INTER + INTRA:          -9.334
REMARK INTER:                  -7.849
REMARK INTRA:                  -1.486
REMARK CONF_INDEPENDENT:        1.492
REMARK UNBOUND:                -1.486
REMARK  5 active torsions:
REMARK  status: ('A' for Active; 'I' for Inactive)
REMARK       I    between atoms: C_2  and  N_3 
REMARK    1  A    between atoms: C_2  and  C_14 
REMARK    2  A    between atoms: N_3  and  N_4 
REMARK    3  A    between atoms: C_5  and  C_6 
REMARK    4  A    between atoms: C_9  and  O_10 
REMARK    5  A    between atoms: C_11  and  O_12 
ROOT
ATOM      1  N   UNL d   1      27.941 -14.492   0.595  0.00  0.00    -0.183 NA
ATOM      2  C   UNL d   1      26.771 -14.974   0.304  0.00  0.00     0.150 C 
ENDROOT
BRANCH   1   3
ATOM      3  N   UNL d   1      28.348 -14.539   1.917  0.00  0.00    -0.243 N 
ATOM      4  C   UNL d   1      27.712 -13.728   2.865  0.00  0.00     0.271 C 
ATOM      5  O   UNL d   1      26.771 -12.967   2.631  0.00  0.00    -0.266 OA
ATOM      6  H   UNL d   1      29.033 -15.231   2.199  0.00  0.00     0.192 HD
BRANCH   4   7
ATOM      7  C   UNL d   1      28.217 -13.812   4.274  0.00  0.00     0.033 A 
ATOM      8  C   UNL d   1      27.778 -12.894   5.247  0.00  0.00     0.019 A 
ATOM      9  C   UNL d   1      28.258 -12.963   6.566  0.00  0.00     0.025 A 
ATOM     10  C   UNL d   1      29.197 -13.933   6.909  0.00  0.00     0.034 A 
ATOM     11 CL   UNL d   1      29.790 -14.033   8.522  0.00  0.00    -0.084 Cl
ATOM     12  C   UNL d   1      29.666 -14.825   5.944  0.00  0.00     0.025 A 
ATOM     13  C   UNL d   1      29.184 -14.760   4.629  0.00  0.00     0.019 A 
ENDBRANCH   4   7
ENDBRANCH   1   3
BRANCH   2  14
ATOM     14  C   UNL d   1      26.212 -14.890  -1.076  0.00  0.00    -0.014 A 
ATOM     15  C   UNL d   1      25.978 -16.034  -1.854  0.00  0.00     0.016 A 
ATOM     16  C   UNL d   1      25.529 -15.912  -3.183  0.00  0.00     0.040 A 
ATOM     17  C   UNL d   1      25.323 -14.646  -3.725  0.00  0.00     0.098 A 
ATOM     18  C   UNL d   1      25.529 -13.515  -2.938  0.00  0.00     0.099 A 
ATOM     19  C   UNL d   1      25.960 -13.624  -1.617  0.00  0.00     0.052 A 
BRANCH  17  20
ATOM     20  O   UNL d   1      24.924 -14.459  -5.020  0.00  0.00    -0.358 OA
ATOM     21  H   UNL d   1      24.359 -13.666  -5.066  0.00  0.00     0.217 HD
ENDBRANCH  17  20
BRANCH  18  22
ATOM     22  O   UNL d   1      25.329 -12.264  -3.455  0.00  0.00    -0.358 OA
ATOM     23  H   UNL d   1      24.780 -12.395  -4.253  0.00  0.00     0.217 HD
ENDBRANCH  18  22
ENDBRANCH   2  14
TORSDOF 5
ENDMDL
MODEL 7
REMARK VINA RESULT:    -6.284      5.141      9.833
REMARK INTER + INTRA:          -9.317
REMARK INTER:                  -7.776
REMARK INTRA:                  -1.542
REMARK CONF_INDEPENDENT:        1.492
REMARK UNBOUND:                -1.542
REMARK  5 active torsions:
REMARK  status: ('A' for Active; 'I' for Inactive)
REMARK       I    between atoms: C_2  and  N_3 
REMARK    1  A    between atoms: C_2  and  C_14 
REMARK    2  A    between atoms: N_3  and  N_4 
REMARK    3  A    between atoms: C_5  and  C_6 
REMARK    4  A    between atoms: C_9  and  O_10 
REMARK    5  A    between atoms: C_11  and  O_12 
ROOT
ATOM      1  N   UNL d   1      27.389 -15.265   0.443  0.00  0.00    -0.183 NA
ATOM      2  C   UNL d   1      27.703 -14.872   1.640  0.00  0.00     0.150 C 
ENDROOT
BRANCH   1   3
ATOM      3  N   UNL d   1      26.109 -15.752   0.239  0.00  0.00    -0.243 N 
ATOM      4  C   UNL d   1      25.921 -17.115  -0.020  0.00  0.00     0.271 C 
ATOM      5  O   UNL d   1      26.818 -17.960  -0.059  0.00  0.00    -0.266 OA
ATOM      6  H   UNL d   1      25.317 -15.134   0.377  0.00  0.00     0.192 HD
BRANCH   4   7
ATOM      7  C   UNL d   1      24.512 -17.571  -0.254  0.00  0.00     0.033 A 
ATOM      8  C   UNL d   1      23.493 -16.636  -0.520  0.00  0.00     0.019 A 
ATOM      9  C   UNL d   1      22.170 -17.060  -0.729  0.00  0.00     0.025 A 
ATOM     10  C   UNL d   1      21.858 -18.416  -0.647  0.00  0.00     0.034 A 
ATOM     11 CL   UNL d   1      20.242 -18.949  -0.906  0.00  0.00    -0.084 Cl
ATOM     12  C   UNL d   1      22.853 -19.346  -0.349  0.00  0.00     0.025 A 
ATOM     13  C   UNL d   1      24.175 -18.925  -0.145  0.00  0.00     0.019 A 
ENDBRANCH   4   7
ENDBRANCH   1   3
BRANCH   2  14
ATOM     14  C   UNL d   1      29.082 -14.414   1.975  0.00  0.00    -0.014 A 
ATOM     15  C   UNL d   1      30.150 -14.554   1.077  0.00  0.00     0.016 A 
ATOM     16  C   UNL d   1      31.455 -14.187   1.459  0.00  0.00     0.040 A 
ATOM     17  C   UNL d   1      31.681 -13.687   2.739  0.00  0.00     0.098 A 
ATOM     18  C   UNL d   1      30.610 -13.523   3.616  0.00  0.00     0.099 A 
ATOM     19  C   UNL d   1      29.313 -13.870   3.244  0.00  0.00     0.052 A 
BRANCH  17  20
ATOM     20  O   UNL d   1      32.929 -13.348   3.185  0.00  0.00    -0.358 OA
ATOM     21  H   UNL d   1      32.923 -13.325   4.159  0.00  0.00     0.217 HD
ENDBRANCH  17  20
BRANCH  18  22
ATOM     22  O   UNL d   1      30.816 -13.031   4.877  0.00  0.00    -0.358 OA
ATOM     23  H   UNL d   1      31.772 -13.139   5.048  0.00  0.00     0.217 HD
ENDBRANCH  18  22
ENDBRANCH   2  14
TORSDOF 5
ENDMDL
MODEL 8
REMARK VINA RESULT:    -6.267      7.261      9.083
REMARK INTER + INTRA:          -9.341
REMARK INTER:                  -7.758
REMARK INTRA:                  -1.583
REMARK CONF_INDEPENDENT:        1.492
REMARK UNBOUND:                -1.583
REMARK  5 active torsions:
REMARK  status: ('A' for Active; 'I' for Inactive)
REMARK       I    between atoms: C_2  and  N_3 
REMARK    1  A    between atoms: C_2  and  C_14 
REMARK    2  A    between atoms: N_3  and  N_4 
REMARK    3  A    between atoms: C_5  and  C_6 
REMARK    4  A    between atoms: C_9  and  O_10 
REMARK    5  A    between atoms: C_11  and  O_12 
ROOT
ATOM      1  N   UNL d   1      28.579 -14.969   0.298  0.00  0.00    -0.183 NA
ATOM      2  C   UNL d   1      27.383 -15.072  -0.196  0.00  0.00     0.150 C 
ENDROOT
BRANCH   1   3
ATOM      3  N   UNL d   1      28.700 -14.792   1.665  0.00  0.00    -0.243 N 
ATOM      4  C   UNL d   1      27.912 -13.832   2.311  0.00  0.00     0.271 C 
ATOM      5  O   UNL d   1      27.070 -13.119   1.762  0.00  0.00    -0.266 OA
ATOM      6  H   UNL d   1      29.285 -15.428   2.196  0.00  0.00     0.192 HD
BRANCH   4   7
ATOM      7  C   UNL d   1      28.110 -13.677   3.789  0.00  0.00     0.033 A 
ATOM      8  C   UNL d   1      28.387 -14.799   4.594  0.00  0.00     0.019 A 
ATOM      9  C   UNL d   1      28.562 -14.658   5.982  0.00  0.00     0.025 A 
ATOM     10  C   UNL d   1      28.435 -13.402   6.570  0.00  0.00     0.034 A 
ATOM     11 CL   UNL d   1      28.652 -13.214   8.268  0.00  0.00    -0.084 Cl
ATOM     12  C   UNL d   1      28.126 -12.290   5.787  0.00  0.00     0.025 A 
ATOM     13  C   UNL d   1      27.956 -12.428   4.401  0.00  0.00     0.019 A 
ENDBRANCH   4   7
ENDBRANCH   1   3
BRANCH   2  14
ATOM     14  C   UNL d   1      27.150 -15.178  -1.665  0.00  0.00    -0.014 A 
ATOM     15  C   UNL d   1      28.163 -15.572  -2.551  0.00  0.00     0.016 A 
ATOM     16  C   UNL d   1      27.931 -15.579  -3.941  0.00  0.00     0.040 A 
ATOM     17  C   UNL d   1      26.688 -15.188  -4.431  0.00  0.00     0.098 A 
ATOM     18  C   UNL d   1      25.676 -14.827  -3.543  0.00  0.00     0.099 A 
ATOM     19  C   UNL d   1      25.891 -14.829  -2.167  0.00  0.00     0.052 A 
BRANCH  17  20
ATOM     20  O   UNL d   1      26.411 -15.137  -5.770  0.00  0.00    -0.358 OA
ATOM     21  H   UNL d   1      25.455 -14.990  -5.890  0.00  0.00     0.217 HD
ENDBRANCH  17  20
BRANCH  18  22
ATOM     22  O   UNL d   1      24.449 -14.442  -4.010  0.00  0.00    -0.358 OA
ATOM     23  H   UNL d   1      24.589 -14.195  -4.945  0.00  0.00     0.217 HD
ENDBRANCH  18  22
ENDBRANCH   2  14
TORSDOF 5
ENDMDL
MODEL 9
REMARK VINA RESULT:    -5.816      3.717      5.541
REMARK INTER + INTRA:          -8.928
REMARK INTER:                  -7.307
REMARK INTRA:                  -1.621
REMARK CONF_INDEPENDENT:        1.492
REMARK UNBOUND:                -1.621
REMARK  5 active torsions:
REMARK  status: ('A' for Active; 'I' for Inactive)
REMARK       I    between atoms: C_2  and  N_3 
REMARK    1  A    between atoms: C_2  and  C_14 
REMARK    2  A    between atoms: N_3  and  N_4 
REMARK    3  A    between atoms: C_5  and  C_6 
REMARK    4  A    between atoms: C_9  and  O_10 
REMARK    5  A    between atoms: C_11  and  O_12 
ROOT
ATOM      1  N   UNL d   1      24.863 -14.839  -3.231  0.00  0.00    -0.183 NA
ATOM      2  C   UNL d   1      25.152 -15.924  -2.579  0.00  0.00     0.150 C 
ENDROOT
BRANCH   1   3
ATOM      3  N   UNL d   1      25.885 -14.207  -3.917  0.00  0.00    -0.243 N 
ATOM      4  C   UNL d   1      26.483 -14.847  -5.010  0.00  0.00     0.271 C 
ATOM      5  O   UNL d   1      26.157 -15.951  -5.451  0.00  0.00    -0.266 OA
ATOM      6  H   UNL d   1      26.119 -13.249  -3.683  0.00  0.00     0.192 HD
BRANCH   4   7
ATOM      7  C   UNL d   1      27.599 -14.116  -5.694  0.00  0.00     0.033 A 
ATOM      8  C   UNL d   1      27.641 -12.708  -5.687  0.00  0.00     0.019 A 
ATOM      9  C   UNL d   1      28.680 -12.020  -6.337  0.00  0.00     0.025 A 
ATOM     10  C   UNL d   1      29.663 -12.736  -7.017  0.00  0.00     0.034 A 
ATOM     11 CL   UNL d   1      30.944 -11.906  -7.812  0.00  0.00    -0.084 Cl
ATOM     12  C   UNL d   1      29.611 -14.129  -7.059  0.00  0.00     0.025 A 
ATOM     13  C   UNL d   1      28.578 -14.817  -6.407  0.00  0.00     0.019 A 
ENDBRANCH   4   7
ENDBRANCH   1   3
BRANCH   2  14
ATOM     14  C   UNL d   1      24.138 -16.627  -1.741  0.00  0.00    -0.014 A 
ATOM     15  C   UNL d   1      23.048 -15.952  -1.173  0.00  0.00     0.016 A 
ATOM     16  C   UNL d   1      22.157 -16.630  -0.318  0.00  0.00     0.040 A 
ATOM     17  C   UNL d   1      22.368 -17.977  -0.035  0.00  0.00     0.098 A 
ATOM     18  C   UNL d   1      23.437 -18.649  -0.626  0.00  0.00     0.099 A 
ATOM     19  C   UNL d   1      24.316 -17.991  -1.484  0.00  0.00     0.052 A 
BRANCH  17  20
ATOM     20  O   UNL d   1      21.562 -18.683   0.816  0.00  0.00    -0.358 OA
ATOM     21  H   UNL d   1      21.931 -19.578   0.932  0.00  0.00     0.217 HD
ENDBRANCH  17  20
BRANCH  18  22
ATOM     22  O   UNL d   1      23.656 -19.973  -0.360  0.00  0.00    -0.358 OA
ATOM     23  H   UNL d   1      22.922 -20.249   0.223  0.00  0.00     0.217 HD
ENDBRANCH  18  22
ENDBRANCH   2  14
TORSDOF 5
ENDMDL
