MODEL 1
REMARK VINA RESULT:    -9.371      0.000      0.000
REMARK INTER + INTRA:         -12.293
REMARK INTER:                 -11.161
REMARK INTRA:                  -1.132
REMARK CONF_INDEPENDENT:        1.790
REMARK UNBOUND:                -1.132
REMARK  6 active torsions:
REMARK  status: ('A' for Active; 'I' for Inactive)
REMARK    1  A    between atoms: C_2  and  C_4 
REMARK    2  A    between atoms: C_7  and  C_8 
REMARK    3  A    between atoms: C_8  and  C_9 
REMARK    4  A    between atoms: C_9  and  N_10 
REMARK       I    between atoms: N_10  and  C_11 
REMARK       I    between atoms: C_11  and  N_13 
REMARK    5  A    between atoms: N_13  and  N_14 
REMARK       I    between atoms: N_14  and  C_15 
REMARK    6  A    between atoms: C_15  and  C_17 
ROOT
ATOM      1  N   UNL d   1      27.358 -16.469   0.790  0.00  0.00    -0.341 N 
ATOM      2  C   UNL d   1      27.420 -15.119   1.078  0.00  0.00     0.334 C 
ATOM      3  O   UNL d   1      27.001 -14.248   0.321  0.00  0.00    -0.246 OA
ATOM      4  N   UNL d   1      27.999 -14.831   2.307  0.00  0.00    -0.249 N 
ATOM      5  H   UNL d   1      27.736 -17.142   1.437  0.00  0.00     0.164 HD
ATOM      6  H   UNL d   1      28.347 -15.527   2.951  0.00  0.00     0.192 HD
ENDROOT
BRANCH   4   7
ATOM      7  N   UNL d   1      28.203 -13.480   2.659  0.00  0.00    -0.262 N 
ATOM      8  C   UNL d   1      27.865 -12.993   3.950  0.00  0.00     0.270 C 
ATOM      9  O   UNL d   1      27.388 -13.667   4.819  0.00  0.00    -0.266 OA
ATOM     10  H   UNL d   1      28.557 -12.893   1.906  0.00  0.00     0.190 HD
BRANCH   8  11
ATOM     11  C   UNL d   1      28.012 -11.487   4.077  0.00  0.00     0.036 C 
ATOM     12  C   UNL d   1      28.397 -10.640   5.139  0.00  0.00     0.020 C 
ATOM     13  C   UNL d   1      28.164  -9.158   5.075  0.00  0.00     0.040 C 
ATOM     14  C   UNL d   1      27.488  -8.589   3.957  0.00  0.00     0.102 C 
ATOM     15  C   UNL d   1      27.037  -9.576   3.151  0.00  0.00     0.103 C 
ATOM     16  O   UNL d   1      27.027  -7.341   3.487  0.00  0.00    -0.346 OA
ATOM     17  C   UNL d   1      27.392 -10.880   3.043  0.00  0.00     0.056 C 
ATOM     18  O   UNL d   1      25.738  -9.465   2.743  0.00  0.00    -0.346 OA
ATOM     19  C   UNL d   1      25.905  -8.766   1.557  0.00  0.00     0.202 C 
ATOM     20  C   UNL d   1      26.163  -7.365   2.102  0.00  0.00     0.202 C 
ENDBRANCH   8  11
ENDBRANCH   4   7
BRANCH   1  21
ATOM     21  C   UNL d   1      26.791 -16.927  -0.468  0.00  0.00     0.129 C 
BRANCH  21  22
ATOM     22  C   UNL d   1      25.465 -16.266  -0.891  0.00  0.00     0.058 C 
BRANCH  22  23
ATOM     23  C   UNL d   1      24.243 -17.135  -0.662  0.00  0.00    -0.057 A 
ATOM     24  C   UNL d   1      24.385 -18.471  -0.259  0.00  0.00     0.007 A 
ATOM     25  C   UNL d   1      23.270 -19.314  -0.172  0.00  0.00     0.008 A 
ATOM     26  C   UNL d   1      21.978 -18.805  -0.367  0.00  0.00    -0.055 A 
ATOM     27  C   UNL d   1      21.846 -17.475  -0.768  0.00  0.00     0.008 A 
ATOM     28  C   UNL d   1      22.953 -16.654  -0.899  0.00  0.00     0.007 A 
BRANCH  26  29
ATOM     29  C   UNL d   1      20.760 -19.638  -0.008  0.00  0.00     0.010 C 
ATOM     30  C   UNL d   1      20.389 -19.347   1.452  0.00  0.00     0.015 C 
ATOM     31  C   UNL d   1      19.544 -19.338  -0.895  0.00  0.00     0.015 C 
ENDBRANCH  26  29
ENDBRANCH  22  23
ENDBRANCH  21  22
ENDBRANCH   1  21
TORSDOF 6
ENDMDL
MODEL 2
REMARK VINA RESULT:    -9.315      4.079      6.096
REMARK INTER + INTRA:         -11.935
REMARK INTER:                 -11.105
REMARK INTRA:                  -0.829
REMARK CONF_INDEPENDENT:        1.790
REMARK UNBOUND:                -0.829
REMARK  6 active torsions:
REMARK  status: ('A' for Active; 'I' for Inactive)
REMARK    1  A    between atoms: C_2  and  C_4 
REMARK    2  A    between atoms: C_7  and  C_8 
REMARK    3  A    between atoms: C_8  and  C_9 
REMARK    4  A    between atoms: C_9  and  N_10 
REMARK       I    between atoms: N_10  and  C_11 
REMARK       I    between atoms: C_11  and  N_13 
REMARK    5  A    between atoms: N_13  and  N_14 
REMARK       I    between atoms: N_14  and  C_15 
REMARK    6  A    between atoms: C_15  and  C_17 
ROOT
ATOM      1  N   UNL d   1      28.673 -14.828   2.460  0.00  0.00    -0.341 N 
ATOM      2  C   UNL d   1      28.284 -14.469   3.736  0.00  0.00     0.334 C 
ATOM      3  O   UNL d   1      27.454 -13.594   3.967  0.00  0.00    -0.246 OA
ATOM      4  N   UNL d   1      28.916 -15.188   4.742  0.00  0.00    -0.249 N 
ATOM      5  H   UNL d   1      29.374 -15.538   2.326  0.00  0.00     0.164 HD
ATOM      6  H   UNL d   1      29.598 -15.915   4.580  0.00  0.00     0.192 HD
ENDROOT
BRANCH   4   7
ATOM      7  N   UNL d   1      28.667 -14.836   6.085  0.00  0.00    -0.262 N 
ATOM      8  C   UNL d   1      28.903 -13.518   6.559  0.00  0.00     0.270 C 
ATOM      9  O   UNL d   1      29.324 -12.624   5.880  0.00  0.00    -0.266 OA
ATOM     10  H   UNL d   1      28.361 -15.606   6.677  0.00  0.00     0.190 HD
BRANCH   8  11
ATOM     11  C   UNL d   1      28.726 -13.384   8.062  0.00  0.00     0.036 C 
ATOM     12  C   UNL d   1      28.366 -12.307   8.900  0.00  0.00     0.020 C 
ATOM     13  C   UNL d   1      28.561 -12.380  10.387  0.00  0.00     0.040 C 
ATOM     14  C   UNL d   1      29.175 -13.526  10.971  0.00  0.00     0.102 C 
ATOM     15  C   UNL d   1      29.615 -14.350   9.995  0.00  0.00     0.103 C 
ATOM     16  O   UNL d   1      29.586 -14.014  12.230  0.00  0.00    -0.346 OA
ATOM     17  C   UNL d   1      29.287 -14.443   8.683  0.00  0.00     0.056 C 
ATOM     18  O   UNL d   1      30.893 -14.813  10.136  0.00  0.00    -0.346 OA
ATOM     19  C   UNL d   1      30.659 -15.990  10.830  0.00  0.00     0.202 C 
ATOM     20  C   UNL d   1      30.391 -15.435  12.224  0.00  0.00     0.202 C 
ENDBRANCH   8  11
ENDBRANCH   4   7
BRANCH   1  21
ATOM     21  C   UNL d   1      28.109 -14.152   1.302  0.00  0.00     0.129 C 
BRANCH  21  22
ATOM     22  C   UNL d   1      28.183 -14.924  -0.030  0.00  0.00     0.058 C 
BRANCH  22  23
ATOM     23  C   UNL d   1      26.930 -15.717  -0.353  0.00  0.00    -0.057 A 
ATOM     24  C   UNL d   1      26.728 -16.987   0.206  0.00  0.00     0.007 A 
ATOM     25  C   UNL d   1      25.641 -17.776  -0.188  0.00  0.00     0.008 A 
ATOM     26  C   UNL d   1      24.667 -17.262  -1.057  0.00  0.00    -0.055 A 
ATOM     27  C   UNL d   1      24.877 -15.997  -1.609  0.00  0.00     0.008 A 
ATOM     28  C   UNL d   1      25.978 -15.236  -1.254  0.00  0.00     0.007 A 
BRANCH  26  29
ATOM     29  C   UNL d   1      23.358 -18.000  -1.270  0.00  0.00     0.010 C 
ATOM     30  C   UNL d   1      23.413 -19.319  -0.487  0.00  0.00     0.015 C 
ATOM     31  C   UNL d   1      22.134 -17.201  -0.803  0.00  0.00     0.015 C 
ENDBRANCH  26  29
ENDBRANCH  22  23
ENDBRANCH  21  22
ENDBRANCH   1  21
TORSDOF 6
ENDMDL
MODEL 3
REMARK VINA RESULT:    -8.648      5.957      7.364
REMARK INTER + INTRA:         -11.544
REMARK INTER:                 -10.438
REMARK INTRA:                  -1.107
REMARK CONF_INDEPENDENT:        1.790
REMARK UNBOUND:                -1.107
REMARK  6 active torsions:
REMARK  status: ('A' for Active; 'I' for Inactive)
REMARK    1  A    between atoms: C_2  and  C_4 
REMARK    2  A    between atoms: C_7  and  C_8 
REMARK    3  A    between atoms: C_8  and  C_9 
REMARK    4  A    between atoms: C_9  and  N_10 
REMARK       I    between atoms: N_10  and  C_11 
REMARK       I    between atoms: C_11  and  N_13 
REMARK    5  A    between atoms: N_13  and  N_14 
REMARK       I    between atoms: N_14  and  C_15 
REMARK    6  A    between atoms: C_15  and  C_17 
ROOT
ATOM      1  N   UNL d   1      26.234 -14.728  -2.958  0.00  0.00    -0.341 N 
ATOM      2  C   UNL d   1      25.673 -13.770  -3.781  0.00  0.00     0.334 C 
ATOM      3  O   UNL d   1      24.581 -13.906  -4.326  0.00  0.00    -0.246 OA
ATOM      4  N   UNL d   1      26.455 -12.635  -3.939  0.00  0.00    -0.249 N 
ATOM      5  H   UNL d   1      27.143 -14.576  -2.552  0.00  0.00     0.164 HD
ATOM      6  H   UNL d   1      27.354 -12.495  -3.499  0.00  0.00     0.192 HD
ENDROOT
BRANCH   4   7
ATOM      7  N   UNL d   1      26.025 -11.635  -4.837  0.00  0.00    -0.262 N 
ATOM      8  C   UNL d   1      26.936 -10.984  -5.710  0.00  0.00     0.270 C 
ATOM      9  O   UNL d   1      28.111 -11.219  -5.753  0.00  0.00    -0.266 OA
ATOM     10  H   UNL d   1      25.037 -11.396  -4.766  0.00  0.00     0.190 HD
BRANCH   8  11
ATOM     11  C   UNL d   1      26.308  -9.836  -6.480  0.00  0.00     0.036 C 
ATOM     12  C   UNL d   1      26.800  -8.945  -7.459  0.00  0.00     0.020 C 
ATOM     13  C   UNL d   1      26.041  -7.705  -7.833  0.00  0.00     0.040 C 
ATOM     14  C   UNL d   1      24.831  -7.376  -7.155  0.00  0.00     0.102 C 
ATOM     15  C   UNL d   1      24.635  -8.242  -6.136  0.00  0.00     0.103 C 
ATOM     16  O   UNL d   1      23.845  -6.368  -7.121  0.00  0.00    -0.346 OA
ATOM     17  C   UNL d   1      25.150  -9.471  -5.890  0.00  0.00     0.056 C 
ATOM     18  O   UNL d   1      24.305  -7.682  -4.933  0.00  0.00    -0.346 OA
ATOM     19  C   UNL d   1      22.921  -7.692  -5.021  0.00  0.00     0.202 C 
ATOM     20  C   UNL d   1      22.701  -6.514  -5.964  0.00  0.00     0.202 C 
ENDBRANCH   8  11
ENDBRANCH   4   7
BRANCH   1  21
ATOM     21  C   UNL d   1      25.539 -15.981  -2.708  0.00  0.00     0.129 C 
BRANCH  21  22
ATOM     22  C   UNL d   1      25.409 -16.396  -1.229  0.00  0.00     0.058 C 
BRANCH  22  23
ATOM     23  C   UNL d   1      24.193 -17.254  -0.934  0.00  0.00    -0.057 A 
ATOM     24  C   UNL d   1      22.902 -16.717  -1.037  0.00  0.00     0.007 A 
ATOM     25  C   UNL d   1      21.784 -17.463  -0.642  0.00  0.00     0.008 A 
ATOM     26  C   UNL d   1      21.927 -18.803  -0.253  0.00  0.00    -0.055 A 
ATOM     27  C   UNL d   1      23.215 -19.329  -0.154  0.00  0.00     0.008 A 
ATOM     28  C   UNL d   1      24.324 -18.575  -0.499  0.00  0.00     0.007 A 
BRANCH  26  29
ATOM     29  C   UNL d   1      20.705 -19.691  -0.090  0.00  0.00     0.010 C 
ATOM     30  C   UNL d   1      20.322 -19.719   1.395  0.00  0.00     0.015 C 
ATOM     31  C   UNL d   1      19.497 -19.206  -0.903  0.00  0.00     0.015 C 
ENDBRANCH  26  29
ENDBRANCH  22  23
ENDBRANCH  21  22
ENDBRANCH   1  21
TORSDOF 6
ENDMDL
MODEL 4
REMARK VINA RESULT:    -8.437      4.476     10.147
REMARK INTER + INTRA:         -11.450
REMARK INTER:                 -10.227
REMARK INTRA:                  -1.223
REMARK CONF_INDEPENDENT:        1.790
REMARK UNBOUND:                -1.223
REMARK  6 active torsions:
REMARK  status: ('A' for Active; 'I' for Inactive)
REMARK    1  A    between atoms: C_2  and  C_4 
REMARK    2  A    between atoms: C_7  and  C_8 
REMARK    3  A    between atoms: C_8  and  C_9 
REMARK    4  A    between atoms: C_9  and  N_10 
REMARK       I    between atoms: N_10  and  C_11 
REMARK       I    between atoms: C_11  and  N_13 
REMARK    5  A    between atoms: N_13  and  N_14 
REMARK       I    between atoms: N_14  and  C_15 
REMARK    6  A    between atoms: C_15  and  C_17 
ROOT
ATOM      1  N   UNL d   1      28.281 -14.824   3.905  0.00  0.00    -0.341 N 
ATOM      2  C   UNL d   1      27.800 -14.435   2.670  0.00  0.00     0.334 C 
ATOM      3  O   UNL d   1      27.076 -13.457   2.506  0.00  0.00    -0.246 OA
ATOM      4  N   UNL d   1      28.210 -15.250   1.624  0.00  0.00    -0.249 N 
ATOM      5  H   UNL d   1      28.856 -15.647   3.989  0.00  0.00     0.164 HD
ATOM      6  H   UNL d   1      28.809 -16.056   1.730  0.00  0.00     0.192 HD
ENDROOT
BRANCH   4   7
ATOM      7  N   UNL d   1      27.698 -15.004   0.333  0.00  0.00    -0.262 N 
ATOM      8  C   UNL d   1      27.517 -16.057  -0.604  0.00  0.00     0.270 C 
ATOM      9  O   UNL d   1      27.780 -17.205  -0.383  0.00  0.00    -0.266 OA
ATOM     10  H   UNL d   1      27.524 -14.022   0.124  0.00  0.00     0.190 HD
BRANCH   8  11
ATOM     11  C   UNL d   1      27.107 -15.565  -1.981  0.00  0.00     0.036 C 
ATOM     12  C   UNL d   1      25.864 -15.478  -2.646  0.00  0.00     0.020 C 
ATOM     13  C   UNL d   1      25.789 -15.231  -4.125  0.00  0.00     0.040 C 
ATOM     14  C   UNL d   1      26.985 -15.141  -4.895  0.00  0.00     0.102 C 
ATOM     15  C   UNL d   1      28.048 -15.439  -4.116  0.00  0.00     0.103 C 
ATOM     16  O   UNL d   1      27.405 -14.970  -6.231  0.00  0.00    -0.346 OA
ATOM     17  C   UNL d   1      28.197 -15.455  -2.769  0.00  0.00     0.056 C 
ATOM     18  O   UNL d   1      28.944 -16.325  -4.644  0.00  0.00    -0.346 OA
ATOM     19  C   UNL d   1      29.824 -15.454  -5.267  0.00  0.00     0.202 C 
ATOM     20  C   UNL d   1      29.011 -15.086  -6.503  0.00  0.00     0.202 C 
ENDBRANCH   8  11
ENDBRANCH   4   7
BRANCH   1  21
ATOM     21  C   UNL d   1      27.925 -14.077   5.102  0.00  0.00     0.129 C 
BRANCH  21  22
ATOM     22  C   UNL d   1      29.076 -13.313   5.786  0.00  0.00     0.058 C 
BRANCH  22  23
ATOM     23  C   UNL d   1      28.909 -13.163   7.287  0.00  0.00    -0.057 A 
ATOM     24  C   UNL d   1      29.052 -14.273   8.132  0.00  0.00     0.007 A 
ATOM     25  C   UNL d   1      28.772 -14.169   9.501  0.00  0.00     0.008 A 
ATOM     26  C   UNL d   1      28.463 -12.924  10.070  0.00  0.00    -0.055 A 
ATOM     27  C   UNL d   1      28.323 -11.826   9.221  0.00  0.00     0.008 A 
ATOM     28  C   UNL d   1      28.554 -11.940   7.860  0.00  0.00     0.007 A 
BRANCH  26  29
ATOM     29  C   UNL d   1      28.430 -12.756  11.579  0.00  0.00     0.010 C 
ATOM     30  C   UNL d   1      28.531 -14.144  12.223  0.00  0.00     0.015 C 
ATOM     31  C   UNL d   1      29.574 -11.881  12.111  0.00  0.00     0.015 C 
ENDBRANCH  26  29
ENDBRANCH  22  23
ENDBRANCH  21  22
ENDBRANCH   1  21
TORSDOF 6
ENDMDL
MODEL 5
REMARK VINA RESULT:    -8.428      3.549      5.385
REMARK INTER + INTRA:         -11.749
REMARK INTER:                 -10.218
REMARK INTRA:                  -1.531
REMARK CONF_INDEPENDENT:        1.790
REMARK UNBOUND:                -1.531
REMARK  6 active torsions:
REMARK  status: ('A' for Active; 'I' for Inactive)
REMARK    1  A    between atoms: C_2  and  C_4 
REMARK    2  A    between atoms: C_7  and  C_8 
REMARK    3  A    between atoms: C_8  and  C_9 
REMARK    4  A    between atoms: C_9  and  N_10 
REMARK       I    between atoms: N_10  and  C_11 
REMARK       I    between atoms: C_11  and  N_13 
REMARK    5  A    between atoms: N_13  and  N_14 
REMARK       I    between atoms: N_14  and  C_15 
REMARK    6  A    between atoms: C_15  and  C_17 
ROOT
ATOM      1  N   UNL d   1      28.909 -14.861   1.324  0.00  0.00    -0.341 N 
ATOM      2  C   UNL d   1      28.532 -14.112   2.421  0.00  0.00     0.334 C 
ATOM      3  O   UNL d   1      27.808 -13.123   2.346  0.00  0.00    -0.246 OA
ATOM      4  N   UNL d   1      29.046 -14.576   3.624  0.00  0.00    -0.249 N 
ATOM      5  H   UNL d   1      29.523 -15.651   1.437  0.00  0.00     0.164 HD
ATOM      6  H   UNL d   1      29.640 -15.388   3.715  0.00  0.00     0.192 HD
ENDROOT
BRANCH   4   7
ATOM      7  N   UNL d   1      28.806 -13.829   4.797  0.00  0.00    -0.262 N 
ATOM      8  C   UNL d   1      29.444 -14.154   6.023  0.00  0.00     0.270 C 
ATOM      9  O   UNL d   1      30.212 -15.064   6.162  0.00  0.00    -0.266 OA
ATOM     10  H   UNL d   1      28.114 -13.088   4.695  0.00  0.00     0.190 HD
BRANCH   8  11
ATOM     11  C   UNL d   1      28.935 -13.334   7.196  0.00  0.00     0.036 C 
ATOM     12  C   UNL d   1      28.768 -11.947   7.405  0.00  0.00     0.020 C 
ATOM     13  C   UNL d   1      28.525 -11.392   8.779  0.00  0.00     0.040 C 
ATOM     14  C   UNL d   1      28.521 -12.260   9.909  0.00  0.00     0.102 C 
ATOM     15  C   UNL d   1      28.885 -13.504   9.526  0.00  0.00     0.103 C 
ATOM     16  O   UNL d   1      28.387 -12.214  11.313  0.00  0.00    -0.346 OA
ATOM     17  C   UNL d   1      28.904 -14.098   8.308  0.00  0.00     0.056 C 
ATOM     18  O   UNL d   1      29.834 -14.112  10.299  0.00  0.00    -0.346 OA
ATOM     19  C   UNL d   1      29.028 -14.782  11.207  0.00  0.00     0.202 C 
ATOM     20  C   UNL d   1      28.613 -13.623  12.107  0.00  0.00     0.202 C 
ENDBRANCH   8  11
ENDBRANCH   4   7
BRANCH   1  21
ATOM     21  C   UNL d   1      28.462 -14.489  -0.010  0.00  0.00     0.129 C 
BRANCH  21  22
ATOM     22  C   UNL d   1      28.161 -15.657  -0.969  0.00  0.00     0.058 C 
BRANCH  22  23
ATOM     23  C   UNL d   1      26.813 -16.313  -0.738  0.00  0.00    -0.057 A 
ATOM     24  C   UNL d   1      25.660 -15.808  -1.359  0.00  0.00     0.007 A 
ATOM     25  C   UNL d   1      24.397 -16.326  -1.049  0.00  0.00     0.008 A 
ATOM     26  C   UNL d   1      24.273 -17.440  -0.205  0.00  0.00    -0.055 A 
ATOM     27  C   UNL d   1      25.425 -17.935   0.408  0.00  0.00     0.008 A 
ATOM     28  C   UNL d   1      26.669 -17.392   0.137  0.00  0.00     0.007 A 
BRANCH  26  29
ATOM     29  C   UNL d   1      22.947 -18.171  -0.084  0.00  0.00     0.010 C 
ATOM     30  C   UNL d   1      21.895 -17.400  -0.892  0.00  0.00     0.015 C 
ATOM     31  C   UNL d   1      23.007 -19.614  -0.601  0.00  0.00     0.015 C 
ENDBRANCH  26  29
ENDBRANCH  22  23
ENDBRANCH  21  22
ENDBRANCH   1  21
TORSDOF 6
ENDMDL
MODEL 6
REMARK VINA RESULT:    -8.428      3.101      4.775
REMARK INTER + INTRA:         -11.700
REMARK INTER:                 -10.217
REMARK INTRA:                  -1.482
REMARK CONF_INDEPENDENT:        1.790
REMARK UNBOUND:                -1.482
REMARK  6 active torsions:
REMARK  status: ('A' for Active; 'I' for Inactive)
REMARK    1  A    between atoms: C_2  and  C_4 
REMARK    2  A    between atoms: C_7  and  C_8 
REMARK    3  A    between atoms: C_8  and  C_9 
REMARK    4  A    between atoms: C_9  and  N_10 
REMARK       I    between atoms: N_10  and  C_11 
REMARK       I    between atoms: C_11  and  N_13 
REMARK    5  A    between atoms: N_13  and  N_14 
REMARK       I    between atoms: N_14  and  C_15 
REMARK    6  A    between atoms: C_15  and  C_17 
ROOT
ATOM      1  N   UNL d   1      27.153 -15.132   0.851  0.00  0.00    -0.341 N 
ATOM      2  C   UNL d   1      27.103 -14.327   1.972  0.00  0.00     0.334 C 
ATOM      3  O   UNL d   1      26.412 -13.314   2.045  0.00  0.00    -0.246 OA
ATOM      4  N   UNL d   1      27.906 -14.764   3.017  0.00  0.00    -0.249 N 
ATOM      5  H   UNL d   1      27.753 -15.941   0.835  0.00  0.00     0.164 HD
ATOM      6  H   UNL d   1      28.480 -15.595   2.986  0.00  0.00     0.192 HD
ENDROOT
BRANCH   4   7
ATOM      7  N   UNL d   1      28.008 -13.964   4.174  0.00  0.00    -0.262 N 
ATOM      8  C   UNL d   1      28.903 -14.296   5.226  0.00  0.00     0.270 C 
ATOM      9  O   UNL d   1      29.619 -15.257   5.221  0.00  0.00    -0.266 OA
ATOM     10  H   UNL d   1      27.362 -13.177   4.205  0.00  0.00     0.190 HD
BRANCH   8  11
ATOM     11  C   UNL d   1      28.748 -13.402   6.444  0.00  0.00     0.036 C 
ATOM     12  C   UNL d   1      28.757 -12.002   6.623  0.00  0.00     0.020 C 
ATOM     13  C   UNL d   1      28.884 -11.393   7.989  0.00  0.00     0.040 C 
ATOM     14  C   UNL d   1      29.060 -12.229   9.130  0.00  0.00     0.102 C 
ATOM     15  C   UNL d   1      29.216 -13.511   8.731  0.00  0.00     0.103 C 
ATOM     16  O   UNL d   1      29.253 -12.136  10.525  0.00  0.00    -0.346 OA
ATOM     17  C   UNL d   1      28.903 -14.133   7.568  0.00  0.00     0.056 C 
ATOM     18  O   UNL d   1      30.257 -14.189   9.299  0.00  0.00    -0.346 OA
ATOM     19  C   UNL d   1      29.623 -14.755  10.394  0.00  0.00     0.202 C 
ATOM     20  C   UNL d   1      29.529 -13.541  11.311  0.00  0.00     0.202 C 
ENDBRANCH   8  11
ENDBRANCH   4   7
BRANCH   1  21
ATOM     21  C   UNL d   1      26.377 -14.795  -0.332  0.00  0.00     0.129 C 
BRANCH  21  22
ATOM     22  C   UNL d   1      26.172 -15.934  -1.351  0.00  0.00     0.058 C 
BRANCH  22  23
ATOM     23  C   UNL d   1      24.974 -16.816  -1.057  0.00  0.00    -0.057 A 
ATOM     24  C   UNL d   1      23.671 -16.331  -1.246  0.00  0.00     0.007 A 
ATOM     25  C   UNL d   1      22.562 -17.092  -0.855  0.00  0.00     0.008 A 
ATOM     26  C   UNL d   1      22.731 -18.402  -0.380  0.00  0.00    -0.055 A 
ATOM     27  C   UNL d   1      24.030 -18.875  -0.195  0.00  0.00     0.008 A 
ATOM     28  C   UNL d   1      25.128 -18.103  -0.538  0.00  0.00     0.007 A 
BRANCH  26  29
ATOM     29  C   UNL d   1      21.533 -19.321  -0.217  0.00  0.00     0.010 C 
ATOM     30  C   UNL d   1      20.990 -19.159   1.209  0.00  0.00     0.015 C 
ATOM     31  C   UNL d   1      20.404 -19.020  -1.211  0.00  0.00     0.015 C 
ENDBRANCH  26  29
ENDBRANCH  22  23
ENDBRANCH  21  22
ENDBRANCH   1  21
TORSDOF 6
ENDMDL
MODEL 7
REMARK VINA RESULT:    -8.068      3.953      9.068
REMARK INTER + INTRA:         -11.537
REMARK INTER:                  -9.858
REMARK INTRA:                  -1.679
REMARK CONF_INDEPENDENT:        1.790
REMARK UNBOUND:                -1.679
REMARK  6 active torsions:
REMARK  status: ('A' for Active; 'I' for Inactive)
REMARK    1  A    between atoms: C_2  and  C_4 
REMARK    2  A    between atoms: C_7  and  C_8 
REMARK    3  A    between atoms: C_8  and  C_9 
REMARK    4  A    between atoms: C_9  and  N_10 
REMARK       I    between atoms: N_10  and  C_11 
REMARK       I    between atoms: C_11  and  N_13 
REMARK    5  A    between atoms: N_13  and  N_14 
REMARK       I    between atoms: N_14  and  C_15 
REMARK    6  A    between atoms: C_15  and  C_17 
ROOT
ATOM      1  N   UNL d   1      30.507 -16.802  -0.131  0.00  0.00    -0.341 N 
ATOM      2  C   UNL d   1      29.239 -16.523  -0.602  0.00  0.00     0.334 C 
ATOM      3  O   UNL d   1      28.994 -15.599  -1.373  0.00  0.00    -0.246 OA
ATOM      4  N   UNL d   1      28.259 -17.383  -0.125  0.00  0.00    -0.249 N 
ATOM      5  H   UNL d   1      30.651 -17.559   0.517  0.00  0.00     0.164 HD
ATOM      6  H   UNL d   1      28.433 -18.153   0.505  0.00  0.00     0.192 HD
ENDROOT
BRANCH   4   7
ATOM      7  N   UNL d   1      26.913 -17.129  -0.462  0.00  0.00    -0.262 N 
ATOM      8  C   UNL d   1      25.846 -17.781   0.212  0.00  0.00     0.270 C 
ATOM      9  O   UNL d   1      25.996 -18.580   1.093  0.00  0.00    -0.266 OA
ATOM     10  H   UNL d   1      26.783 -16.492  -1.246  0.00  0.00     0.190 HD
BRANCH   8  11
ATOM     11  C   UNL d   1      24.487 -17.493  -0.402  0.00  0.00     0.036 C 
ATOM     12  C   UNL d   1      23.865 -16.312  -0.861  0.00  0.00     0.020 C 
ATOM     13  C   UNL d   1      22.392 -16.269  -1.146  0.00  0.00     0.040 C 
ATOM     14  C   UNL d   1      21.583 -17.416  -0.895  0.00  0.00     0.102 C 
ATOM     15  C   UNL d   1      22.324 -18.367  -0.286  0.00  0.00     0.103 C 
ATOM     16  O   UNL d   1      20.235 -17.828  -0.960  0.00  0.00    -0.346 OA
ATOM     17  C   UNL d   1      23.665 -18.544  -0.202  0.00  0.00     0.056 C 
ATOM     18  O   UNL d   1      21.759 -18.948   0.815  0.00  0.00    -0.346 OA
ATOM     19  C   UNL d   1      21.114 -20.026   0.228  0.00  0.00     0.202 C 
ATOM     20  C   UNL d   1      19.908 -19.321  -0.384  0.00  0.00     0.202 C 
ENDBRANCH   8  11
ENDBRANCH   4   7
BRANCH   1  21
ATOM     21  C   UNL d   1      31.638 -15.978  -0.530  0.00  0.00     0.129 C 
BRANCH  21  22
ATOM     22  C   UNL d   1      32.166 -14.998   0.536  0.00  0.00     0.058 C 
BRANCH  22  23
ATOM     23  C   UNL d   1      31.166 -14.682   1.632  0.00  0.00    -0.057 A 
ATOM     24  C   UNL d   1      29.886 -14.206   1.312  0.00  0.00     0.007 A 
ATOM     25  C   UNL d   1      29.006 -13.791   2.319  0.00  0.00     0.008 A 
ATOM     26  C   UNL d   1      29.343 -13.958   3.671  0.00  0.00    -0.055 A 
ATOM     27  C   UNL d   1      30.619 -14.432   3.979  0.00  0.00     0.008 A 
ATOM     28  C   UNL d   1      31.506 -14.799   2.982  0.00  0.00     0.007 A 
BRANCH  26  29
ATOM     29  C   UNL d   1      28.296 -13.768   4.754  0.00  0.00     0.010 C 
ATOM     30  C   UNL d   1      27.781 -15.150   5.176  0.00  0.00     0.015 C 
ATOM     31  C   UNL d   1      28.838 -13.044   5.994  0.00  0.00     0.015 C 
ENDBRANCH  26  29
ENDBRANCH  22  23
ENDBRANCH  21  22
ENDBRANCH   1  21
TORSDOF 6
ENDMDL
MODEL 8
REMARK VINA RESULT:    -7.922      5.979      9.767
REMARK INTER + INTRA:         -11.269
REMARK INTER:                  -9.712
REMARK INTRA:                  -1.558
REMARK CONF_INDEPENDENT:        1.790
REMARK UNBOUND:                -1.558
REMARK  6 active torsions:
REMARK  status: ('A' for Active; 'I' for Inactive)
REMARK    1  A    between atoms: C_2  and  C_4 
REMARK    2  A    between atoms: C_7  and  C_8 
REMARK    3  A    between atoms: C_8  and  C_9 
REMARK    4  A    between atoms: C_9  and  N_10 
REMARK       I    between atoms: N_10  and  C_11 
REMARK       I    between atoms: C_11  and  N_13 
REMARK    5  A    between atoms: N_13  and  N_14 
REMARK       I    between atoms: N_14  and  C_15 
REMARK    6  A    between atoms: C_15  and  C_17 
ROOT
ATOM      1  N   UNL d   1      30.744 -17.836  -0.619  0.00  0.00    -0.341 N 
ATOM      2  C   UNL d   1      29.489 -17.506  -1.092  0.00  0.00     0.334 C 
ATOM      3  O   UNL d   1      29.302 -16.899  -2.143  0.00  0.00    -0.246 OA
ATOM      4  N   UNL d   1      28.450 -17.923  -0.271  0.00  0.00    -0.249 N 
ATOM      5  H   UNL d   1      30.844 -18.316   0.260  0.00  0.00     0.164 HD
ATOM      6  H   UNL d   1      28.575 -18.427   0.596  0.00  0.00     0.192 HD
ENDROOT
BRANCH   4   7
ATOM      7  N   UNL d   1      27.131 -17.553  -0.606  0.00  0.00    -0.262 N 
ATOM      8  C   UNL d   1      26.033 -17.892   0.228  0.00  0.00     0.270 C 
ATOM      9  O   UNL d   1      26.132 -18.507   1.252  0.00  0.00    -0.266 OA
ATOM     10  H   UNL d   1      27.037 -17.077  -1.502  0.00  0.00     0.190 HD
BRANCH   8  11
ATOM     11  C   UNL d   1      24.688 -17.544  -0.385  0.00  0.00     0.036 C 
ATOM     12  C   UNL d   1      24.106 -16.330  -0.811  0.00  0.00     0.020 C 
ATOM     13  C   UNL d   1      22.636 -16.232  -1.103  0.00  0.00     0.040 C 
ATOM     14  C   UNL d   1      21.791 -17.360  -0.893  0.00  0.00     0.102 C 
ATOM     15  C   UNL d   1      22.497 -18.353  -0.308  0.00  0.00     0.103 C 
ATOM     16  O   UNL d   1      20.431 -17.728  -0.978  0.00  0.00    -0.346 OA
ATOM     17  C   UNL d   1      23.832 -18.574  -0.222  0.00  0.00     0.056 C 
ATOM     18  O   UNL d   1      21.907 -18.949   0.770  0.00  0.00    -0.346 OA
ATOM     19  C   UNL d   1      21.233 -19.988   0.147  0.00  0.00     0.202 C 
ATOM     20  C   UNL d   1      20.054 -19.227  -0.450  0.00  0.00     0.202 C 
ENDBRANCH   8  11
ENDBRANCH   4   7
BRANCH   1  21
ATOM     21  C   UNL d   1      31.934 -17.453  -1.363  0.00  0.00     0.129 C 
BRANCH  21  22
ATOM     22  C   UNL d   1      33.273 -17.981  -0.811  0.00  0.00     0.058 C 
BRANCH  22  23
ATOM     23  C   UNL d   1      33.166 -18.616   0.563  0.00  0.00    -0.057 A 
ATOM     24  C   UNL d   1      32.645 -19.910   0.709  0.00  0.00     0.007 A 
ATOM     25  C   UNL d   1      32.423 -20.451   1.981  0.00  0.00     0.008 A 
ATOM     26  C   UNL d   1      32.831 -19.757   3.130  0.00  0.00    -0.055 A 
ATOM     27  C   UNL d   1      33.348 -18.470   2.974  0.00  0.00     0.008 A 
ATOM     28  C   UNL d   1      33.524 -17.917   1.717  0.00  0.00     0.007 A 
BRANCH  26  29
ATOM     29  C   UNL d   1      32.846 -20.447   4.482  0.00  0.00     0.010 C 
ATOM     30  C   UNL d   1      31.596 -21.331   4.587  0.00  0.00     0.015 C 
ATOM     31  C   UNL d   1      34.088 -21.322   4.698  0.00  0.00     0.015 C 
ENDBRANCH  26  29
ENDBRANCH  22  23
ENDBRANCH  21  22
ENDBRANCH   1  21
TORSDOF 6
ENDMDL
MODEL 9
REMARK VINA RESULT:    -7.665      6.473     10.624
REMARK INTER + INTRA:         -11.269
REMARK INTER:                  -9.454
REMARK INTRA:                  -1.815
REMARK CONF_INDEPENDENT:        1.790
REMARK UNBOUND:                -1.815
REMARK  6 active torsions:
REMARK  status: ('A' for Active; 'I' for Inactive)
REMARK    1  A    between atoms: C_2  and  C_4 
REMARK    2  A    between atoms: C_7  and  C_8 
REMARK    3  A    between atoms: C_8  and  C_9 
REMARK    4  A    between atoms: C_9  and  N_10 
REMARK       I    between atoms: N_10  and  C_11 
REMARK       I    between atoms: C_11  and  N_13 
REMARK    5  A    between atoms: N_13  and  N_14 
REMARK       I    between atoms: N_14  and  C_15 
REMARK    6  A    between atoms: C_15  and  C_17 
ROOT
ATOM      1  N   UNL d   1      27.178 -13.288  -5.449  0.00  0.00    -0.341 N 
ATOM      2  C   UNL d   1      27.633 -14.579  -5.635  0.00  0.00     0.334 C 
ATOM      3  O   UNL d   1      26.984 -15.574  -5.324  0.00  0.00    -0.246 OA
ATOM      4  N   UNL d   1      28.895 -14.655  -6.208  0.00  0.00    -0.249 N 
ATOM      5  H   UNL d   1      27.759 -12.505  -5.702  0.00  0.00     0.164 HD
ATOM      6  H   UNL d   1      29.448 -13.854  -6.478  0.00  0.00     0.192 HD
ENDROOT
BRANCH   4   7
ATOM      7  N   UNL d   1      29.498 -15.922  -6.352  0.00  0.00    -0.262 N 
ATOM      8  C   UNL d   1      30.713 -16.085  -7.069  0.00  0.00     0.270 C 
ATOM      9  O   UNL d   1      31.307 -15.189  -7.599  0.00  0.00    -0.266 OA
ATOM     10  H   UNL d   1      28.969 -16.694  -5.949  0.00  0.00     0.190 HD
BRANCH   8  11
ATOM     11  C   UNL d   1      31.112 -17.540  -7.243  0.00  0.00     0.036 C 
ATOM     12  C   UNL d   1      31.199 -18.390  -8.367  0.00  0.00     0.020 C 
ATOM     13  C   UNL d   1      31.333 -19.878  -8.210  0.00  0.00     0.040 C 
ATOM     14  C   UNL d   1      31.313 -20.462  -6.910  0.00  0.00     0.102 C 
ATOM     15  C   UNL d   1      31.033 -19.511  -5.991  0.00  0.00     0.103 C 
ATOM     16  O   UNL d   1      31.362 -21.728  -6.288  0.00  0.00    -0.346 OA
ATOM     17  C   UNL d   1      31.116 -18.159  -6.044  0.00  0.00     0.056 C 
ATOM     18  O   UNL d   1      30.072 -19.833  -5.074  0.00  0.00    -0.346 OA
ATOM     19  C   UNL d   1      30.855 -20.376  -4.067  0.00  0.00     0.202 C 
ATOM     20  C   UNL d   1      31.159 -21.744  -4.667  0.00  0.00     0.202 C 
ENDBRANCH   8  11
ENDBRANCH   4   7
BRANCH   1  21
ATOM     21  C   UNL d   1      25.878 -13.045  -4.844  0.00  0.00     0.129 C 
BRANCH  21  22
ATOM     22  C   UNL d   1      25.862 -12.923  -3.308  0.00  0.00     0.058 C 
BRANCH  22  23
ATOM     23  C   UNL d   1      25.740 -14.251  -2.585  0.00  0.00    -0.057 A 
ATOM     24  C   UNL d   1      26.886 -14.925  -2.138  0.00  0.00     0.007 A 
ATOM     25  C   UNL d   1      26.790 -16.209  -1.587  0.00  0.00     0.008 A 
ATOM     26  C   UNL d   1      25.535 -16.792  -1.360  0.00  0.00    -0.055 A 
ATOM     27  C   UNL d   1      24.401 -16.114  -1.807  0.00  0.00     0.008 A 
ATOM     28  C   UNL d   1      24.500 -14.864  -2.395  0.00  0.00     0.007 A 
BRANCH  26  29
ATOM     29  C   UNL d   1      25.412 -18.052  -0.520  0.00  0.00     0.010 C 
ATOM     30  C   UNL d   1      26.477 -18.003   0.583  0.00  0.00     0.015 C 
ATOM     31  C   UNL d   1      24.032 -18.207   0.134  0.00  0.00     0.015 C 
ENDBRANCH  26  29
ENDBRANCH  22  23
ENDBRANCH  21  22
ENDBRANCH   1  21
TORSDOF 6
ENDMDL
