MODEL 1
REMARK VINA RESULT:   -28.630      0.000      0.000
REMARK INTER + INTRA:         -31.039
REMARK INTER:                 -30.121
REMARK INTRA:                  -0.917
REMARK CONF_INDEPENDENT:        1.492
REMARK UNBOUND:                -0.917
REMARK  5 active torsions:
REMARK  status: ('A' for Active; 'I' for Inactive)
REMARK    1  A    between atoms: C_2  and  C_12 
REMARK    2  A    between atoms: C_2  and  C_3 
REMARK    3  A    between atoms: C_3  and  N_4 
REMARK    4  A    between atoms: N_4  and  C_5 
REMARK       I    between atoms: C_12  and  N_14 
REMARK    5  A    between atoms: N_14  and  N_15 
ROOT
ATOM      1  C   UNL d   1      24.351 -18.381  -0.479  0.00  0.00     0.133 C 
ENDROOT
BRANCH   1   2
ATOM      2  N   UNL d   1      25.329 -17.319  -0.213  0.00  0.00    -0.389 N 
ATOM      3  H   UNL d   1      25.859 -17.356   0.650  0.00  0.00     0.159 HD
BRANCH   2   4
ATOM      4  C   UNL d   1      25.913 -16.615  -1.262  0.00  0.00     0.028 A 
ATOM      5  C   UNL d   1      27.259 -16.236  -1.232  0.00  0.00     0.030 A 
ATOM      6  C   UNL d   1      27.867 -15.624  -2.335  0.00  0.00     0.021 A 
ATOM      7  C   UNL d   1      27.114 -15.336  -3.467  0.00  0.00     0.011 A 
ATOM      8 BR   UNL d   1      27.945 -14.550  -4.973  0.00  0.00    -0.051 Br
ATOM      9  C   UNL d   1      25.755 -15.631  -3.495  0.00  0.00     0.021 A 
ATOM     10  C   UNL d   1      25.159 -16.263  -2.392  0.00  0.00     0.030 A 
ENDBRANCH   2   4
ENDBRANCH   1   2
BRANCH   1  11
ATOM     11  C   UNL d   1      22.917 -17.943  -0.086  0.00  0.00     0.093 C 
ATOM     12  C   UNL d   1      22.785 -16.424  -0.236  0.00  0.00     0.021 C 
BRANCH  11  13
ATOM     13  C   UNL d   1      21.869 -18.653  -0.948  0.00  0.00     0.237 C 
ATOM     14  O   UNL d   1      22.136 -19.243  -2.002  0.00  0.00    -0.272 OA
ATOM     15  N   UNL d   1      20.564 -18.606  -0.467  0.00  0.00    -0.294 N 
ATOM     16  H   UNL d   1      20.348 -18.218   0.449  0.00  0.00     0.183 HD
BRANCH  15  17
ATOM     17  N   UNL d   1      19.553 -19.325  -1.152  0.00  0.00    -0.247 NA
ATOM     18  H   UNL d   1      20.024 -19.858  -1.900  0.00  0.00     0.143 HD
ATOM     19  H   UNL d   1      18.961 -18.659  -1.655  0.00  0.00     0.143 HD
ENDBRANCH  15  17
ENDBRANCH  11  13
ENDBRANCH   1  11
TORSDOF 5
ENDMDL
MODEL 2
REMARK VINA RESULT:   -28.386      0.918      1.465
REMARK INTER + INTRA:         -30.658
REMARK INTER:                 -29.877
REMARK INTRA:                  -0.781
REMARK CONF_INDEPENDENT:        1.492
REMARK UNBOUND:                -0.781
REMARK  5 active torsions:
REMARK  status: ('A' for Active; 'I' for Inactive)
REMARK    1  A    between atoms: C_2  and  C_12 
REMARK    2  A    between atoms: C_2  and  C_3 
REMARK    3  A    between atoms: C_3  and  N_4 
REMARK    4  A    between atoms: N_4  and  C_5 
REMARK       I    between atoms: C_12  and  N_14 
REMARK    5  A    between atoms: N_14  and  N_15 
ROOT
ATOM      1  C   UNL d   1      24.443 -18.578  -0.344  0.00  0.00     0.133 C 
ENDROOT
BRANCH   1   2
ATOM      2  N   UNL d   1      25.497 -17.650   0.083  0.00  0.00    -0.389 N 
ATOM      3  H   UNL d   1      26.156 -17.960   0.788  0.00  0.00     0.159 HD
BRANCH   2   4
ATOM      4  C   UNL d   1      25.938 -16.640  -0.766  0.00  0.00     0.028 A 
ATOM      5  C   UNL d   1      25.531 -16.574  -2.103  0.00  0.00     0.030 A 
ATOM      6  C   UNL d   1      25.890 -15.497  -2.922  0.00  0.00     0.021 A 
ATOM      7  C   UNL d   1      26.712 -14.493  -2.421  0.00  0.00     0.011 A 
ATOM      8 BR   UNL d   1      27.161 -13.015  -3.512  0.00  0.00    -0.051 Br
ATOM      9  C   UNL d   1      27.194 -14.571  -1.119  0.00  0.00     0.021 A 
ATOM     10  C   UNL d   1      26.812 -15.645  -0.301  0.00  0.00     0.030 A 
ENDBRANCH   2   4
ENDBRANCH   1   2
BRANCH   1  11
ATOM     11  C   UNL d   1      23.032 -18.015  -0.032  0.00  0.00     0.093 C 
ATOM     12  C   UNL d   1      23.034 -16.494  -0.219  0.00  0.00     0.021 C 
BRANCH  11  13
ATOM     13  C   UNL d   1      21.973 -18.658  -0.932  0.00  0.00     0.237 C 
ATOM     14  O   UNL d   1      22.223 -19.158  -2.035  0.00  0.00    -0.272 OA
ATOM     15  N   UNL d   1      20.676 -18.659  -0.425  0.00  0.00    -0.294 N 
ATOM     16  H   UNL d   1      20.475 -18.349   0.523  0.00  0.00     0.183 HD
BRANCH  15  17
ATOM     17  N   UNL d   1      19.657 -19.325  -1.150  0.00  0.00    -0.247 NA
ATOM     18  H   UNL d   1      20.125 -19.854  -1.903  0.00  0.00     0.143 HD
ATOM     19  H   UNL d   1      19.097 -18.627  -1.646  0.00  0.00     0.143 HD
ENDBRANCH  15  17
ENDBRANCH  11  13
ENDBRANCH   1  11
TORSDOF 5
ENDMDL
MODEL 3
REMARK VINA RESULT:   -28.248      1.513      1.790
REMARK INTER + INTRA:         -31.082
REMARK INTER:                 -29.740
REMARK INTRA:                  -1.342
REMARK CONF_INDEPENDENT:        1.492
REMARK UNBOUND:                -1.342
REMARK  5 active torsions:
REMARK  status: ('A' for Active; 'I' for Inactive)
REMARK    1  A    between atoms: C_2  and  C_12 
REMARK    2  A    between atoms: C_2  and  C_3 
REMARK    3  A    between atoms: C_3  and  N_4 
REMARK    4  A    between atoms: N_4  and  C_5 
REMARK       I    between atoms: C_12  and  N_14 
REMARK    5  A    between atoms: N_14  and  N_15 
ROOT
ATOM      1  C   UNL d   1      24.277 -17.779  -1.872  0.00  0.00     0.133 C 
ENDROOT
BRANCH   1   2
ATOM      2  N   UNL d   1      24.140 -16.318  -1.821  0.00  0.00    -0.389 N 
ATOM      3  H   UNL d   1      23.733 -15.901  -0.992  0.00  0.00     0.159 HD
BRANCH   2   4
ATOM      4  C   UNL d   1      24.981 -15.501  -2.569  0.00  0.00     0.028 A 
ATOM      5  C   UNL d   1      26.324 -15.829  -2.782  0.00  0.00     0.030 A 
ATOM      6  C   UNL d   1      27.137 -15.060  -3.625  0.00  0.00     0.021 A 
ATOM      7  C   UNL d   1      26.622 -13.916  -4.225  0.00  0.00     0.011 A 
ATOM      8 BR   UNL d   1      27.704 -12.903  -5.398  0.00  0.00    -0.051 Br
ATOM      9  C   UNL d   1      25.312 -13.524  -3.970  0.00  0.00     0.021 A 
ATOM     10  C   UNL d   1      24.500 -14.313  -3.140  0.00  0.00     0.030 A 
ENDBRANCH   2   4
ENDBRANCH   1   2
BRANCH   1  11
ATOM     11  C   UNL d   1      23.418 -18.468  -0.781  0.00  0.00     0.093 C 
ATOM     12  C   UNL d   1      24.034 -18.207   0.597  0.00  0.00     0.021 C 
BRANCH  11  13
ATOM     13  C   UNL d   1      21.972 -17.964  -0.820  0.00  0.00     0.237 C 
ATOM     14  O   UNL d   1      21.666 -16.770  -0.904  0.00  0.00    -0.272 OA
ATOM     15  N   UNL d   1      20.991 -18.951  -0.762  0.00  0.00    -0.294 N 
ATOM     16  H   UNL d   1      21.228 -19.940  -0.801  0.00  0.00     0.183 HD
BRANCH  15  17
ATOM     17  N   UNL d   1      19.632 -18.575  -0.895  0.00  0.00    -0.247 NA
ATOM     18  H   UNL d   1      19.300 -18.971  -1.788  0.00  0.00     0.143 HD
ATOM     19  H   UNL d   1      19.583 -17.563  -1.037  0.00  0.00     0.143 HD
ENDBRANCH  15  17
ENDBRANCH  11  13
ENDBRANCH   1  11
TORSDOF 5
ENDMDL
MODEL 4
REMARK VINA RESULT:   -28.074      1.526      2.045
REMARK INTER + INTRA:         -30.896
REMARK INTER:                 -29.566
REMARK INTRA:                  -1.330
REMARK CONF_INDEPENDENT:        1.492
REMARK UNBOUND:                -1.330
REMARK  5 active torsions:
REMARK  status: ('A' for Active; 'I' for Inactive)
REMARK    1  A    between atoms: C_2  and  C_12 
REMARK    2  A    between atoms: C_2  and  C_3 
REMARK    3  A    between atoms: C_3  and  N_4 
REMARK    4  A    between atoms: N_4  and  C_5 
REMARK       I    between atoms: C_12  and  N_14 
REMARK    5  A    between atoms: N_14  and  N_15 
ROOT
ATOM      1  C   UNL d   1      24.246 -17.807  -1.878  0.00  0.00     0.133 C 
ENDROOT
BRANCH   1   2
ATOM      2  N   UNL d   1      24.127 -16.345  -1.828  0.00  0.00    -0.389 N 
ATOM      3  H   UNL d   1      23.643 -15.928  -1.041  0.00  0.00     0.159 HD
BRANCH   2   4
ATOM      4  C   UNL d   1      25.054 -15.536  -2.478  0.00  0.00     0.028 A 
ATOM      5  C   UNL d   1      24.669 -14.368  -3.145  0.00  0.00     0.030 A 
ATOM      6  C   UNL d   1      25.618 -13.503  -3.703  0.00  0.00     0.021 A 
ATOM      7  C   UNL d   1      26.968 -13.828  -3.645  0.00  0.00     0.011 A 
ATOM      8 BR   UNL d   1      28.253 -12.639  -4.359  0.00  0.00    -0.051 Br
ATOM      9  C   UNL d   1      27.373 -15.021  -3.055  0.00  0.00     0.021 A 
ATOM     10  C   UNL d   1      26.416 -15.872  -2.481  0.00  0.00     0.030 A 
ENDBRANCH   2   4
ENDBRANCH   1   2
BRANCH   1  11
ATOM     11  C   UNL d   1      23.388 -18.485  -0.779  0.00  0.00     0.093 C 
ATOM     12  C   UNL d   1      24.008 -18.214   0.596  0.00  0.00     0.021 C 
BRANCH  11  13
ATOM     13  C   UNL d   1      21.944 -17.976  -0.818  0.00  0.00     0.237 C 
ATOM     14  O   UNL d   1      21.641 -16.780  -0.899  0.00  0.00    -0.272 OA
ATOM     15  N   UNL d   1      20.960 -18.960  -0.764  0.00  0.00    -0.294 N 
ATOM     16  H   UNL d   1      21.193 -19.949  -0.806  0.00  0.00     0.183 HD
BRANCH  15  17
ATOM     17  N   UNL d   1      19.601 -18.579  -0.897  0.00  0.00    -0.247 NA
ATOM     18  H   UNL d   1      19.190 -19.194  -1.617  0.00  0.00     0.143 HD
ATOM     19  H   UNL d   1      19.561 -17.646  -1.314  0.00  0.00     0.143 HD
ENDBRANCH  15  17
ENDBRANCH  11  13
ENDBRANCH   1  11
TORSDOF 5
ENDMDL
MODEL 5
REMARK VINA RESULT:   -27.892      2.179      2.473
REMARK INTER + INTRA:         -30.710
REMARK INTER:                 -29.384
REMARK INTRA:                  -1.327
REMARK CONF_INDEPENDENT:        1.492
REMARK UNBOUND:                -1.327
REMARK  5 active torsions:
REMARK  status: ('A' for Active; 'I' for Inactive)
REMARK    1  A    between atoms: C_2  and  C_12 
REMARK    2  A    between atoms: C_2  and  C_3 
REMARK    3  A    between atoms: C_3  and  N_4 
REMARK    4  A    between atoms: N_4  and  C_5 
REMARK       I    between atoms: C_12  and  N_14 
REMARK    5  A    between atoms: N_14  and  N_15 
ROOT
ATOM      1  C   UNL d   1      24.190 -17.765  -1.965  0.00  0.00     0.133 C 
ENDROOT
BRANCH   1   2
ATOM      2  N   UNL d   1      24.390 -16.394  -1.478  0.00  0.00    -0.389 N 
ATOM      3  H   UNL d   1      23.587 -15.885  -1.128  0.00  0.00     0.159 HD
BRANCH   2   4
ATOM      4  C   UNL d   1      25.632 -15.987  -1.001  0.00  0.00     0.028 A 
ATOM      5  C   UNL d   1      26.442 -16.837  -0.241  0.00  0.00     0.030 A 
ATOM      6  C   UNL d   1      27.734 -16.460   0.145  0.00  0.00     0.021 A 
ATOM      7  C   UNL d   1      28.211 -15.197  -0.184  0.00  0.00     0.011 A 
ATOM      8 BR   UNL d   1      29.972 -14.703   0.297  0.00  0.00    -0.051 Br
ATOM      9  C   UNL d   1      27.399 -14.301  -0.872  0.00  0.00     0.021 A 
ATOM     10  C   UNL d   1      26.113 -14.697  -1.272  0.00  0.00     0.030 A 
ENDBRANCH   2   4
ENDBRANCH   1   2
BRANCH   1  11
ATOM     11  C   UNL d   1      23.321 -18.593  -0.984  0.00  0.00     0.093 C 
ATOM     12  C   UNL d   1      23.962 -18.578   0.408  0.00  0.00     0.021 C 
BRANCH  11  13
ATOM     13  C   UNL d   1      21.893 -18.043  -0.916  0.00  0.00     0.237 C 
ATOM     14  O   UNL d   1      21.624 -16.837  -0.901  0.00  0.00    -0.272 OA
ATOM     15  N   UNL d   1      20.883 -19.001  -0.880  0.00  0.00    -0.294 N 
ATOM     16  H   UNL d   1      21.083 -19.991  -1.000  0.00  0.00     0.183 HD
BRANCH  15  17
ATOM     17  N   UNL d   1      19.532 -18.575  -0.919  0.00  0.00    -0.247 NA
ATOM     18  H   UNL d   1      19.065 -19.136  -1.648  0.00  0.00     0.143 HD
ATOM     19  H   UNL d   1      19.500 -17.618  -1.280  0.00  0.00     0.143 HD
ENDBRANCH  15  17
ENDBRANCH  11  13
ENDBRANCH   1  11
TORSDOF 5
ENDMDL
MODEL 6
REMARK VINA RESULT:   -27.751      1.836      2.225
REMARK INTER + INTRA:         -30.704
REMARK INTER:                 -29.243
REMARK INTRA:                  -1.461
REMARK CONF_INDEPENDENT:        1.492
REMARK UNBOUND:                -1.461
REMARK  5 active torsions:
REMARK  status: ('A' for Active; 'I' for Inactive)
REMARK    1  A    between atoms: C_2  and  C_12 
REMARK    2  A    between atoms: C_2  and  C_3 
REMARK    3  A    between atoms: C_3  and  N_4 
REMARK    4  A    between atoms: N_4  and  C_5 
REMARK       I    between atoms: C_12  and  N_14 
REMARK    5  A    between atoms: N_14  and  N_15 
ROOT
ATOM      1  C   UNL d   1      24.064 -17.827  -1.869  0.00  0.00     0.133 C 
ENDROOT
BRANCH   1   2
ATOM      2  N   UNL d   1      23.955 -16.373  -1.701  0.00  0.00    -0.389 N 
ATOM      3  H   UNL d   1      23.139 -16.002  -1.228  0.00  0.00     0.159 HD
BRANCH   2   4
ATOM      4  C   UNL d   1      25.095 -15.576  -1.676  0.00  0.00     0.028 A 
ATOM      5  C   UNL d   1      25.474 -14.800  -2.777  0.00  0.00     0.030 A 
ATOM      6  C   UNL d   1      26.559 -13.919  -2.708  0.00  0.00     0.021 A 
ATOM      7  C   UNL d   1      27.314 -13.843  -1.544  0.00  0.00     0.011 A 
ATOM      8 BR   UNL d   1      28.752 -12.621  -1.434  0.00  0.00    -0.051 Br
ATOM      9  C   UNL d   1      27.007 -14.658  -0.459  0.00  0.00     0.021 A 
ATOM     10  C   UNL d   1      25.905 -15.524  -0.531  0.00  0.00     0.030 A 
ENDBRANCH   2   4
ENDBRANCH   1   2
BRANCH   1  11
ATOM     11  C   UNL d   1      23.247 -18.585  -0.791  0.00  0.00     0.093 C 
ATOM     12  C   UNL d   1      23.756 -18.201   0.603  0.00  0.00     0.021 C 
BRANCH  11  13
ATOM     13  C   UNL d   1      21.752 -18.274  -0.913  0.00  0.00     0.237 C 
ATOM     14  O   UNL d   1      21.289 -17.128  -0.909  0.00  0.00    -0.272 OA
ATOM     15  N   UNL d   1      20.918 -19.381  -1.042  0.00  0.00    -0.294 N 
ATOM     16  H   UNL d   1      21.293 -20.320  -1.155  0.00  0.00     0.183 HD
BRANCH  15  17
ATOM     17  N   UNL d   1      19.534 -19.175  -1.263  0.00  0.00    -0.247 NA
ATOM     18  H   UNL d   1      19.317 -19.579  -2.187  0.00  0.00     0.143 HD
ATOM     19  H   UNL d   1      19.366 -18.173  -1.382  0.00  0.00     0.143 HD
ENDBRANCH  15  17
ENDBRANCH  11  13
ENDBRANCH   1  11
TORSDOF 5
ENDMDL
