MODEL 1
REMARK VINA RESULT:   -28.423      0.000      0.000
REMARK INTER + INTRA:         -31.486
REMARK INTER:                 -30.213
REMARK INTRA:                  -1.273
REMARK CONF_INDEPENDENT:        1.790
REMARK UNBOUND:                -1.273
REMARK  6 active torsions:
REMARK  status: ('A' for Active; 'I' for Inactive)
REMARK    1  A    between atoms: N_1  and  C_2 
REMARK    2  A    between atoms: C_2  and  C_18 
REMARK    3  A    between atoms: N_3  and  N_4 
REMARK       I    between atoms: N_4  and  C_5 
REMARK       I    between atoms: C_5  and  N_7 
REMARK    4  A    between atoms: N_7  and  C_8 
REMARK    5  A    between atoms: C_12  and  C_13 
REMARK    6  A    between atoms: C_21  and  C_22 
ROOT
ATOM      1  N   UNL d   1      23.301 -16.077  -0.943  0.00  0.00    -0.227 N 
ATOM      2  C   UNL d   1      24.610 -16.556  -0.866  0.00  0.00     0.341 C 
ATOM      3  O   UNL d   1      24.881 -17.691  -0.455  0.00  0.00    -0.245 OA
ATOM      4  N   UNL d   1      25.590 -15.639  -1.261  0.00  0.00    -0.308 N 
ATOM      5  H   UNL d   1      23.092 -15.177  -1.337  0.00  0.00     0.194 HD
ATOM      6  H   UNL d   1      25.348 -14.665  -1.354  0.00  0.00     0.170 HD
ENDROOT
BRANCH   1   7
ATOM      7  N   UNL d   1      22.263 -16.892  -0.510  0.00  0.00    -0.151 NA
ATOM      8  C   UNL d   1      22.095 -18.089  -0.997  0.00  0.00     0.170 C 
BRANCH   8   9
ATOM      9  N   UNL d   1      22.905 -18.669  -1.960  0.00  0.00    -0.381 N 
ATOM     10  H   UNL d   1      22.508 -19.355  -2.580  0.00  0.00     0.157 HD
ATOM     11  H   UNL d   1      23.878 -18.839  -1.727  0.00  0.00     0.157 HD
ENDBRANCH   8   9
BRANCH   8  12
ATOM     12  C   UNL d   1      20.946 -18.951  -0.442  0.00  0.00     0.103 A 
ATOM     13  C   UNL d   1      21.025 -19.436   0.862  0.00  0.00     0.036 A 
ATOM     14  C   UNL d   1      19.995 -20.244   1.354  0.00  0.00     0.020 A 
ATOM     15  C   UNL d   1      18.905 -20.557   0.538  0.00  0.00     0.065 A 
ATOM     16  C   UNL d   1      18.912 -20.032  -0.750  0.00  0.00     0.133 A 
ATOM     17  N   UNL d   1      19.905 -19.250  -1.261  0.00  0.00    -0.256 NA
BRANCH  15  18
ATOM     18  C   UNL d   1      17.768 -21.420   1.007  0.00  0.00     0.418 C 
ATOM     19  F   UNL d   1      18.161 -22.678   1.346  0.00  0.00    -0.166 F 
ATOM     20  F   UNL d   1      17.144 -20.912   2.105  0.00  0.00    -0.166 F 
ATOM     21  F   UNL d   1      16.790 -21.578   0.069  0.00  0.00    -0.166 F 
ENDBRANCH  15  18
ENDBRANCH   8  12
ENDBRANCH   1   7
BRANCH   4  22
ATOM     22  C   UNL d   1      26.977 -15.970  -1.278  0.00  0.00     0.037 A 
ATOM     23  C   UNL d   1      27.712 -16.131  -0.095  0.00  0.00     0.029 A 
ATOM     24  C   UNL d   1      29.092 -16.401  -0.143  0.00  0.00     0.003 A 
ATOM     25  C   UNL d   1      29.745 -16.525  -1.370  0.00  0.00     0.016 A 
ATOM     26  C   UNL d   1      29.031 -16.343  -2.559  0.00  0.00     0.050 A 
ATOM     27  C   UNL d   1      27.653 -16.079  -2.496  0.00  0.00     0.045 A 
BRANCH  26  28
ATOM     28  C   UNL d   1      29.734 -16.373  -3.890  0.00  0.00     0.417 C 
ATOM     29  F   UNL d   1      29.958 -17.649  -4.314  0.00  0.00    -0.166 F 
ATOM     30  F   UNL d   1      29.022 -15.771  -4.880  0.00  0.00    -0.166 F 
ATOM     31  F   UNL d   1      30.955 -15.771  -3.881  0.00  0.00    -0.166 F 
ENDBRANCH  26  28
ENDBRANCH   4  22
TORSDOF 6
ENDMDL
MODEL 2
REMARK VINA RESULT:   -28.389      2.753      3.299
REMARK INTER + INTRA:         -31.453
REMARK INTER:                 -30.179
REMARK INTRA:                  -1.275
REMARK CONF_INDEPENDENT:        1.790
REMARK UNBOUND:                -1.275
REMARK  6 active torsions:
REMARK  status: ('A' for Active; 'I' for Inactive)
REMARK    1  A    between atoms: N_1  and  C_2 
REMARK    2  A    between atoms: C_2  and  C_18 
REMARK    3  A    between atoms: N_3  and  N_4 
REMARK       I    between atoms: N_4  and  C_5 
REMARK       I    between atoms: C_5  and  N_7 
REMARK    4  A    between atoms: N_7  and  C_8 
REMARK    5  A    between atoms: C_12  and  C_13 
REMARK    6  A    between atoms: C_21  and  C_22 
ROOT
ATOM      1  N   UNL d   1      24.048 -17.868  -2.155  0.00  0.00    -0.227 N 
ATOM      2  C   UNL d   1      24.942 -17.269  -1.265  0.00  0.00     0.341 C 
ATOM      3  O   UNL d   1      24.846 -17.397  -0.039  0.00  0.00    -0.245 OA
ATOM      4  N   UNL d   1      25.932 -16.488  -1.871  0.00  0.00    -0.308 N 
ATOM      5  H   UNL d   1      24.175 -17.806  -3.150  0.00  0.00     0.194 HD
ATOM      6  H   UNL d   1      25.829 -16.219  -2.837  0.00  0.00     0.170 HD
ENDROOT
BRANCH   1   7
ATOM      7  N   UNL d   1      22.991 -18.609  -1.646  0.00  0.00    -0.151 NA
ATOM      8  C   UNL d   1      22.085 -18.061  -0.885  0.00  0.00     0.170 C 
BRANCH   8   9
ATOM      9  N   UNL d   1      22.067 -16.725  -0.519  0.00  0.00    -0.381 N 
ATOM     10  H   UNL d   1      21.483 -16.087  -1.034  0.00  0.00     0.157 HD
ATOM     11  H   UNL d   1      22.930 -16.310  -0.181  0.00  0.00     0.157 HD
ENDBRANCH   8   9
BRANCH   8  12
ATOM     12  C   UNL d   1      20.919 -18.935  -0.388  0.00  0.00     0.103 A 
ATOM     13  C   UNL d   1      20.956 -19.451   0.906  0.00  0.00     0.036 A 
ATOM     14  C   UNL d   1      19.911 -20.270   1.345  0.00  0.00     0.020 A 
ATOM     15  C   UNL d   1      18.848 -20.563   0.487  0.00  0.00     0.065 A 
ATOM     16  C   UNL d   1      18.896 -20.007  -0.788  0.00  0.00     0.133 A 
ATOM     17  N   UNL d   1      19.905 -19.214  -1.247  0.00  0.00    -0.256 NA
BRANCH  15  18
ATOM     18  C   UNL d   1      17.697 -21.436   0.898  0.00  0.00     0.418 C 
ATOM     19  F   UNL d   1      18.080 -22.700   1.226  0.00  0.00    -0.166 F 
ATOM     20  F   UNL d   1      17.033 -20.951   1.983  0.00  0.00    -0.166 F 
ATOM     21  F   UNL d   1      16.753 -21.577  -0.076  0.00  0.00    -0.166 F 
ENDBRANCH  15  18
ENDBRANCH   8  12
ENDBRANCH   1   7
BRANCH   4  22
ATOM     22  C   UNL d   1      26.947 -15.830  -1.116  0.00  0.00     0.037 A 
ATOM     23  C   UNL d   1      28.282 -16.255  -1.146  0.00  0.00     0.029 A 
ATOM     24  C   UNL d   1      29.251 -15.622  -0.346  0.00  0.00     0.003 A 
ATOM     25  C   UNL d   1      28.899 -14.552   0.477  0.00  0.00     0.016 A 
ATOM     26  C   UNL d   1      27.565 -14.131   0.536  0.00  0.00     0.050 A 
ATOM     27  C   UNL d   1      26.610 -14.769  -0.271  0.00  0.00     0.045 A 
BRANCH  26  28
ATOM     28  C   UNL d   1      27.144 -13.047   1.491  0.00  0.00     0.417 C 
ATOM     29  F   UNL d   1      25.807 -13.097   1.755  0.00  0.00    -0.166 F 
ATOM     30  F   UNL d   1      27.765 -13.131   2.698  0.00  0.00    -0.166 F 
ATOM     31  F   UNL d   1      27.378 -11.787   1.032  0.00  0.00    -0.166 F 
ENDBRANCH  26  28
ENDBRANCH   4  22
TORSDOF 6
ENDMDL
MODEL 3
REMARK VINA RESULT:   -28.380      2.586      3.141
REMARK INTER + INTRA:         -31.256
REMARK INTER:                 -30.170
REMARK INTRA:                  -1.086
REMARK CONF_INDEPENDENT:        1.790
REMARK UNBOUND:                -1.086
REMARK  6 active torsions:
REMARK  status: ('A' for Active; 'I' for Inactive)
REMARK    1  A    between atoms: N_1  and  C_2 
REMARK    2  A    between atoms: C_2  and  C_18 
REMARK    3  A    between atoms: N_3  and  N_4 
REMARK       I    between atoms: N_4  and  C_5 
REMARK       I    between atoms: C_5  and  N_7 
REMARK    4  A    between atoms: N_7  and  C_8 
REMARK    5  A    between atoms: C_12  and  C_13 
REMARK    6  A    between atoms: C_21  and  C_22 
ROOT
ATOM      1  N   UNL d   1      24.139 -17.727  -2.012  0.00  0.00    -0.227 N 
ATOM      2  C   UNL d   1      24.666 -16.683  -1.250  0.00  0.00     0.341 C 
ATOM      3  O   UNL d   1      24.275 -16.432  -0.104  0.00  0.00    -0.245 OA
ATOM      4  N   UNL d   1      25.647 -15.926  -1.899  0.00  0.00    -0.308 N 
ATOM      5  H   UNL d   1      24.509 -17.957  -2.917  0.00  0.00     0.194 HD
ATOM      6  H   UNL d   1      25.758 -16.011  -2.897  0.00  0.00     0.170 HD
ENDROOT
BRANCH   1   7
ATOM      7  N   UNL d   1      23.112 -18.495  -1.478  0.00  0.00    -0.151 NA
ATOM      8  C   UNL d   1      22.051 -17.940  -0.962  0.00  0.00     0.170 C 
BRANCH   8   9
ATOM      9  N   UNL d   1      21.829 -16.575  -0.898  0.00  0.00    -0.381 N 
ATOM     10  H   UNL d   1      22.137 -16.070  -0.083  0.00  0.00     0.157 HD
ATOM     11  H   UNL d   1      20.976 -16.208  -1.310  0.00  0.00     0.157 HD
ENDBRANCH   8   9
BRANCH   8  12
ATOM     12  C   UNL d   1      20.936 -18.854  -0.423  0.00  0.00     0.103 A 
ATOM     13  C   UNL d   1      21.035 -19.362   0.871  0.00  0.00     0.036 A 
ATOM     14  C   UNL d   1      20.035 -20.217   1.347  0.00  0.00     0.020 A 
ATOM     15  C   UNL d   1      18.957 -20.553   0.525  0.00  0.00     0.065 A 
ATOM     16  C   UNL d   1      18.942 -20.002  -0.752  0.00  0.00     0.133 A 
ATOM     17  N   UNL d   1      19.905 -19.175  -1.247  0.00  0.00    -0.256 NA
BRANCH  15  18
ATOM     18  C   UNL d   1      17.852 -21.467   0.978  0.00  0.00     0.418 C 
ATOM     19  F   UNL d   1      16.916 -21.685   0.016  0.00  0.00    -0.166 F 
ATOM     20  F   UNL d   1      18.307 -22.696   1.347  0.00  0.00    -0.166 F 
ATOM     21  F   UNL d   1      17.168 -20.990   2.058  0.00  0.00    -0.166 F 
ENDBRANCH  15  18
ENDBRANCH   8  12
ENDBRANCH   1   7
BRANCH   4  22
ATOM     22  C   UNL d   1      26.316 -14.841  -1.258  0.00  0.00     0.037 A 
ATOM     23  C   UNL d   1      26.723 -14.912   0.081  0.00  0.00     0.029 A 
ATOM     24  C   UNL d   1      27.329 -13.805   0.703  0.00  0.00     0.003 A 
ATOM     25  C   UNL d   1      27.547 -12.626  -0.011  0.00  0.00     0.016 A 
ATOM     26  C   UNL d   1      27.126 -12.531  -1.342  0.00  0.00     0.050 A 
ATOM     27  C   UNL d   1      26.526 -13.646  -1.951  0.00  0.00     0.045 A 
BRANCH  26  28
ATOM     28  C   UNL d   1      27.259 -11.238  -2.100  0.00  0.00     0.417 C 
ATOM     29  F   UNL d   1      28.565 -10.899  -2.296  0.00  0.00    -0.166 F 
ATOM     30  F   UNL d   1      26.698 -11.287  -3.338  0.00  0.00    -0.166 F 
ATOM     31  F   UNL d   1      26.695 -10.170  -1.471  0.00  0.00    -0.166 F 
ENDBRANCH  26  28
ENDBRANCH   4  22
TORSDOF 6
ENDMDL
MODEL 4
REMARK VINA RESULT:   -27.832      1.424      2.033
REMARK INTER + INTRA:         -31.160
REMARK INTER:                 -29.622
REMARK INTRA:                  -1.539
REMARK CONF_INDEPENDENT:        1.790
REMARK UNBOUND:                -1.539
REMARK  6 active torsions:
REMARK  status: ('A' for Active; 'I' for Inactive)
REMARK    1  A    between atoms: N_1  and  C_2 
REMARK    2  A    between atoms: C_2  and  C_18 
REMARK    3  A    between atoms: N_3  and  N_4 
REMARK       I    between atoms: N_4  and  C_5 
REMARK       I    between atoms: C_5  and  N_7 
REMARK    4  A    between atoms: N_7  and  C_8 
REMARK    5  A    between atoms: C_12  and  C_13 
REMARK    6  A    between atoms: C_21  and  C_22 
ROOT
ATOM      1  N   UNL d   1      24.345 -17.075  -0.067  0.00  0.00    -0.227 N 
ATOM      2  C   UNL d   1      24.714 -16.808  -1.387  0.00  0.00     0.341 C 
ATOM      3  O   UNL d   1      24.103 -17.272  -2.356  0.00  0.00    -0.245 OA
ATOM      4  N   UNL d   1      25.850 -16.002  -1.522  0.00  0.00    -0.308 N 
ATOM      5  H   UNL d   1      24.813 -16.641   0.709  0.00  0.00     0.194 HD
ATOM      6  H   UNL d   1      26.448 -15.851  -0.724  0.00  0.00     0.170 HD
ENDROOT
BRANCH   1   7
ATOM      7  N   UNL d   1      23.269 -17.920   0.169  0.00  0.00    -0.151 NA
ATOM      8  C   UNL d   1      22.080 -17.647  -0.293  0.00  0.00     0.170 C 
BRANCH   8   9
ATOM      9  N   UNL d   1      21.767 -16.532  -1.050  0.00  0.00    -0.381 N 
ATOM     10  H   UNL d   1      20.884 -16.504  -1.534  0.00  0.00     0.157 HD
ATOM     11  H   UNL d   1      22.519 -16.060  -1.542  0.00  0.00     0.157 HD
ENDBRANCH   8   9
BRANCH   8  12
ATOM     12  C   UNL d   1      20.943 -18.650  -0.024  0.00  0.00     0.103 A 
ATOM     13  C   UNL d   1      21.030 -19.504   1.073  0.00  0.00     0.036 A 
ATOM     14  C   UNL d   1      20.011 -20.435   1.297  0.00  0.00     0.020 A 
ATOM     15  C   UNL d   1      18.923 -20.501   0.423  0.00  0.00     0.065 A 
ATOM     16  C   UNL d   1      18.922 -19.612  -0.647  0.00  0.00     0.133 A 
ATOM     17  N   UNL d   1      19.904 -18.701  -0.897  0.00  0.00    -0.256 NA
BRANCH  15  18
ATOM     18  C   UNL d   1      17.797 -21.479   0.608  0.00  0.00     0.418 C 
ATOM     19  F   UNL d   1      18.228 -22.758   0.775  0.00  0.00    -0.166 F 
ATOM     20  F   UNL d   1      17.031 -21.194   1.697  0.00  0.00    -0.166 F 
ATOM     21  F   UNL d   1      16.935 -21.513  -0.448  0.00  0.00    -0.166 F 
ENDBRANCH  15  18
ENDBRANCH   8  12
ENDBRANCH   1   7
BRANCH   4  22
ATOM     22  C   UNL d   1      26.350 -15.602  -2.796  0.00  0.00     0.037 A 
ATOM     23  C   UNL d   1      25.535 -14.967  -3.743  0.00  0.00     0.029 A 
ATOM     24  C   UNL d   1      26.042 -14.637  -5.014  0.00  0.00     0.003 A 
ATOM     25  C   UNL d   1      27.367 -14.924  -5.343  0.00  0.00     0.016 A 
ATOM     26  C   UNL d   1      28.186 -15.580  -4.417  0.00  0.00     0.050 A 
ATOM     27  C   UNL d   1      27.669 -15.900  -3.151  0.00  0.00     0.045 A 
BRANCH  26  28
ATOM     28  C   UNL d   1      29.587 -15.990  -4.786  0.00  0.00     0.417 C 
ATOM     29  F   UNL d   1      29.919 -17.196  -4.244  0.00  0.00    -0.166 F 
ATOM     30  F   UNL d   1      29.765 -16.122  -6.127  0.00  0.00    -0.166 F 
ATOM     31  F   UNL d   1      30.545 -15.122  -4.359  0.00  0.00    -0.166 F 
ENDBRANCH  26  28
ENDBRANCH   4  22
TORSDOF 6
ENDMDL
MODEL 5
REMARK VINA RESULT:   -25.847      2.965      3.617
REMARK INTER + INTRA:         -29.020
REMARK INTER:                 -27.637
REMARK INTRA:                  -1.383
REMARK CONF_INDEPENDENT:        1.790
REMARK UNBOUND:                -1.383
REMARK  6 active torsions:
REMARK  status: ('A' for Active; 'I' for Inactive)
REMARK    1  A    between atoms: N_1  and  C_2 
REMARK    2  A    between atoms: C_2  and  C_18 
REMARK    3  A    between atoms: N_3  and  N_4 
REMARK       I    between atoms: N_4  and  C_5 
REMARK       I    between atoms: C_5  and  N_7 
REMARK    4  A    between atoms: N_7  and  C_8 
REMARK    5  A    between atoms: C_12  and  C_13 
REMARK    6  A    between atoms: C_21  and  C_22 
ROOT
ATOM      1  N   UNL d   1      24.074 -17.057  -0.075  0.00  0.00    -0.227 N 
ATOM      2  C   UNL d   1      24.025 -16.052  -1.044  0.00  0.00     0.341 C 
ATOM      3  O   UNL d   1      22.978 -15.730  -1.617  0.00  0.00    -0.245 OA
ATOM      4  N   UNL d   1      25.260 -15.462  -1.333  0.00  0.00    -0.308 N 
ATOM      5  H   UNL d   1      24.919 -17.265   0.426  0.00  0.00     0.194 HD
ATOM      6  H   UNL d   1      26.109 -15.913  -1.026  0.00  0.00     0.170 HD
ENDROOT
BRANCH   1   7
ATOM      7  N   UNL d   1      22.909 -17.747   0.233  0.00  0.00    -0.151 NA
ATOM      8  C   UNL d   1      22.264 -18.425  -0.674  0.00  0.00     0.170 C 
BRANCH   8   9
ATOM      9  N   UNL d   1      22.655 -18.539  -1.998  0.00  0.00    -0.381 N 
ATOM     10  H   UNL d   1      23.114 -17.759  -2.439  0.00  0.00     0.157 HD
ATOM     11  H   UNL d   1      22.068 -19.079  -2.626  0.00  0.00     0.157 HD
ENDBRANCH   8   9
BRANCH   8  12
ATOM     12  C   UNL d   1      21.001 -19.197  -0.252  0.00  0.00     0.103 A 
ATOM     13  C   UNL d   1      21.029 -19.970   0.908  0.00  0.00     0.036 A 
ATOM     14  C   UNL d   1      19.890 -20.695   1.273  0.00  0.00     0.020 A 
ATOM     15  C   UNL d   1      18.744 -20.640   0.476  0.00  0.00     0.065 A 
ATOM     16  C   UNL d   1      18.808 -19.846  -0.664  0.00  0.00     0.133 A 
ATOM     17  N   UNL d   1      19.905 -19.136  -1.051  0.00  0.00    -0.256 NA
BRANCH  15  18
ATOM     18  C   UNL d   1      17.490 -21.396   0.814  0.00  0.00     0.418 C 
ATOM     19  F   UNL d   1      16.531 -21.288  -0.145  0.00  0.00    -0.166 F 
ATOM     20  F   UNL d   1      17.710 -22.729   0.979  0.00  0.00    -0.166 F 
ATOM     21  F   UNL d   1      16.904 -20.975   1.972  0.00  0.00    -0.166 F 
ENDBRANCH  15  18
ENDBRANCH   8  12
ENDBRANCH   1   7
BRANCH   4  22
ATOM     22  C   UNL d   1      25.392 -14.397  -2.273  0.00  0.00     0.037 A 
ATOM     23  C   UNL d   1      24.787 -14.449  -3.536  0.00  0.00     0.029 A 
ATOM     24  C   UNL d   1      24.982 -13.410  -4.464  0.00  0.00     0.003 A 
ATOM     25  C   UNL d   1      25.768 -12.306  -4.133  0.00  0.00     0.016 A 
ATOM     26  C   UNL d   1      26.399 -12.251  -2.885  0.00  0.00     0.050 A 
ATOM     27  C   UNL d   1      26.191 -13.293  -1.967  0.00  0.00     0.045 A 
BRANCH  26  28
ATOM     28  C   UNL d   1      27.332 -11.120  -2.545  0.00  0.00     0.417 C 
ATOM     29  F   UNL d   1      26.671 -10.076  -1.967  0.00  0.00    -0.166 F 
ATOM     30  F   UNL d   1      28.303 -11.480  -1.664  0.00  0.00    -0.166 F 
ATOM     31  F   UNL d   1      27.974 -10.593  -3.623  0.00  0.00    -0.166 F 
ENDBRANCH  26  28
ENDBRANCH   4  22
TORSDOF 6
ENDMDL
