MODEL 1
REMARK VINA RESULT:    -8.182      0.000      0.000
REMARK INTER + INTRA:         -12.072
REMARK INTER:                 -10.568
REMARK INTRA:                  -1.503
REMARK CONF_INDEPENDENT:        2.386
REMARK UNBOUND:                -1.503
REMARK  8 active torsions:
REMARK  status: ('A' for Active; 'I' for Inactive)
REMARK    1  A    between atoms: C_5  and  O_6 
REMARK    2  A    between atoms: O_6  and  C_7 
REMARK    3  A    between atoms: C_7  and  C_8 
REMARK    4  A    between atoms: C_8  and  C_9 
REMARK    5  A    between atoms: C_9  and  C_10 
REMARK       I    between atoms: C_10  and  N_12 
REMARK    6  A    between atoms: N_12  and  N_13 
REMARK       I    between atoms: N_13  and  C_14 
REMARK       I    between atoms: C_14  and  N_16 
REMARK    7  A    between atoms: N_16  and  C_17 
REMARK    8  A    between atoms: C_17  and  C_18 
ROOT
ATOM      1  C   UNL d   1      25.271 -17.589  -0.271  0.00  0.00     0.236 C 
ATOM      2  O   UNL d   1      25.776 -18.477   0.417  0.00  0.00    -0.272 OA
ATOM      3  N   UNL d   1      23.914 -17.596  -0.578  0.00  0.00    -0.266 N 
ATOM      4  H   UNL d   1      23.444 -16.891  -1.143  0.00  0.00     0.190 HD
ENDROOT
BRANCH   1   5
ATOM      5  C   UNL d   1      26.093 -16.415  -0.838  0.00  0.00     0.106 C 
BRANCH   5   6
ATOM      6  C   UNL d   1      25.760 -16.123  -2.318  0.00  0.00     0.036 C 
BRANCH   6   7
ATOM      7  C   UNL d   1      24.974 -14.821  -2.531  0.00  0.00     0.176 C 
BRANCH   7   8
ATOM      8  O   UNL d   1      24.780 -14.586  -3.938  0.00  0.00    -0.351 OA
BRANCH   8   9
ATOM      9  C   UNL d   1      25.881 -14.165  -4.646  0.00  0.00     0.068 A 
ATOM     10  C   UNL d   1      26.670 -15.165  -5.228  0.00  0.00     0.037 A 
ATOM     11  C   UNL d   1      27.806 -14.835  -5.983  0.00  0.00     0.009 A 
ATOM     12  C   UNL d   1      28.171 -13.498  -6.168  0.00  0.00    -0.062 A 
ATOM     13  C   UNL d   1      29.367 -13.112  -6.987  0.00  0.00     0.048 C 
ATOM     14  C   UNL d   1      27.388 -12.502  -5.577  0.00  0.00     0.009 A 
ATOM     15  C   UNL d   1      26.257 -12.833  -4.824  0.00  0.00     0.037 A 
ENDBRANCH   8   9
ENDBRANCH   7   8
ENDBRANCH   6   7
ENDBRANCH   5   6
ENDBRANCH   1   5
BRANCH   3  16
ATOM     16  N   UNL d   1      23.083 -18.660  -0.083  0.00  0.00    -0.249 N 
ATOM     17  C   UNL d   1      21.740 -18.700  -0.420  0.00  0.00     0.334 C 
ATOM     18  O   UNL d   1      21.219 -17.842  -1.135  0.00  0.00    -0.246 OA
ATOM     19  N   UNL d   1      21.039 -19.772   0.101  0.00  0.00    -0.341 N 
ATOM     20  H   UNL d   1      21.496 -20.438   0.704  0.00  0.00     0.164 HD
ATOM     21  H   UNL d   1      23.545 -19.353   0.497  0.00  0.00     0.192 HD
BRANCH  19  22
ATOM     22  C   UNL d   1      19.622 -19.950  -0.189  0.00  0.00     0.129 C 
BRANCH  22  23
ATOM     23  C   UNL d   1      18.739 -19.949   1.034  0.00  0.00     0.003 A 
ATOM     24  C   UNL d   1      18.231 -21.282   1.552  0.00  0.00     0.007 A 
ATOM     25  C   UNL d   1      19.144 -20.451   2.402  0.00  0.00     0.007 A 
ENDBRANCH  22  23
ENDBRANCH  19  22
ENDBRANCH   3  16
TORSDOF 8
ENDMDL
MODEL 2
REMARK VINA RESULT:    -7.960      0.674      1.249
REMARK INTER + INTRA:         -11.933
REMARK INTER:                 -10.346
REMARK INTRA:                  -1.587
REMARK CONF_INDEPENDENT:        2.386
REMARK UNBOUND:                -1.587
REMARK  8 active torsions:
REMARK  status: ('A' for Active; 'I' for Inactive)
REMARK    1  A    between atoms: C_5  and  O_6 
REMARK    2  A    between atoms: O_6  and  C_7 
REMARK    3  A    between atoms: C_7  and  C_8 
REMARK    4  A    between atoms: C_8  and  C_9 
REMARK    5  A    between atoms: C_9  and  C_10 
REMARK       I    between atoms: C_10  and  N_12 
REMARK    6  A    between atoms: N_12  and  N_13 
REMARK       I    between atoms: N_13  and  C_14 
REMARK       I    between atoms: C_14  and  N_16 
REMARK    7  A    between atoms: N_16  and  C_17 
REMARK    8  A    between atoms: C_17  and  C_18 
ROOT
ATOM      1  C   UNL d   1      25.363 -17.487   0.148  0.00  0.00     0.236 C 
ATOM      2  O   UNL d   1      25.852 -18.474   0.699  0.00  0.00    -0.272 OA
ATOM      3  N   UNL d   1      24.014 -17.439  -0.185  0.00  0.00    -0.266 N 
ATOM      4  H   UNL d   1      23.557 -16.652  -0.642  0.00  0.00     0.190 HD
ENDROOT
BRANCH   1   5
ATOM      5  C   UNL d   1      26.200 -16.242  -0.208  0.00  0.00     0.106 C 
BRANCH   5   6
ATOM      6  C   UNL d   1      26.484 -16.139  -1.724  0.00  0.00     0.036 C 
BRANCH   6   7
ATOM      7  C   UNL d   1      25.249 -16.385  -2.604  0.00  0.00     0.176 C 
BRANCH   7   8
ATOM      8  O   UNL d   1      24.787 -15.142  -3.165  0.00  0.00    -0.351 OA
BRANCH   8   9
ATOM      9  C   UNL d   1      25.633 -14.518  -4.051  0.00  0.00     0.068 A 
ATOM     10  C   UNL d   1      25.514 -13.127  -4.157  0.00  0.00     0.037 A 
ATOM     11  C   UNL d   1      26.343 -12.398  -5.024  0.00  0.00     0.009 A 
ATOM     12  C   UNL d   1      27.307 -13.052  -5.799  0.00  0.00    -0.062 A 
ATOM     13  C   UNL d   1      28.222 -12.299  -6.719  0.00  0.00     0.048 C 
ATOM     14  C   UNL d   1      27.417 -14.442  -5.700  0.00  0.00     0.009 A 
ATOM     15  C   UNL d   1      26.589 -15.166  -4.836  0.00  0.00     0.037 A 
ENDBRANCH   8   9
ENDBRANCH   7   8
ENDBRANCH   6   7
ENDBRANCH   5   6
ENDBRANCH   1   5
BRANCH   3  16
ATOM     16  N   UNL d   1      23.171 -18.564   0.119  0.00  0.00    -0.249 N 
ATOM     17  C   UNL d   1      21.845 -18.561  -0.283  0.00  0.00     0.334 C 
ATOM     18  O   UNL d   1      21.349 -17.612  -0.895  0.00  0.00    -0.246 OA
ATOM     19  N   UNL d   1      21.131 -19.696   0.051  0.00  0.00    -0.341 N 
ATOM     20  H   UNL d   1      21.565 -20.439   0.576  0.00  0.00     0.164 HD
ATOM     21  H   UNL d   1      23.612 -19.330   0.617  0.00  0.00     0.192 HD
BRANCH  19  22
ATOM     22  C   UNL d   1      19.730 -19.835  -0.326  0.00  0.00     0.129 C 
BRANCH  22  23
ATOM     23  C   UNL d   1      18.782 -19.905   0.845  0.00  0.00     0.003 A 
ATOM     24  C   UNL d   1      18.287 -21.270   1.286  0.00  0.00     0.007 A 
ATOM     25  C   UNL d   1      19.126 -20.445   2.215  0.00  0.00     0.007 A 
ENDBRANCH  22  23
ENDBRANCH  19  22
ENDBRANCH   3  16
TORSDOF 8
ENDMDL
MODEL 3
REMARK VINA RESULT:    -7.650      4.454      9.162
REMARK INTER + INTRA:         -11.434
REMARK INTER:                 -10.036
REMARK INTRA:                  -1.398
REMARK CONF_INDEPENDENT:        2.386
REMARK UNBOUND:                -1.398
REMARK  8 active torsions:
REMARK  status: ('A' for Active; 'I' for Inactive)
REMARK    1  A    between atoms: C_5  and  O_6 
REMARK    2  A    between atoms: O_6  and  C_7 
REMARK    3  A    between atoms: C_7  and  C_8 
REMARK    4  A    between atoms: C_8  and  C_9 
REMARK    5  A    between atoms: C_9  and  C_10 
REMARK       I    between atoms: C_10  and  N_12 
REMARK    6  A    between atoms: N_12  and  N_13 
REMARK       I    between atoms: N_13  and  C_14 
REMARK       I    between atoms: C_14  and  N_16 
REMARK    7  A    between atoms: N_16  and  C_17 
REMARK    8  A    between atoms: C_17  and  C_18 
ROOT
ATOM      1  C   UNL d   1      26.339 -17.777   0.150  0.00  0.00     0.236 C 
ATOM      2  O   UNL d   1      27.052 -18.657   0.634  0.00  0.00    -0.272 OA
ATOM      3  N   UNL d   1      26.618 -16.429   0.347  0.00  0.00    -0.266 N 
ATOM      4  H   UNL d   1      26.063 -15.662  -0.027  0.00  0.00     0.190 HD
ENDROOT
BRANCH   1   5
ATOM      5  C   UNL d   1      25.096 -18.100  -0.704  0.00  0.00     0.106 C 
BRANCH   5   6
ATOM      6  C   UNL d   1      24.167 -16.877  -0.877  0.00  0.00     0.036 C 
BRANCH   6   7
ATOM      7  C   UNL d   1      22.751 -17.091  -0.322  0.00  0.00     0.176 C 
BRANCH   7   8
ATOM      8  O   UNL d   1      22.016 -17.985  -1.178  0.00  0.00    -0.351 OA
BRANCH   8   9
ATOM      9  C   UNL d   1      21.053 -18.758  -0.574  0.00  0.00     0.068 A 
ATOM     10  C   UNL d   1      21.202 -18.983   0.800  0.00  0.00     0.037 A 
ATOM     11  C   UNL d   1      20.262 -19.747   1.509  0.00  0.00     0.009 A 
ATOM     12  C   UNL d   1      19.157 -20.299   0.853  0.00  0.00    -0.062 A 
ATOM     13  C   UNL d   1      18.124 -21.102   1.587  0.00  0.00     0.048 C 
ATOM     14  C   UNL d   1      19.016 -20.082  -0.520  0.00  0.00     0.009 A 
ATOM     15  C   UNL d   1      19.954 -19.321  -1.225  0.00  0.00     0.037 A 
ENDBRANCH   8   9
ENDBRANCH   7   8
ENDBRANCH   6   7
ENDBRANCH   5   6
ENDBRANCH   1   5
BRANCH   3  16
ATOM     16  N   UNL d   1      27.762 -16.052   1.132  0.00  0.00    -0.249 N 
ATOM     17  C   UNL d   1      27.789 -14.821   1.766  0.00  0.00     0.334 C 
ATOM     18  O   UNL d   1      26.856 -14.020   1.678  0.00  0.00    -0.246 OA
ATOM     19  N   UNL d   1      28.931 -14.568   2.503  0.00  0.00    -0.341 N 
ATOM     20  H   UNL d   1      29.683 -15.239   2.528  0.00  0.00     0.164 HD
ATOM     21  H   UNL d   1      28.509 -16.738   1.189  0.00  0.00     0.192 HD
BRANCH  19  22
ATOM     22  C   UNL d   1      29.085 -13.320   3.238  0.00  0.00     0.129 C 
BRANCH  22  23
ATOM     23  C   UNL d   1      28.690 -13.408   4.691  0.00  0.00     0.003 A 
ATOM     24  C   UNL d   1      27.318 -13.962   5.029  0.00  0.00     0.007 A 
ATOM     25  C   UNL d   1      28.549 -14.690   5.480  0.00  0.00     0.007 A 
ENDBRANCH  22  23
ENDBRANCH  19  22
ENDBRANCH   3  16
TORSDOF 8
ENDMDL
MODEL 4
REMARK VINA RESULT:    -7.636      0.906      1.413
REMARK INTER + INTRA:         -11.472
REMARK INTER:                 -10.022
REMARK INTRA:                  -1.450
REMARK CONF_INDEPENDENT:        2.386
REMARK UNBOUND:                -1.450
REMARK  8 active torsions:
REMARK  status: ('A' for Active; 'I' for Inactive)
REMARK    1  A    between atoms: C_5  and  O_6 
REMARK    2  A    between atoms: O_6  and  C_7 
REMARK    3  A    between atoms: C_7  and  C_8 
REMARK    4  A    between atoms: C_8  and  C_9 
REMARK    5  A    between atoms: C_9  and  C_10 
REMARK       I    between atoms: C_10  and  N_12 
REMARK    6  A    between atoms: N_12  and  N_13 
REMARK       I    between atoms: N_13  and  C_14 
REMARK       I    between atoms: C_14  and  N_16 
REMARK    7  A    between atoms: N_16  and  C_17 
REMARK    8  A    between atoms: C_17  and  C_18 
ROOT
ATOM      1  C   UNL d   1      25.338 -17.552  -0.119  0.00  0.00     0.236 C 
ATOM      2  O   UNL d   1      25.862 -18.464   0.521  0.00  0.00    -0.272 OA
ATOM      3  N   UNL d   1      23.979 -17.566  -0.418  0.00  0.00    -0.266 N 
ATOM      4  H   UNL d   1      23.494 -16.842  -0.944  0.00  0.00     0.190 HD
ENDROOT
BRANCH   1   5
ATOM      5  C   UNL d   1      26.137 -16.338  -0.631  0.00  0.00     0.106 C 
BRANCH   5   6
ATOM      6  C   UNL d   1      25.456 -15.651  -1.837  0.00  0.00     0.036 C 
BRANCH   6   7
ATOM      7  C   UNL d   1      26.239 -15.789  -3.151  0.00  0.00     0.176 C 
BRANCH   7   8
ATOM      8  O   UNL d   1      25.510 -15.171  -4.227  0.00  0.00    -0.351 OA
BRANCH   8   9
ATOM      9  C   UNL d   1      25.950 -13.933  -4.634  0.00  0.00     0.068 A 
ATOM     10  C   UNL d   1      27.029 -13.914  -5.526  0.00  0.00     0.037 A 
ATOM     11  C   UNL d   1      27.540 -12.700  -6.011  0.00  0.00     0.009 A 
ATOM     12  C   UNL d   1      26.977 -11.484  -5.610  0.00  0.00    -0.062 A 
ATOM     13  C   UNL d   1      27.486 -10.170  -6.126  0.00  0.00     0.048 C 
ATOM     14  C   UNL d   1      25.907 -11.505  -4.711  0.00  0.00     0.009 A 
ATOM     15  C   UNL d   1      25.400 -12.716  -4.229  0.00  0.00     0.037 A 
ENDBRANCH   8   9
ENDBRANCH   7   8
ENDBRANCH   6   7
ENDBRANCH   5   6
ENDBRANCH   1   5
BRANCH   3  16
ATOM     16  N   UNL d   1      23.169 -18.667   0.030  0.00  0.00    -0.249 N 
ATOM     17  C   UNL d   1      21.821 -18.706  -0.289  0.00  0.00     0.334 C 
ATOM     18  O   UNL d   1      21.279 -17.815  -0.947  0.00  0.00    -0.246 OA
ATOM     19  N   UNL d   1      21.142 -19.814   0.180  0.00  0.00    -0.341 N 
ATOM     20  H   UNL d   1      21.616 -20.507   0.738  0.00  0.00     0.164 HD
ATOM     21  H   UNL d   1      23.648 -19.386   0.563  0.00  0.00     0.192 HD
BRANCH  19  22
ATOM     22  C   UNL d   1      19.723 -19.993  -0.098  0.00  0.00     0.129 C 
BRANCH  22  23
ATOM     23  C   UNL d   1      19.089 -21.139   0.651  0.00  0.00     0.003 A 
ATOM     24  C   UNL d   1      18.075 -20.815   1.733  0.00  0.00     0.007 A 
ATOM     25  C   UNL d   1      17.649 -21.579   0.515  0.00  0.00     0.007 A 
ENDBRANCH  22  23
ENDBRANCH  19  22
ENDBRANCH   3  16
TORSDOF 8
ENDMDL
MODEL 5
REMARK VINA RESULT:    -7.193      3.973      5.989
REMARK INTER + INTRA:         -11.031
REMARK INTER:                  -9.579
REMARK INTRA:                  -1.452
REMARK CONF_INDEPENDENT:        2.386
REMARK UNBOUND:                -1.452
REMARK  8 active torsions:
REMARK  status: ('A' for Active; 'I' for Inactive)
REMARK    1  A    between atoms: C_5  and  O_6 
REMARK    2  A    between atoms: O_6  and  C_7 
REMARK    3  A    between atoms: C_7  and  C_8 
REMARK    4  A    between atoms: C_8  and  C_9 
REMARK    5  A    between atoms: C_9  and  C_10 
REMARK       I    between atoms: C_10  and  N_12 
REMARK    6  A    between atoms: N_12  and  N_13 
REMARK       I    between atoms: N_13  and  C_14 
REMARK       I    between atoms: C_14  and  N_16 
REMARK    7  A    between atoms: N_16  and  C_17 
REMARK    8  A    between atoms: C_17  and  C_18 
ROOT
ATOM      1  C   UNL d   1      25.389 -17.587  -0.056  0.00  0.00     0.236 C 
ATOM      2  O   UNL d   1      25.858 -18.514   0.605  0.00  0.00    -0.272 OA
ATOM      3  N   UNL d   1      24.043 -17.557  -0.407  0.00  0.00    -0.266 N 
ATOM      4  H   UNL d   1      23.603 -16.819  -0.953  0.00  0.00     0.190 HD
ENDROOT
BRANCH   1   5
ATOM      5  C   UNL d   1      26.248 -16.402  -0.540  0.00  0.00     0.106 C 
BRANCH   5   6
ATOM      6  C   UNL d   1      27.056 -15.754   0.607  0.00  0.00     0.036 C 
BRANCH   6   7
ATOM      7  C   UNL d   1      27.309 -14.251   0.414  0.00  0.00     0.176 C 
BRANCH   7   8
ATOM      8  O   UNL d   1      26.497 -13.493   1.329  0.00  0.00    -0.351 OA
BRANCH   8   9
ATOM      9  C   UNL d   1      27.051 -13.218   2.557  0.00  0.00     0.068 A 
ATOM     10  C   UNL d   1      27.237 -11.866   2.872  0.00  0.00     0.037 A 
ATOM     11  C   UNL d   1      27.782 -11.483   4.107  0.00  0.00     0.009 A 
ATOM     12  C   UNL d   1      28.150 -12.450   5.049  0.00  0.00    -0.062 A 
ATOM     13  C   UNL d   1      28.715 -12.073   6.387  0.00  0.00     0.048 C 
ATOM     14  C   UNL d   1      27.973 -13.799   4.729  0.00  0.00     0.009 A 
ATOM     15  C   UNL d   1      27.431 -14.178   3.497  0.00  0.00     0.037 A 
ENDBRANCH   8   9
ENDBRANCH   7   8
ENDBRANCH   6   7
ENDBRANCH   5   6
ENDBRANCH   1   5
BRANCH   3  16
ATOM     16  N   UNL d   1      23.180 -18.629   0.011  0.00  0.00    -0.249 N 
ATOM     17  C   UNL d   1      21.854 -18.643  -0.389  0.00  0.00     0.334 C 
ATOM     18  O   UNL d   1      21.375 -17.753  -1.096  0.00  0.00    -0.246 OA
ATOM     19  N   UNL d   1      21.120 -19.724   0.060  0.00  0.00    -0.341 N 
ATOM     20  H   UNL d   1      21.542 -20.416   0.659  0.00  0.00     0.164 HD
ATOM     21  H   UNL d   1      23.608 -19.347   0.587  0.00  0.00     0.192 HD
BRANCH  19  22
ATOM     22  C   UNL d   1      19.717 -19.876  -0.300  0.00  0.00     0.129 C 
BRANCH  22  23
ATOM     23  C   UNL d   1      18.781 -19.944   0.881  0.00  0.00     0.003 A 
ATOM     24  C   UNL d   1      18.322 -21.311   1.353  0.00  0.00     0.007 A 
ATOM     25  C   UNL d   1      19.151 -20.449   2.258  0.00  0.00     0.007 A 
ENDBRANCH  22  23
ENDBRANCH  19  22
ENDBRANCH   3  16
TORSDOF 8
ENDMDL
MODEL 6
REMARK VINA RESULT:    -7.055      3.790      9.346
REMARK INTER + INTRA:         -10.988
REMARK INTER:                  -9.441
REMARK INTRA:                  -1.547
REMARK CONF_INDEPENDENT:        2.386
REMARK UNBOUND:                -1.547
REMARK  8 active torsions:
REMARK  status: ('A' for Active; 'I' for Inactive)
REMARK    1  A    between atoms: C_5  and  O_6 
REMARK    2  A    between atoms: O_6  and  C_7 
REMARK    3  A    between atoms: C_7  and  C_8 
REMARK    4  A    between atoms: C_8  and  C_9 
REMARK    5  A    between atoms: C_9  and  C_10 
REMARK       I    between atoms: C_10  and  N_12 
REMARK    6  A    between atoms: N_12  and  N_13 
REMARK       I    between atoms: N_13  and  C_14 
REMARK       I    between atoms: C_14  and  N_16 
REMARK    7  A    between atoms: N_16  and  C_17 
REMARK    8  A    between atoms: C_17  and  C_18 
ROOT
ATOM      1  C   UNL d   1      25.391 -14.525  -3.588  0.00  0.00     0.236 C 
ATOM      2  O   UNL d   1      24.791 -14.709  -4.648  0.00  0.00    -0.272 OA
ATOM      3  N   UNL d   1      25.662 -13.242  -3.124  0.00  0.00    -0.266 N 
ATOM      4  H   UNL d   1      26.155 -13.031  -2.258  0.00  0.00     0.190 HD
ENDROOT
BRANCH   1   5
ATOM      5  C   UNL d   1      25.883 -15.689  -2.706  0.00  0.00     0.106 C 
BRANCH   5   6
ATOM      6  C   UNL d   1      26.735 -15.203  -1.512  0.00  0.00     0.036 C 
BRANCH   6   7
ATOM      7  C   UNL d   1      26.133 -15.545  -0.141  0.00  0.00     0.176 C 
BRANCH   7   8
ATOM      8  O   UNL d   1      25.887 -16.960  -0.049  0.00  0.00    -0.351 OA
BRANCH   8   9
ATOM      9  C   UNL d   1      24.596 -17.374  -0.279  0.00  0.00     0.068 A 
ATOM     10  C   UNL d   1      24.368 -18.755  -0.258  0.00  0.00     0.037 A 
ATOM     11  C   UNL d   1      23.081 -19.275  -0.466  0.00  0.00     0.009 A 
ATOM     12  C   UNL d   1      22.000 -18.419  -0.700  0.00  0.00    -0.062 A 
ATOM     13  C   UNL d   1      20.609 -18.942  -0.905  0.00  0.00     0.048 C 
ATOM     14  C   UNL d   1      22.232 -17.041  -0.731  0.00  0.00     0.009 A 
ATOM     15  C   UNL d   1      23.515 -16.525  -0.524  0.00  0.00     0.037 A 
ENDBRANCH   8   9
ENDBRANCH   7   8
ENDBRANCH   6   7
ENDBRANCH   5   6
ENDBRANCH   1   5
BRANCH   3  16
ATOM     16  N   UNL d   1      25.231 -12.107  -3.894  0.00  0.00    -0.249 N 
ATOM     17  C   UNL d   1      25.622 -10.832  -3.521  0.00  0.00     0.334 C 
ATOM     18  O   UNL d   1      26.332 -10.628  -2.534  0.00  0.00    -0.246 OA
ATOM     19  N   UNL d   1      25.162  -9.816  -4.338  0.00  0.00    -0.341 N 
ATOM     20  H   UNL d   1      24.561 -10.022  -5.121  0.00  0.00     0.164 HD
ATOM     21  H   UNL d   1      24.654 -12.310  -4.704  0.00  0.00     0.192 HD
BRANCH  19  22
ATOM     22  C   UNL d   1      25.513  -8.427  -4.074  0.00  0.00     0.129 C 
BRANCH  22  23
ATOM     23  C   UNL d   1      24.694  -7.427  -4.852  0.00  0.00     0.003 A 
ATOM     24  C   UNL d   1      24.415  -7.713  -6.316  0.00  0.00     0.007 A 
ATOM     25  C   UNL d   1      23.280  -7.648  -5.339  0.00  0.00     0.007 A 
ENDBRANCH  22  23
ENDBRANCH  19  22
ENDBRANCH   3  16
TORSDOF 8
ENDMDL
MODEL 7
REMARK VINA RESULT:    -7.051      1.136      1.374
REMARK INTER + INTRA:         -10.862
REMARK INTER:                  -9.437
REMARK INTRA:                  -1.425
REMARK CONF_INDEPENDENT:        2.386
REMARK UNBOUND:                -1.425
REMARK  8 active torsions:
REMARK  status: ('A' for Active; 'I' for Inactive)
REMARK    1  A    between atoms: C_5  and  O_6 
REMARK    2  A    between atoms: O_6  and  C_7 
REMARK    3  A    between atoms: C_7  and  C_8 
REMARK    4  A    between atoms: C_8  and  C_9 
REMARK    5  A    between atoms: C_9  and  C_10 
REMARK       I    between atoms: C_10  and  N_12 
REMARK    6  A    between atoms: N_12  and  N_13 
REMARK       I    between atoms: N_13  and  C_14 
REMARK       I    between atoms: C_14  and  N_16 
REMARK    7  A    between atoms: N_16  and  C_17 
REMARK    8  A    between atoms: C_17  and  C_18 
ROOT
ATOM      1  C   UNL d   1      25.359 -17.838  -0.137  0.00  0.00     0.236 C 
ATOM      2  O   UNL d   1      25.690 -18.557   0.807  0.00  0.00    -0.272 OA
ATOM      3  N   UNL d   1      24.100 -17.944  -0.720  0.00  0.00    -0.266 N 
ATOM      4  H   UNL d   1      23.774 -17.379  -1.501  0.00  0.00     0.190 HD
ENDROOT
BRANCH   1   5
ATOM      5  C   UNL d   1      26.303 -16.778  -0.737  0.00  0.00     0.106 C 
BRANCH   5   6
ATOM      6  C   UNL d   1      25.554 -15.491  -1.154  0.00  0.00     0.036 C 
BRANCH   6   7
ATOM      7  C   UNL d   1      26.063 -14.876  -2.466  0.00  0.00     0.176 C 
BRANCH   7   8
ATOM      8  O   UNL d   1      26.609 -15.903  -3.313  0.00  0.00    -0.351 OA
BRANCH   8   9
ATOM      9  C   UNL d   1      27.503 -15.493  -4.274  0.00  0.00     0.068 A 
ATOM     10  C   UNL d   1      28.835 -15.891  -4.101  0.00  0.00     0.037 A 
ATOM     11  C   UNL d   1      29.819 -15.535  -5.036  0.00  0.00     0.009 A 
ATOM     12  C   UNL d   1      29.486 -14.774  -6.161  0.00  0.00    -0.062 A 
ATOM     13  C   UNL d   1      30.510 -14.395  -7.190  0.00  0.00     0.048 C 
ATOM     14  C   UNL d   1      28.158 -14.369  -6.327  0.00  0.00     0.009 A 
ATOM     15  C   UNL d   1      27.179 -14.724  -5.393  0.00  0.00     0.037 A 
ENDBRANCH   8   9
ENDBRANCH   7   8
ENDBRANCH   6   7
ENDBRANCH   5   6
ENDBRANCH   1   5
BRANCH   3  16
ATOM     16  N   UNL d   1      23.165 -18.910  -0.210  0.00  0.00    -0.249 N 
ATOM     17  C   UNL d   1      21.811 -18.757  -0.458  0.00  0.00     0.334 C 
ATOM     18  O   UNL d   1      21.368 -17.804  -1.103  0.00  0.00    -0.246 OA
ATOM     19  N   UNL d   1      21.005 -19.750   0.067  0.00  0.00    -0.341 N 
ATOM     20  H   UNL d   1      21.403 -20.498   0.612  0.00  0.00     0.164 HD
ATOM     21  H   UNL d   1      23.563 -19.686   0.310  0.00  0.00     0.192 HD
BRANCH  19  22
ATOM     22  C   UNL d   1      19.562 -19.724  -0.133  0.00  0.00     0.129 C 
BRANCH  22  23
ATOM     23  C   UNL d   1      18.762 -19.851   1.139  0.00  0.00     0.003 A 
ATOM     24  C   UNL d   1      18.326 -21.237   1.577  0.00  0.00     0.007 A 
ATOM     25  C   UNL d   1      19.269 -20.447   2.433  0.00  0.00     0.007 A 
ENDBRANCH  22  23
ENDBRANCH  19  22
ENDBRANCH   3  16
TORSDOF 8
ENDMDL
MODEL 8
REMARK VINA RESULT:    -6.649      1.371      1.644
REMARK INTER + INTRA:         -11.354
REMARK INTER:                  -9.035
REMARK INTRA:                  -2.319
REMARK CONF_INDEPENDENT:        2.386
REMARK UNBOUND:                -2.319
REMARK  8 active torsions:
REMARK  status: ('A' for Active; 'I' for Inactive)
REMARK    1  A    between atoms: C_5  and  O_6 
REMARK    2  A    between atoms: O_6  and  C_7 
REMARK    3  A    between atoms: C_7  and  C_8 
REMARK    4  A    between atoms: C_8  and  C_9 
REMARK    5  A    between atoms: C_9  and  C_10 
REMARK       I    between atoms: C_10  and  N_12 
REMARK    6  A    between atoms: N_12  and  N_13 
REMARK       I    between atoms: N_13  and  C_14 
REMARK       I    between atoms: C_14  and  N_16 
REMARK    7  A    between atoms: N_16  and  C_17 
REMARK    8  A    between atoms: C_17  and  C_18 
ROOT
ATOM      1  C   UNL d   1      26.412 -17.779   0.396  0.00  0.00     0.236 C 
ATOM      2  O   UNL d   1      26.544 -18.577   1.326  0.00  0.00    -0.272 OA
ATOM      3  N   UNL d   1      25.229 -17.709  -0.333  0.00  0.00    -0.266 N 
ATOM      4  H   UNL d   1      25.065 -17.072  -1.110  0.00  0.00     0.190 HD
ENDROOT
BRANCH   1   5
ATOM      5  C   UNL d   1      27.533 -16.809  -0.025  0.00  0.00     0.106 C 
BRANCH   5   6
ATOM      6  C   UNL d   1      27.139 -15.329   0.183  0.00  0.00     0.036 C 
BRANCH   6   7
ATOM      7  C   UNL d   1      25.914 -14.894  -0.634  0.00  0.00     0.176 C 
BRANCH   7   8
ATOM      8  O   UNL d   1      25.813 -15.685  -1.832  0.00  0.00    -0.351 OA
BRANCH   8   9
ATOM      9  C   UNL d   1      26.330 -15.130  -2.979  0.00  0.00     0.068 A 
ATOM     10  C   UNL d   1      27.588 -15.590  -3.386  0.00  0.00     0.037 A 
ATOM     11  C   UNL d   1      28.192 -15.095  -4.552  0.00  0.00     0.009 A 
ATOM     12  C   UNL d   1      27.545 -14.130  -5.331  0.00  0.00    -0.062 A 
ATOM     13  C   UNL d   1      28.154 -13.596  -6.594  0.00  0.00     0.048 C 
ATOM     14  C   UNL d   1      26.293 -13.664  -4.917  0.00  0.00     0.009 A 
ATOM     15  C   UNL d   1      25.694 -14.159  -3.754  0.00  0.00     0.037 A 
ENDBRANCH   8   9
ENDBRANCH   7   8
ENDBRANCH   6   7
ENDBRANCH   5   6
ENDBRANCH   1   5
BRANCH   3  16
ATOM     16  N   UNL d   1      24.138 -18.582   0.005  0.00  0.00    -0.249 N 
ATOM     17  C   UNL d   1      22.878 -18.347  -0.520  0.00  0.00     0.334 C 
ATOM     18  O   UNL d   1      22.650 -17.398  -1.272  0.00  0.00    -0.246 OA
ATOM     19  N   UNL d   1      21.908 -19.255  -0.140  0.00  0.00    -0.341 N 
ATOM     20  H   UNL d   1      22.128 -20.003   0.499  0.00  0.00     0.164 HD
ATOM     21  H   UNL d   1      24.362 -19.358   0.621  0.00  0.00     0.192 HD
BRANCH  19  22
ATOM     22  C   UNL d   1      20.542 -19.139  -0.632  0.00  0.00     0.129 C 
BRANCH  22  23
ATOM     23  C   UNL d   1      19.486 -19.379   0.418  0.00  0.00     0.003 A 
ATOM     24  C   UNL d   1      18.963 -20.793   0.597  0.00  0.00     0.007 A 
ATOM     25  C   UNL d   1      19.702 -20.123   1.717  0.00  0.00     0.007 A 
ENDBRANCH  22  23
ENDBRANCH  19  22
ENDBRANCH   3  16
TORSDOF 8
ENDMDL
MODEL 9
REMARK VINA RESULT:    -6.481      2.033      2.571
REMARK INTER + INTRA:         -11.257
REMARK INTER:                  -8.867
REMARK INTRA:                  -2.390
REMARK CONF_INDEPENDENT:        2.386
REMARK UNBOUND:                -2.390
REMARK  8 active torsions:
REMARK  status: ('A' for Active; 'I' for Inactive)
REMARK    1  A    between atoms: C_5  and  O_6 
REMARK    2  A    between atoms: O_6  and  C_7 
REMARK    3  A    between atoms: C_7  and  C_8 
REMARK    4  A    between atoms: C_8  and  C_9 
REMARK    5  A    between atoms: C_9  and  C_10 
REMARK       I    between atoms: C_10  and  N_12 
REMARK    6  A    between atoms: N_12  and  N_13 
REMARK       I    between atoms: N_13  and  C_14 
REMARK       I    between atoms: C_14  and  N_16 
REMARK    7  A    between atoms: N_16  and  C_17 
REMARK    8  A    between atoms: C_17  and  C_18 
ROOT
ATOM      1  C   UNL d   1      26.413 -17.625   0.580  0.00  0.00     0.236 C 
ATOM      2  O   UNL d   1      26.596 -18.578   1.339  0.00  0.00    -0.272 OA
ATOM      3  N   UNL d   1      25.203 -17.452  -0.084  0.00  0.00    -0.266 N 
ATOM      4  H   UNL d   1      24.996 -16.686  -0.722  0.00  0.00     0.190 HD
ENDROOT
BRANCH   1   5
ATOM      5  C   UNL d   1      27.497 -16.563   0.312  0.00  0.00     0.106 C 
BRANCH   5   6
ATOM      6  C   UNL d   1      28.375 -16.915  -0.910  0.00  0.00     0.036 C 
BRANCH   6   7
ATOM      7  C   UNL d   1      27.836 -16.365  -2.239  0.00  0.00     0.176 C 
BRANCH   7   8
ATOM      8  O   UNL d   1      26.495 -15.873  -2.061  0.00  0.00    -0.351 OA
BRANCH   8   9
ATOM      9  C   UNL d   1      26.215 -14.644  -2.611  0.00  0.00     0.068 A 
ATOM     10  C   UNL d   1      26.683 -13.524  -1.912  0.00  0.00     0.037 A 
ATOM     11  C   UNL d   1      26.461 -12.227  -2.400  0.00  0.00     0.009 A 
ATOM     12  C   UNL d   1      25.766 -12.030  -3.597  0.00  0.00    -0.062 A 
ATOM     13  C   UNL d   1      25.530 -10.658  -4.157  0.00  0.00     0.048 C 
ATOM     14  C   UNL d   1      25.290 -13.149  -4.288  0.00  0.00     0.009 A 
ATOM     15  C   UNL d   1      25.511 -14.440  -3.799  0.00  0.00     0.037 A 
ENDBRANCH   8   9
ENDBRANCH   7   8
ENDBRANCH   6   7
ENDBRANCH   5   6
ENDBRANCH   1   5
BRANCH   3  16
ATOM     16  N   UNL d   1      24.143 -18.403   0.119  0.00  0.00    -0.249 N 
ATOM     17  C   UNL d   1      22.929 -18.230  -0.524  0.00  0.00     0.334 C 
ATOM     18  O   UNL d   1      22.715 -17.273  -1.271  0.00  0.00    -0.246 OA
ATOM     19  N   UNL d   1      21.987 -19.209  -0.268  0.00  0.00    -0.341 N 
ATOM     20  H   UNL d   1      22.192 -19.962   0.371  0.00  0.00     0.164 HD
ATOM     21  H   UNL d   1      24.355 -19.182   0.734  0.00  0.00     0.192 HD
BRANCH  19  22
ATOM     22  C   UNL d   1      20.672 -19.163  -0.892  0.00  0.00     0.129 C 
BRANCH  22  23
ATOM     23  C   UNL d   1      19.528 -19.389   0.064  0.00  0.00     0.003 A 
ATOM     24  C   UNL d   1      19.049 -20.812   0.284  0.00  0.00     0.007 A 
ATOM     25  C   UNL d   1      19.644 -20.041   1.424  0.00  0.00     0.007 A 
ENDBRANCH  22  23
ENDBRANCH  19  22
ENDBRANCH   3  16
TORSDOF 8
ENDMDL
