MODEL 1
REMARK VINA RESULT:    -8.325      0.000      0.000
REMARK INTER + INTRA:         -12.936
REMARK INTER:                 -10.413
REMARK INTRA:                  -2.523
REMARK CONF_INDEPENDENT:        2.088
REMARK UNBOUND:                -2.523
REMARK  7 active torsions:
REMARK  status: ('A' for Active; 'I' for Inactive)
REMARK       I    between atoms: C_2  and  N_3 
REMARK    1  A    between atoms: C_2  and  C_14 
REMARK    2  A    between atoms: N_3  and  C_4 
REMARK    3  A    between atoms: C_4  and  C_5 
REMARK    4  A    between atoms: C_5  and  O_6 
REMARK    5  A    between atoms: C_5  and  C_7 
REMARK       I    between atoms: C_14  and  N_16 
REMARK    6  A    between atoms: N_16  and  C_17 
REMARK    7  A    between atoms: C_22  and  C_23 
ROOT
ATOM      1  O   UNL d   1      22.985 -16.746  -0.974  0.00  0.00    -0.262 OA
ATOM      2  C   UNL d   1      23.750 -17.602  -0.528  0.00  0.00     0.309 C 
ATOM      3  N   UNL d   1      23.357 -18.918  -0.410  0.00  0.00    -0.350 N 
ATOM      4  H   UNL d   1      23.918 -19.623   0.044  0.00  0.00     0.163 HD
ENDROOT
BRANCH   2   5
ATOM      5  C   UNL d   1      25.182 -17.204  -0.116  0.00  0.00     0.314 C 
ATOM      6  O   UNL d   1      25.891 -18.099   0.342  0.00  0.00    -0.262 OA
ATOM      7  N   UNL d   1      25.584 -15.872  -0.238  0.00  0.00    -0.318 N 
ATOM      8  H   UNL d   1      24.898 -15.133  -0.277  0.00  0.00     0.169 HD
BRANCH   7   9
ATOM      9  C   UNL d   1      26.959 -15.471  -0.205  0.00  0.00     0.046 A 
ATOM     10  C   UNL d   1      27.589 -15.340   1.043  0.00  0.00     0.030 A 
ATOM     11  C   UNL d   1      28.887 -14.818   1.139  0.00  0.00     0.002 A 
ATOM     12  C   UNL d   1      29.586 -14.453  -0.010  0.00  0.00     0.001 A 
ATOM     13  C   UNL d   1      28.979 -14.588  -1.256  0.00  0.00     0.015 A 
ATOM     14  C   UNL d   1      27.673 -15.095  -1.373  0.00  0.00     0.008 A 
BRANCH  14  15
ATOM     15  C   UNL d   1      27.038 -15.087  -2.694  0.00  0.00     0.017 C 
ATOM     16  C   UNL d   1      27.657 -15.199  -3.926  0.00  0.00     0.020 C 
ATOM     17  C   UNL d   1      26.786 -14.863  -4.996  0.00  0.00     0.008 C 
ATOM     18  C   UNL d   1      25.514 -14.579  -4.555  0.00  0.00     0.050 C 
ATOM     19  S   UNL d   1      25.361 -14.762  -2.859  0.00  0.00    -0.101 SA
ENDBRANCH  14  15
ENDBRANCH   7   9
ENDBRANCH   2   5
BRANCH   3  20
ATOM     20  C   UNL d   1      22.071 -19.320  -0.970  0.00  0.00     0.159 C 
BRANCH  20  21
ATOM     21  C   UNL d   1      20.907 -18.598  -0.278  0.00  0.00     0.172 C 
BRANCH  21  22
ATOM     22  O   UNL d   1      20.257 -17.785  -1.273  0.00  0.00    -0.389 OA
ATOM     23  H   UNL d   1      20.920 -17.136  -1.572  0.00  0.00     0.210 HD
ENDBRANCH  21  22
BRANCH  21  24
ATOM     24  C   UNL d   1      19.933 -19.536   0.391  0.00  0.00     0.011 A 
ATOM     25  C   UNL d   1      18.992 -20.274  -0.342  0.00  0.00     0.013 A 
ATOM     26  C   UNL d   1      18.069 -21.097   0.302  0.00  0.00     0.001 A 
ATOM     27  C   UNL d   1      18.064 -21.190   1.691  0.00  0.00     0.003 A 
ATOM     28  C   UNL d   1      18.991 -20.467   2.439  0.00  0.00     0.043 A 
ATOM     29  C   UNL d   1      19.913 -19.651   1.788  0.00  0.00     0.125 A 
ATOM     30  F   UNL d   1      20.785 -18.955   2.531  0.00  0.00    -0.205 F 
ENDBRANCH  21  24
ENDBRANCH  20  21
ENDBRANCH   3  20
TORSDOF 7
ENDMDL
MODEL 2
REMARK VINA RESULT:    -7.920      4.532      8.684
REMARK INTER + INTRA:         -12.558
REMARK INTER:                 -10.008
REMARK INTRA:                  -2.549
REMARK CONF_INDEPENDENT:        2.088
REMARK UNBOUND:                -2.549
REMARK  7 active torsions:
REMARK  status: ('A' for Active; 'I' for Inactive)
REMARK       I    between atoms: C_2  and  N_3 
REMARK    1  A    between atoms: C_2  and  C_14 
REMARK    2  A    between atoms: N_3  and  C_4 
REMARK    3  A    between atoms: C_4  and  C_5 
REMARK    4  A    between atoms: C_5  and  O_6 
REMARK    5  A    between atoms: C_5  and  C_7 
REMARK       I    between atoms: C_14  and  N_16 
REMARK    6  A    between atoms: N_16  and  C_17 
REMARK    7  A    between atoms: C_22  and  C_23 
ROOT
ATOM      1  O   UNL d   1      26.280 -13.121   2.321  0.00  0.00    -0.262 OA
ATOM      2  C   UNL d   1      27.123 -13.958   1.996  0.00  0.00     0.309 C 
ATOM      3  N   UNL d   1      27.865 -14.629   2.945  0.00  0.00    -0.350 N 
ATOM      4  H   UNL d   1      28.632 -15.242   2.713  0.00  0.00     0.163 HD
ENDROOT
BRANCH   2   5
ATOM      5  C   UNL d   1      27.338 -14.284   0.504  0.00  0.00     0.314 C 
ATOM      6  O   UNL d   1      28.321 -14.970   0.227  0.00  0.00    -0.262 OA
ATOM      7  N   UNL d   1      26.455 -13.763  -0.445  0.00  0.00    -0.318 N 
ATOM      8  H   UNL d   1      25.896 -12.951  -0.230  0.00  0.00     0.169 HD
BRANCH   7   9
ATOM      9  C   UNL d   1      26.367 -14.268  -1.782  0.00  0.00     0.046 A 
ATOM     10  C   UNL d   1      26.702 -13.412  -2.844  0.00  0.00     0.030 A 
ATOM     11  C   UNL d   1      26.501 -13.808  -4.174  0.00  0.00     0.002 A 
ATOM     12  C   UNL d   1      25.998 -15.074  -4.463  0.00  0.00     0.001 A 
ATOM     13  C   UNL d   1      25.674 -15.940  -3.422  0.00  0.00     0.015 A 
ATOM     14  C   UNL d   1      25.852 -15.556  -2.081  0.00  0.00     0.008 A 
BRANCH  14  15
ATOM     15  C   UNL d   1      25.368 -16.454  -1.028  0.00  0.00     0.017 C 
ATOM     16  C   UNL d   1      26.123 -17.247  -0.185  0.00  0.00     0.020 C 
ATOM     17  C   UNL d   1      25.331 -18.199   0.509  0.00  0.00     0.008 C 
ATOM     18  C   UNL d   1      23.991 -18.054   0.231  0.00  0.00     0.050 C 
ATOM     19  S   UNL d   1      23.688 -16.744  -0.828  0.00  0.00    -0.101 SA
ENDBRANCH  14  15
ENDBRANCH   7   9
ENDBRANCH   2   5
BRANCH   3  20
ATOM     20  C   UNL d   1      27.530 -14.451   4.354  0.00  0.00     0.159 C 
BRANCH  20  21
ATOM     21  C   UNL d   1      28.743 -14.710   5.256  0.00  0.00     0.172 C 
BRANCH  21  22
ATOM     22  O   UNL d   1      29.908 -14.735   4.410  0.00  0.00    -0.389 OA
ATOM     23  H   UNL d   1      29.842 -15.549   3.877  0.00  0.00     0.210 HD
ENDBRANCH  21  22
BRANCH  21  24
ATOM     24  C   UNL d   1      28.890 -13.700   6.368  0.00  0.00     0.011 A 
ATOM     25  C   UNL d   1      29.278 -14.074   7.663  0.00  0.00     0.013 A 
ATOM     26  C   UNL d   1      29.359 -13.131   8.686  0.00  0.00     0.001 A 
ATOM     27  C   UNL d   1      29.046 -11.798   8.435  0.00  0.00     0.003 A 
ATOM     28  C   UNL d   1      28.659 -11.404   7.156  0.00  0.00     0.043 A 
ATOM     29  C   UNL d   1      28.585 -12.352   6.138  0.00  0.00     0.125 A 
ATOM     30  F   UNL d   1      28.198 -11.949   4.919  0.00  0.00    -0.205 F 
ENDBRANCH  21  24
ENDBRANCH  20  21
ENDBRANCH   3  20
TORSDOF 7
ENDMDL
MODEL 3
REMARK VINA RESULT:    -7.425      5.150      9.334
REMARK INTER + INTRA:         -11.991
REMARK INTER:                  -9.513
REMARK INTRA:                  -2.478
REMARK CONF_INDEPENDENT:        2.088
REMARK UNBOUND:                -2.478
REMARK  7 active torsions:
REMARK  status: ('A' for Active; 'I' for Inactive)
REMARK       I    between atoms: C_2  and  N_3 
REMARK    1  A    between atoms: C_2  and  C_14 
REMARK    2  A    between atoms: N_3  and  C_4 
REMARK    3  A    between atoms: C_4  and  C_5 
REMARK    4  A    between atoms: C_5  and  O_6 
REMARK    5  A    between atoms: C_5  and  C_7 
REMARK       I    between atoms: C_14  and  N_16 
REMARK    6  A    between atoms: N_16  and  C_17 
REMARK    7  A    between atoms: C_22  and  C_23 
ROOT
ATOM      1  O   UNL d   1      26.984 -12.597  -2.810  0.00  0.00    -0.262 OA
ATOM      2  C   UNL d   1      25.980 -12.880  -3.466  0.00  0.00     0.309 C 
ATOM      3  N   UNL d   1      25.640 -12.163  -4.593  0.00  0.00    -0.350 N 
ATOM      4  H   UNL d   1      24.775 -12.299  -5.093  0.00  0.00     0.163 HD
ENDROOT
BRANCH   2   5
ATOM      5  C   UNL d   1      25.100 -14.071  -3.037  0.00  0.00     0.314 C 
ATOM      6  O   UNL d   1      24.255 -14.450  -3.847  0.00  0.00    -0.262 OA
ATOM      7  N   UNL d   1      25.268 -14.624  -1.765  0.00  0.00    -0.318 N 
ATOM      8  H   UNL d   1      25.701 -14.088  -1.029  0.00  0.00     0.169 HD
BRANCH   7   9
ATOM      9  C   UNL d   1      24.753 -15.911  -1.405  0.00  0.00     0.046 A 
ATOM     10  C   UNL d   1      23.363 -16.062  -1.269  0.00  0.00     0.030 A 
ATOM     11  C   UNL d   1      22.817 -17.260  -0.783  0.00  0.00     0.002 A 
ATOM     12  C   UNL d   1      23.646 -18.332  -0.462  0.00  0.00     0.001 A 
ATOM     13  C   UNL d   1      25.025 -18.203  -0.604  0.00  0.00     0.015 A 
ATOM     14  C   UNL d   1      25.594 -17.005  -1.073  0.00  0.00     0.008 A 
BRANCH  14  15
ATOM     15  C   UNL d   1      27.055 -16.881  -1.073  0.00  0.00     0.017 C 
ATOM     16  C   UNL d   1      27.943 -17.394  -0.145  0.00  0.00     0.020 C 
ATOM     17  C   UNL d   1      29.244 -16.845  -0.287  0.00  0.00     0.008 C 
ATOM     18  C   UNL d   1      29.327 -15.988  -1.362  0.00  0.00     0.050 C 
ATOM     19  S   UNL d   1      27.850 -15.885  -2.222  0.00  0.00    -0.101 SA
ENDBRANCH  14  15
ENDBRANCH   7   9
ENDBRANCH   2   5
BRANCH   3  20
ATOM     20  C   UNL d   1      26.572 -11.158  -5.095  0.00  0.00     0.159 C 
BRANCH  20  21
ATOM     21  C   UNL d   1      25.925 -10.283  -6.176  0.00  0.00     0.172 C 
BRANCH  21  22
ATOM     22  O   UNL d   1      24.992 -11.111  -6.895  0.00  0.00    -0.389 OA
ATOM     23  H   UNL d   1      24.329 -11.406  -6.244  0.00  0.00     0.210 HD
ENDBRANCH  21  22
BRANCH  21  24
ATOM     24  C   UNL d   1      25.255  -9.048  -5.625  0.00  0.00     0.011 A 
ATOM     25  C   UNL d   1      23.998  -8.622  -6.077  0.00  0.00     0.013 A 
ATOM     26  C   UNL d   1      23.420  -7.451  -5.589  0.00  0.00     0.001 A 
ATOM     27  C   UNL d   1      24.093  -6.679  -4.646  0.00  0.00     0.003 A 
ATOM     28  C   UNL d   1      25.342  -7.085  -4.181  0.00  0.00     0.043 A 
ATOM     29  C   UNL d   1      25.911  -8.259  -4.669  0.00  0.00     0.125 A 
ATOM     30  F   UNL d   1      27.119  -8.619  -4.216  0.00  0.00    -0.205 F 
ENDBRANCH  21  24
ENDBRANCH  20  21
ENDBRANCH   3  20
TORSDOF 7
ENDMDL
MODEL 4
REMARK VINA RESULT:    -7.393      4.994      8.805
REMARK INTER + INTRA:         -11.651
REMARK INTER:                  -9.481
REMARK INTRA:                  -2.170
REMARK CONF_INDEPENDENT:        2.088
REMARK UNBOUND:                -2.170
REMARK  7 active torsions:
REMARK  status: ('A' for Active; 'I' for Inactive)
REMARK       I    between atoms: C_2  and  N_3 
REMARK    1  A    between atoms: C_2  and  C_14 
REMARK    2  A    between atoms: N_3  and  C_4 
REMARK    3  A    between atoms: C_4  and  C_5 
REMARK    4  A    between atoms: C_5  and  O_6 
REMARK    5  A    between atoms: C_5  and  C_7 
REMARK       I    between atoms: C_14  and  N_16 
REMARK    6  A    between atoms: N_16  and  C_17 
REMARK    7  A    between atoms: C_22  and  C_23 
ROOT
ATOM      1  O   UNL d   1      26.776 -13.014   2.850  0.00  0.00    -0.262 OA
ATOM      2  C   UNL d   1      27.406 -14.052   2.639  0.00  0.00     0.309 C 
ATOM      3  N   UNL d   1      27.921 -14.798   3.677  0.00  0.00    -0.350 N 
ATOM      4  H   UNL d   1      28.526 -15.593   3.539  0.00  0.00     0.163 HD
ENDROOT
BRANCH   2   5
ATOM      5  C   UNL d   1      27.601 -14.543   1.190  0.00  0.00     0.314 C 
ATOM      6  O   UNL d   1      26.889 -14.022   0.332  0.00  0.00    -0.262 OA
ATOM      7  N   UNL d   1      28.523 -15.560   0.930  0.00  0.00    -0.318 N 
ATOM      8  H   UNL d   1      28.817 -16.184   1.667  0.00  0.00     0.169 HD
BRANCH   7   9
ATOM      9  C   UNL d   1      29.014 -15.845  -0.386  0.00  0.00     0.046 A 
ATOM     10  C   UNL d   1      30.245 -15.294  -0.775  0.00  0.00     0.030 A 
ATOM     11  C   UNL d   1      30.704 -15.424  -2.094  0.00  0.00     0.002 A 
ATOM     12  C   UNL d   1      29.958 -16.136  -3.031  0.00  0.00     0.001 A 
ATOM     13  C   UNL d   1      28.741 -16.700  -2.657  0.00  0.00     0.015 A 
ATOM     14  C   UNL d   1      28.255 -16.566  -1.344  0.00  0.00     0.008 A 
BRANCH  14  15
ATOM     15  C   UNL d   1      26.909 -17.062  -1.046  0.00  0.00     0.017 C 
ATOM     16  C   UNL d   1      25.724 -16.705  -1.664  0.00  0.00     0.020 C 
ATOM     17  C   UNL d   1      24.586 -17.151  -0.941  0.00  0.00     0.008 C 
ATOM     18  C   UNL d   1      24.937 -17.895   0.163  0.00  0.00     0.050 C 
ATOM     19  S   UNL d   1      26.632 -18.093   0.298  0.00  0.00    -0.101 SA
ENDBRANCH  14  15
ENDBRANCH   7   9
ENDBRANCH   2   5
BRANCH   3  20
ATOM     20  C   UNL d   1      27.577 -14.427   5.046  0.00  0.00     0.159 C 
BRANCH  20  21
ATOM     21  C   UNL d   1      28.684 -14.826   6.031  0.00  0.00     0.172 C 
BRANCH  21  22
ATOM     22  O   UNL d   1      29.851 -15.151   5.252  0.00  0.00    -0.389 OA
ATOM     23  H   UNL d   1      29.621 -15.941   4.729  0.00  0.00     0.210 HD
ENDBRANCH  21  22
BRANCH  21  24
ATOM     24  C   UNL d   1      28.984 -13.763   7.058  0.00  0.00     0.011 A 
ATOM     25  C   UNL d   1      29.119 -14.065   8.421  0.00  0.00     0.013 A 
ATOM     26  C   UNL d   1      29.347 -13.059   9.358  0.00  0.00     0.001 A 
ATOM     27  C   UNL d   1      29.437 -11.731   8.951  0.00  0.00     0.003 A 
ATOM     28  C   UNL d   1      29.308 -11.408   7.602  0.00  0.00     0.043 A 
ATOM     29  C   UNL d   1      29.085 -12.419   6.671  0.00  0.00     0.125 A 
ATOM     30  F   UNL d   1      28.952 -12.080   5.381  0.00  0.00    -0.205 F 
ENDBRANCH  21  24
ENDBRANCH  20  21
ENDBRANCH   3  20
TORSDOF 7
ENDMDL
MODEL 5
REMARK VINA RESULT:    -7.384      4.942      8.927
REMARK INTER + INTRA:         -11.314
REMARK INTER:                  -9.472
REMARK INTRA:                  -1.842
REMARK CONF_INDEPENDENT:        2.088
REMARK UNBOUND:                -1.842
REMARK  7 active torsions:
REMARK  status: ('A' for Active; 'I' for Inactive)
REMARK       I    between atoms: C_2  and  N_3 
REMARK    1  A    between atoms: C_2  and  C_14 
REMARK    2  A    between atoms: N_3  and  C_4 
REMARK    3  A    between atoms: C_4  and  C_5 
REMARK    4  A    between atoms: C_5  and  O_6 
REMARK    5  A    between atoms: C_5  and  C_7 
REMARK       I    between atoms: C_14  and  N_16 
REMARK    6  A    between atoms: N_16  and  C_17 
REMARK    7  A    between atoms: C_22  and  C_23 
ROOT
ATOM      1  O   UNL d   1      27.052 -12.980   4.291  0.00  0.00    -0.262 OA
ATOM      2  C   UNL d   1      27.409 -13.759   3.406  0.00  0.00     0.309 C 
ATOM      3  N   UNL d   1      28.175 -14.867   3.697  0.00  0.00    -0.350 N 
ATOM      4  H   UNL d   1      28.570 -15.467   2.989  0.00  0.00     0.163 HD
ENDROOT
BRANCH   2   5
ATOM      5  C   UNL d   1      26.973 -13.507   1.948  0.00  0.00     0.314 C 
ATOM      6  O   UNL d   1      26.496 -12.400   1.700  0.00  0.00    -0.262 OA
ATOM      7  N   UNL d   1      27.097 -14.535   1.009  0.00  0.00    -0.318 N 
ATOM      8  H   UNL d   1      27.153 -15.496   1.309  0.00  0.00     0.169 HD
BRANCH   7   9
ATOM      9  C   UNL d   1      27.041 -14.305  -0.404  0.00  0.00     0.046 A 
ATOM     10  C   UNL d   1      27.627 -13.135  -0.915  0.00  0.00     0.030 A 
ATOM     11  C   UNL d   1      27.480 -12.793  -2.267  0.00  0.00     0.002 A 
ATOM     12  C   UNL d   1      26.779 -13.629  -3.133  0.00  0.00     0.001 A 
ATOM     13  C   UNL d   1      26.203 -14.799  -2.644  0.00  0.00     0.015 A 
ATOM     14  C   UNL d   1      26.325 -15.153  -1.288  0.00  0.00     0.008 A 
BRANCH  14  15
ATOM     15  C   UNL d   1      25.585 -16.322  -0.803  0.00  0.00     0.017 C 
ATOM     16  C   UNL d   1      24.241 -16.598  -0.976  0.00  0.00     0.020 C 
ATOM     17  C   UNL d   1      23.798 -17.655  -0.138  0.00  0.00     0.008 C 
ATOM     18  C   UNL d   1      24.831 -18.200   0.592  0.00  0.00     0.050 C 
ATOM     19  S   UNL d   1      26.335 -17.467   0.231  0.00  0.00    -0.101 SA
ENDBRANCH  14  15
ENDBRANCH   7   9
ENDBRANCH   2   5
BRANCH   3  20
ATOM     20  C   UNL d   1      28.429 -15.198   5.096  0.00  0.00     0.159 C 
BRANCH  20  21
ATOM     21  C   UNL d   1      29.633 -14.423   5.646  0.00  0.00     0.172 C 
BRANCH  21  22
ATOM     22  O   UNL d   1      30.384 -13.942   4.515  0.00  0.00    -0.389 OA
ATOM     23  H   UNL d   1      31.324 -14.093   4.727  0.00  0.00     0.210 HD
ENDBRANCH  21  22
BRANCH  21  24
ATOM     24  C   UNL d   1      29.248 -13.296   6.572  0.00  0.00     0.011 A 
ATOM     25  C   UNL d   1      29.237 -11.959   6.149  0.00  0.00     0.013 A 
ATOM     26  C   UNL d   1      28.926 -10.929   7.036  0.00  0.00     0.001 A 
ATOM     27  C   UNL d   1      28.628 -11.217   8.365  0.00  0.00     0.003 A 
ATOM     28  C   UNL d   1      28.631 -12.538   8.807  0.00  0.00     0.043 A 
ATOM     29  C   UNL d   1      28.938 -13.562   7.914  0.00  0.00     0.125 A 
ATOM     30  F   UNL d   1      28.947 -14.823   8.367  0.00  0.00    -0.205 F 
ENDBRANCH  21  24
ENDBRANCH  20  21
ENDBRANCH   3  20
TORSDOF 7
ENDMDL
MODEL 6
REMARK VINA RESULT:    -7.216      5.082      9.250
REMARK INTER + INTRA:         -11.297
REMARK INTER:                  -9.304
REMARK INTRA:                  -1.993
REMARK CONF_INDEPENDENT:        2.088
REMARK UNBOUND:                -1.993
REMARK  7 active torsions:
REMARK  status: ('A' for Active; 'I' for Inactive)
REMARK       I    between atoms: C_2  and  N_3 
REMARK    1  A    between atoms: C_2  and  C_14 
REMARK    2  A    between atoms: N_3  and  C_4 
REMARK    3  A    between atoms: C_4  and  C_5 
REMARK    4  A    between atoms: C_5  and  O_6 
REMARK    5  A    between atoms: C_5  and  C_7 
REMARK       I    between atoms: C_14  and  N_16 
REMARK    6  A    between atoms: N_16  and  C_17 
REMARK    7  A    between atoms: C_22  and  C_23 
ROOT
ATOM      1  O   UNL d   1      24.366 -13.612  -3.966  0.00  0.00    -0.262 OA
ATOM      2  C   UNL d   1      25.487 -13.601  -3.456  0.00  0.00     0.309 C 
ATOM      3  N   UNL d   1      26.204 -12.430  -3.335  0.00  0.00    -0.350 N 
ATOM      4  H   UNL d   1      27.161 -12.400  -3.018  0.00  0.00     0.163 HD
ENDROOT
BRANCH   2   5
ATOM      5  C   UNL d   1      26.093 -14.914  -2.919  0.00  0.00     0.314 C 
ATOM      6  O   UNL d   1      26.990 -15.421  -3.592  0.00  0.00    -0.262 OA
ATOM      7  N   UNL d   1      25.581 -15.476  -1.747  0.00  0.00    -0.318 N 
ATOM      8  H   UNL d   1      24.653 -15.238  -1.431  0.00  0.00     0.169 HD
BRANCH   7   9
ATOM      9  C   UNL d   1      26.277 -16.481  -1.000  0.00  0.00     0.046 A 
ATOM     10  C   UNL d   1      27.681 -16.463  -1.001  0.00  0.00     0.030 A 
ATOM     11  C   UNL d   1      28.411 -17.501  -0.405  0.00  0.00     0.002 A 
ATOM     12  C   UNL d   1      27.751 -18.550   0.231  0.00  0.00     0.001 A 
ATOM     13  C   UNL d   1      26.359 -18.576   0.252  0.00  0.00     0.015 A 
ATOM     14  C   UNL d   1      25.608 -17.553  -0.355  0.00  0.00     0.008 A 
BRANCH  14  15
ATOM     15  C   UNL d   1      24.151 -17.702  -0.419  0.00  0.00     0.017 C 
ATOM     16  C   UNL d   1      23.431 -18.874  -0.565  0.00  0.00     0.020 C 
ATOM     17  C   UNL d   1      22.069 -18.631  -0.880  0.00  0.00     0.008 C 
ATOM     18  C   UNL d   1      21.775 -17.286  -0.893  0.00  0.00     0.050 C 
ATOM     19  S   UNL d   1      23.130 -16.324  -0.480  0.00  0.00    -0.101 SA
ENDBRANCH  14  15
ENDBRANCH   7   9
ENDBRANCH   2   5
BRANCH   3  20
ATOM     20  C   UNL d   1      25.553 -11.169  -3.676  0.00  0.00     0.159 C 
BRANCH  20  21
ATOM     21  C   UNL d   1      25.931 -10.707  -5.089  0.00  0.00     0.172 C 
BRANCH  21  22
ATOM     22  O   UNL d   1      25.516 -11.741  -6.002  0.00  0.00    -0.389 OA
ATOM     23  H   UNL d   1      24.756 -12.186  -5.584  0.00  0.00     0.210 HD
ENDBRANCH  21  22
BRANCH  21  24
ATOM     24  C   UNL d   1      25.336  -9.371  -5.461  0.00  0.00     0.011 A 
ATOM     25  C   UNL d   1      24.407  -8.718  -4.639  0.00  0.00     0.013 A 
ATOM     26  C   UNL d   1      23.833  -7.508  -5.027  0.00  0.00     0.001 A 
ATOM     27  C   UNL d   1      24.172  -6.933  -6.249  0.00  0.00     0.003 A 
ATOM     28  C   UNL d   1      25.095  -7.564  -7.080  0.00  0.00     0.043 A 
ATOM     29  C   UNL d   1      25.668  -8.770  -6.683  0.00  0.00     0.125 A 
ATOM     30  F   UNL d   1      26.543  -9.362  -7.508  0.00  0.00    -0.205 F 
ENDBRANCH  21  24
ENDBRANCH  20  21
ENDBRANCH   3  20
TORSDOF 7
ENDMDL
MODEL 7
REMARK VINA RESULT:    -6.847      4.381      8.007
REMARK INTER + INTRA:         -11.610
REMARK INTER:                  -8.935
REMARK INTRA:                  -2.675
REMARK CONF_INDEPENDENT:        2.088
REMARK UNBOUND:                -2.675
REMARK  7 active torsions:
REMARK  status: ('A' for Active; 'I' for Inactive)
REMARK       I    between atoms: C_2  and  N_3 
REMARK    1  A    between atoms: C_2  and  C_14 
REMARK    2  A    between atoms: N_3  and  C_4 
REMARK    3  A    between atoms: C_4  and  C_5 
REMARK    4  A    between atoms: C_5  and  O_6 
REMARK    5  A    between atoms: C_5  and  C_7 
REMARK       I    between atoms: C_14  and  N_16 
REMARK    6  A    between atoms: N_16  and  C_17 
REMARK    7  A    between atoms: C_22  and  C_23 
ROOT
ATOM      1  O   UNL d   1      30.652 -14.780  -1.009  0.00  0.00    -0.262 OA
ATOM      2  C   UNL d   1      30.172 -15.615  -0.242  0.00  0.00     0.309 C 
ATOM      3  N   UNL d   1      30.752 -15.879   0.980  0.00  0.00    -0.350 N 
ATOM      4  H   UNL d   1      30.448 -16.625   1.586  0.00  0.00     0.163 HD
ENDROOT
BRANCH   2   5
ATOM      5  C   UNL d   1      28.884 -16.364  -0.641  0.00  0.00     0.314 C 
ATOM      6  O   UNL d   1      29.019 -17.528  -1.018  0.00  0.00    -0.262 OA
ATOM      7  N   UNL d   1      27.660 -15.693  -0.598  0.00  0.00    -0.318 N 
ATOM      8  H   UNL d   1      27.629 -14.685  -0.627  0.00  0.00     0.169 HD
BRANCH   7   9
ATOM      9  C   UNL d   1      26.400 -16.374  -0.620  0.00  0.00     0.046 A 
ATOM     10  C   UNL d   1      26.185 -17.413   0.300  0.00  0.00     0.030 A 
ATOM     11  C   UNL d   1      25.028 -18.204   0.230  0.00  0.00     0.002 A 
ATOM     12  C   UNL d   1      24.057 -17.946  -0.733  0.00  0.00     0.001 A 
ATOM     13  C   UNL d   1      24.249 -16.910  -1.645  0.00  0.00     0.015 A 
ATOM     14  C   UNL d   1      25.409 -16.117  -1.603  0.00  0.00     0.008 A 
BRANCH  14  15
ATOM     15  C   UNL d   1      25.619 -15.133  -2.669  0.00  0.00     0.017 C 
ATOM     16  C   UNL d   1      24.739 -14.157  -3.100  0.00  0.00     0.020 C 
ATOM     17  C   UNL d   1      25.143 -13.576  -4.330  0.00  0.00     0.008 C 
ATOM     18  C   UNL d   1      26.353 -14.071  -4.761  0.00  0.00     0.050 C 
ATOM     19  S   UNL d   1      27.019 -15.200  -3.660  0.00  0.00    -0.101 SA
ENDBRANCH  14  15
ENDBRANCH   7   9
ENDBRANCH   2   5
BRANCH   3  20
ATOM     20  C   UNL d   1      31.860 -15.040   1.427  0.00  0.00     0.159 C 
BRANCH  20  21
ATOM     21  C   UNL d   1      31.357 -13.805   2.186  0.00  0.00     0.172 C 
BRANCH  21  22
ATOM     22  O   UNL d   1      31.024 -12.806   1.204  0.00  0.00    -0.389 OA
ATOM     23  H   UNL d   1      30.630 -13.283   0.450  0.00  0.00     0.210 HD
ENDBRANCH  21  22
BRANCH  21  24
ATOM     24  C   UNL d   1      30.189 -14.095   3.096  0.00  0.00     0.011 A 
ATOM     25  C   UNL d   1      30.368 -14.514   4.422  0.00  0.00     0.013 A 
ATOM     26  C   UNL d   1      29.274 -14.825   5.229  0.00  0.00     0.001 A 
ATOM     27  C   UNL d   1      27.981 -14.729   4.721  0.00  0.00     0.003 A 
ATOM     28  C   UNL d   1      27.780 -14.313   3.407  0.00  0.00     0.043 A 
ATOM     29  C   UNL d   1      28.878 -14.000   2.609  0.00  0.00     0.125 A 
ATOM     30  F   UNL d   1      28.657 -13.615   1.344  0.00  0.00    -0.205 F 
ENDBRANCH  21  24
ENDBRANCH  20  21
ENDBRANCH   3  20
TORSDOF 7
ENDMDL
MODEL 8
REMARK VINA RESULT:    -6.811      4.285      6.458
REMARK INTER + INTRA:         -11.546
REMARK INTER:                  -8.899
REMARK INTRA:                  -2.647
REMARK CONF_INDEPENDENT:        2.088
REMARK UNBOUND:                -2.647
REMARK  7 active torsions:
REMARK  status: ('A' for Active; 'I' for Inactive)
REMARK       I    between atoms: C_2  and  N_3 
REMARK    1  A    between atoms: C_2  and  C_14 
REMARK    2  A    between atoms: N_3  and  C_4 
REMARK    3  A    between atoms: C_4  and  C_5 
REMARK    4  A    between atoms: C_5  and  O_6 
REMARK    5  A    between atoms: C_5  and  C_7 
REMARK       I    between atoms: C_14  and  N_16 
REMARK    6  A    between atoms: N_16  and  C_17 
REMARK    7  A    between atoms: C_22  and  C_23 
ROOT
ATOM      1  O   UNL d   1      25.152 -14.448  -4.455  0.00  0.00    -0.262 OA
ATOM      2  C   UNL d   1      25.748 -13.785  -3.605  0.00  0.00     0.309 C 
ATOM      3  N   UNL d   1      26.246 -14.373  -2.462  0.00  0.00    -0.350 N 
ATOM      4  H   UNL d   1      26.647 -13.848  -1.700  0.00  0.00     0.163 HD
ENDROOT
BRANCH   2   5
ATOM      5  C   UNL d   1      25.966 -12.275  -3.830  0.00  0.00     0.314 C 
ATOM      6  O   UNL d   1      26.518 -11.657  -2.920  0.00  0.00    -0.262 OA
ATOM      7  N   UNL d   1      25.502 -11.685  -5.008  0.00  0.00    -0.318 N 
ATOM      8  H   UNL d   1      24.773 -12.126  -5.548  0.00  0.00     0.169 HD
BRANCH   7   9
ATOM      9  C   UNL d   1      25.942 -10.397  -5.455  0.00  0.00     0.046 A 
ATOM     10  C   UNL d   1      25.335  -9.255  -4.908  0.00  0.00     0.030 A 
ATOM     11  C   UNL d   1      25.627  -7.978  -5.410  0.00  0.00     0.002 A 
ATOM     12  C   UNL d   1      26.554  -7.821  -6.438  0.00  0.00     0.001 A 
ATOM     13  C   UNL d   1      27.174  -8.943  -6.983  0.00  0.00     0.015 A 
ATOM     14  C   UNL d   1      26.883 -10.233  -6.505  0.00  0.00     0.008 A 
BRANCH  14  15
ATOM     15  C   UNL d   1      27.462 -11.383  -7.206  0.00  0.00     0.017 C 
ATOM     16  C   UNL d   1      28.175 -12.432  -6.656  0.00  0.00     0.020 C 
ATOM     17  C   UNL d   1      28.832 -13.211  -7.645  0.00  0.00     0.008 C 
ATOM     18  C   UNL d   1      28.540 -12.778  -8.919  0.00  0.00     0.050 C 
ATOM     19  S   UNL d   1      27.442 -11.465  -8.920  0.00  0.00    -0.101 SA
ENDBRANCH  14  15
ENDBRANCH   7   9
ENDBRANCH   2   5
BRANCH   3  20
ATOM     20  C   UNL d   1      26.197 -15.827  -2.341  0.00  0.00     0.159 C 
BRANCH  20  21
ATOM     21  C   UNL d   1      25.909 -16.261  -0.899  0.00  0.00     0.172 C 
BRANCH  21  22
ATOM     22  O   UNL d   1      25.968 -15.080  -0.077  0.00  0.00    -0.389 OA
ATOM     23  H   UNL d   1      26.296 -15.368   0.795  0.00  0.00     0.210 HD
ENDBRANCH  21  22
BRANCH  21  24
ATOM     24  C   UNL d   1      24.591 -16.978  -0.740  0.00  0.00     0.011 A 
ATOM     25  C   UNL d   1      23.364 -16.324  -0.923  0.00  0.00     0.013 A 
ATOM     26  C   UNL d   1      22.159 -16.994  -0.723  0.00  0.00     0.001 A 
ATOM     27  C   UNL d   1      22.157 -18.329  -0.328  0.00  0.00     0.003 A 
ATOM     28  C   UNL d   1      23.364 -18.999  -0.143  0.00  0.00     0.043 A 
ATOM     29  C   UNL d   1      24.565 -18.324  -0.350  0.00  0.00     0.125 A 
ATOM     30  F   UNL d   1      25.712 -18.989  -0.151  0.00  0.00    -0.205 F 
ENDBRANCH  21  24
ENDBRANCH  20  21
ENDBRANCH   3  20
TORSDOF 7
ENDMDL
MODEL 9
REMARK VINA RESULT:    -5.713      4.302      8.665
REMARK INTER + INTRA:         -11.364
REMARK INTER:                  -7.801
REMARK INTRA:                  -3.563
REMARK CONF_INDEPENDENT:        2.088
REMARK UNBOUND:                -3.563
REMARK  7 active torsions:
REMARK  status: ('A' for Active; 'I' for Inactive)
REMARK       I    between atoms: C_2  and  N_3 
REMARK    1  A    between atoms: C_2  and  C_14 
REMARK    2  A    between atoms: N_3  and  C_4 
REMARK    3  A    between atoms: C_4  and  C_5 
REMARK    4  A    between atoms: C_5  and  O_6 
REMARK    5  A    between atoms: C_5  and  C_7 
REMARK       I    between atoms: C_14  and  N_16 
REMARK    6  A    between atoms: N_16  and  C_17 
REMARK    7  A    between atoms: C_22  and  C_23 
ROOT
ATOM      1  O   UNL d   1      26.449 -12.804  -2.956  0.00  0.00    -0.262 OA
ATOM      2  C   UNL d   1      26.170 -13.693  -3.761  0.00  0.00     0.309 C 
ATOM      3  N   UNL d   1      26.466 -13.560  -5.101  0.00  0.00    -0.350 N 
ATOM      4  H   UNL d   1      26.161 -14.219  -5.801  0.00  0.00     0.163 HD
ENDROOT
BRANCH   2   5
ATOM      5  C   UNL d   1      25.499 -14.989  -3.263  0.00  0.00     0.314 C 
ATOM      6  O   UNL d   1      25.390 -15.902  -4.082  0.00  0.00    -0.262 OA
ATOM      7  N   UNL d   1      25.020 -15.052  -1.952  0.00  0.00    -0.318 N 
ATOM      8  H   UNL d   1      24.813 -14.207  -1.443  0.00  0.00     0.169 HD
BRANCH   7   9
ATOM      9  C   UNL d   1      24.698 -16.288  -1.303  0.00  0.00     0.046 A 
ATOM     10  C   UNL d   1      23.354 -16.695  -1.269  0.00  0.00     0.030 A 
ATOM     11  C   UNL d   1      22.966 -17.821  -0.528  0.00  0.00     0.002 A 
ATOM     12  C   UNL d   1      23.916 -18.575   0.157  0.00  0.00     0.001 A 
ATOM     13  C   UNL d   1      25.254 -18.192   0.122  0.00  0.00     0.015 A 
ATOM     14  C   UNL d   1      25.662 -17.057  -0.601  0.00  0.00     0.008 A 
BRANCH  14  15
ATOM     15  C   UNL d   1      27.059 -16.625  -0.491  0.00  0.00     0.017 C 
ATOM     16  C   UNL d   1      28.192 -17.410  -0.589  0.00  0.00     0.020 C 
ATOM     17  C   UNL d   1      29.357 -16.729  -0.147  0.00  0.00     0.008 C 
ATOM     18  C   UNL d   1      29.088 -15.424   0.202  0.00  0.00     0.050 C 
ATOM     19  S   UNL d   1      27.445 -15.013  -0.046  0.00  0.00    -0.101 SA
ENDBRANCH  14  15
ENDBRANCH   7   9
ENDBRANCH   2   5
BRANCH   3  20
ATOM     20  C   UNL d   1      27.261 -12.416  -5.535  0.00  0.00     0.159 C 
BRANCH  20  21
ATOM     21  C   UNL d   1      28.750 -12.619  -5.227  0.00  0.00     0.172 C 
BRANCH  21  22
ATOM     22  O   UNL d   1      29.047 -11.863  -4.037  0.00  0.00    -0.389 OA
ATOM     23  H   UNL d   1      28.497 -12.243  -3.327  0.00  0.00     0.210 HD
ENDBRANCH  21  22
BRANCH  21  24
ATOM     24  C   UNL d   1      29.138 -14.068  -5.071  0.00  0.00     0.011 A 
ATOM     25  C   UNL d   1      29.339 -14.651  -3.811  0.00  0.00     0.013 A 
ATOM     26  C   UNL d   1      29.746 -15.979  -3.694  0.00  0.00     0.001 A 
ATOM     27  C   UNL d   1      29.966 -16.747  -4.834  0.00  0.00     0.003 A 
ATOM     28  C   UNL d   1      29.770 -16.190  -6.095  0.00  0.00     0.043 A 
ATOM     29  C   UNL d   1      29.359 -14.863  -6.205  0.00  0.00     0.125 A 
ATOM     30  F   UNL d   1      29.191 -14.347  -7.430  0.00  0.00    -0.205 F 
ENDBRANCH  21  24
ENDBRANCH  20  21
ENDBRANCH   3  20
TORSDOF 7
ENDMDL
