MODEL 1
REMARK VINA RESULT:    -8.105      0.000      0.000
REMARK INTER + INTRA:         -11.141
REMARK INTER:                  -9.895
REMARK INTRA:                  -1.247
REMARK CONF_INDEPENDENT:        1.790
REMARK UNBOUND:                -1.247
REMARK  6 active torsions:
REMARK  status: ('A' for Active; 'I' for Inactive)
REMARK    1  A    between atoms: C_5  and  C_6 
REMARK       I    between atoms: C_6  and  N_8 
REMARK    2  A    between atoms: N_8  and  N_9 
REMARK       I    between atoms: N_9  and  C_10 
REMARK    3  A    between atoms: C_10  and  C_12 
REMARK    4  A    between atoms: C_12  and  C_13 
REMARK    5  A    between atoms: C_13  and  N_14 
REMARK       I    between atoms: N_14  and  C_15 
REMARK    6  A    between atoms: C_15  and  C_17 
ROOT
ATOM      1  N   UNL d   1      25.005 -17.267  -0.662  0.00  0.00    -0.267 N 
ATOM      2  C   UNL d   1      26.267 -17.658  -0.247  0.00  0.00     0.237 C 
ATOM      3  O   UNL d   1      26.434 -18.680   0.423  0.00  0.00    -0.272 OA
ATOM      4  H   UNL d   1      24.803 -16.443  -1.224  0.00  0.00     0.190 HD
ENDROOT
BRANCH   2   5
ATOM      5  C   UNL d   1      27.425 -16.757  -0.684  0.00  0.00     0.124 C 
BRANCH   5   6
ATOM      6  C   UNL d   1      26.886 -15.551  -1.463  0.00  0.00     0.132 C 
BRANCH   6   7
ATOM      7  N   UNL d   1      26.062 -15.901  -2.631  0.00  0.00    -0.356 N 
ATOM      8  C   UNL d   1      26.138 -15.234  -3.853  0.00  0.00     0.251 C 
ATOM      9  O   UNL d   1      25.106 -14.823  -4.386  0.00  0.00    -0.268 OA
ATOM     10  H   UNL d   1      25.089 -16.097  -2.423  0.00  0.00     0.162 HD
BRANCH   8  11
ATOM     11  C   UNL d   1      27.449 -15.121  -4.569  0.00  0.00     0.032 A 
ATOM     12  C   UNL d   1      28.654 -15.475  -3.939  0.00  0.00     0.018 A 
ATOM     13  C   UNL d   1      29.880 -15.292  -4.604  0.00  0.00     0.025 A 
ATOM     14  C   UNL d   1      29.904 -14.792  -5.906  0.00  0.00     0.034 A 
ATOM     15 CL   UNL d   1      31.389 -14.549  -6.735  0.00  0.00    -0.084 Cl
ATOM     16  C   UNL d   1      28.721 -14.433  -6.532  0.00  0.00     0.025 A 
ATOM     17  C   UNL d   1      27.522 -14.543  -5.839  0.00  0.00     0.018 A 
ENDBRANCH   8  11
ENDBRANCH   6   7
ENDBRANCH   5   6
ENDBRANCH   2   5
BRANCH   1  18
ATOM     18  N   UNL d   1      23.893 -18.064  -0.277  0.00  0.00    -0.263 N 
ATOM     19  C   UNL d   1      22.600 -17.654  -0.582  0.00  0.00     0.270 C 
ATOM     20  O   UNL d   1      22.385 -16.607  -1.196  0.00  0.00    -0.266 OA
ATOM     21  H   UNL d   1      24.128 -18.916   0.226  0.00  0.00     0.190 HD
BRANCH  19  22
ATOM     22  C   UNL d   1      21.449 -18.533  -0.146  0.00  0.00     0.033 A 
ATOM     23  C   UNL d   1      20.509 -18.966  -1.101  0.00  0.00     0.017 A 
ATOM     24  C   UNL d   1      19.434 -19.800  -0.741  0.00  0.00     0.007 A 
ATOM     25  C   UNL d   1      19.274 -20.220   0.583  0.00  0.00    -0.062 A 
ATOM     26  C   UNL d   1      18.149 -21.128   0.992  0.00  0.00     0.048 C 
ATOM     27  C   UNL d   1      20.198 -19.782   1.536  0.00  0.00     0.007 A 
ATOM     28  C   UNL d   1      21.271 -18.949   1.179  0.00  0.00     0.017 A 
ENDBRANCH  19  22
ENDBRANCH   1  18
TORSDOF 6
ENDMDL
MODEL 2
REMARK VINA RESULT:    -8.062      5.103      9.577
REMARK INTER + INTRA:         -11.425
REMARK INTER:                  -9.852
REMARK INTRA:                  -1.573
REMARK CONF_INDEPENDENT:        1.790
REMARK UNBOUND:                -1.573
REMARK  6 active torsions:
REMARK  status: ('A' for Active; 'I' for Inactive)
REMARK    1  A    between atoms: C_5  and  C_6 
REMARK       I    between atoms: C_6  and  N_8 
REMARK    2  A    between atoms: N_8  and  N_9 
REMARK       I    between atoms: N_9  and  C_10 
REMARK    3  A    between atoms: C_10  and  C_12 
REMARK    4  A    between atoms: C_12  and  C_13 
REMARK    5  A    between atoms: C_13  and  N_14 
REMARK       I    between atoms: N_14  and  C_15 
REMARK    6  A    between atoms: C_15  and  C_17 
ROOT
ATOM      1  N   UNL d   1      26.050 -13.120  -3.501  0.00  0.00    -0.267 N 
ATOM      2  C   UNL d   1      25.396 -14.292  -3.842  0.00  0.00     0.237 C 
ATOM      3  O   UNL d   1      24.408 -14.282  -4.581  0.00  0.00    -0.272 OA
ATOM      4  H   UNL d   1      26.874 -13.062  -2.906  0.00  0.00     0.190 HD
ENDROOT
BRANCH   2   5
ATOM      5  C   UNL d   1      25.983 -15.581  -3.263  0.00  0.00     0.124 C 
BRANCH   5   6
ATOM      6  C   UNL d   1      26.424 -15.351  -1.812  0.00  0.00     0.132 C 
BRANCH   6   7
ATOM      7  N   UNL d   1      26.846 -16.571  -1.105  0.00  0.00    -0.356 N 
ATOM      8  C   UNL d   1      26.097 -17.171  -0.094  0.00  0.00     0.251 C 
ATOM      9  O   UNL d   1      26.638 -17.452   0.977  0.00  0.00    -0.268 OA
ATOM     10  H   UNL d   1      27.827 -16.598  -0.848  0.00  0.00     0.162 HD
BRANCH   8  11
ATOM     11  C   UNL d   1      24.677 -17.577  -0.347  0.00  0.00     0.032 A 
ATOM     12  C   UNL d   1      23.671 -16.616  -0.542  0.00  0.00     0.018 A 
ATOM     13  C   UNL d   1      22.333 -17.017  -0.705  0.00  0.00     0.025 A 
ATOM     14  C   UNL d   1      22.002 -18.372  -0.709  0.00  0.00     0.034 A 
ATOM     15 CL   UNL d   1      20.373 -18.886  -0.895  0.00  0.00    -0.084 Cl
ATOM     16  C   UNL d   1      22.986 -19.326  -0.509  0.00  0.00     0.025 A 
ATOM     17  C   UNL d   1      24.293 -18.917  -0.270  0.00  0.00     0.018 A 
ENDBRANCH   8  11
ENDBRANCH   6   7
ENDBRANCH   5   6
ENDBRANCH   2   5
BRANCH   1  18
ATOM     18  N   UNL d   1      25.541 -11.892  -4.005  0.00  0.00    -0.263 N 
ATOM     19  C   UNL d   1      26.191 -10.696  -3.721  0.00  0.00     0.270 C 
ATOM     20  O   UNL d   1      27.219 -10.669  -3.041  0.00  0.00    -0.266 OA
ATOM     21  H   UNL d   1      24.692 -11.974  -4.559  0.00  0.00     0.190 HD
BRANCH  19  22
ATOM     22  C   UNL d   1      25.607  -9.415  -4.274  0.00  0.00     0.033 A 
ATOM     23  C   UNL d   1      25.107  -9.396  -5.591  0.00  0.00     0.017 A 
ATOM     24  C   UNL d   1      24.538  -8.231  -6.137  0.00  0.00     0.007 A 
ATOM     25  C   UNL d   1      24.456  -7.059  -5.380  0.00  0.00    -0.062 A 
ATOM     26  C   UNL d   1      23.834  -5.806  -5.931  0.00  0.00     0.048 C 
ATOM     27  C   UNL d   1      24.962  -7.070  -4.077  0.00  0.00     0.007 A 
ATOM     28  C   UNL d   1      25.531  -8.232  -3.530  0.00  0.00     0.017 A 
ENDBRANCH  19  22
ENDBRANCH   1  18
TORSDOF 6
ENDMDL
MODEL 3
REMARK VINA RESULT:    -8.018      4.549      6.119
REMARK INTER + INTRA:         -11.186
REMARK INTER:                  -9.808
REMARK INTRA:                  -1.378
REMARK CONF_INDEPENDENT:        1.790
REMARK UNBOUND:                -1.378
REMARK  6 active torsions:
REMARK  status: ('A' for Active; 'I' for Inactive)
REMARK    1  A    between atoms: C_5  and  C_6 
REMARK       I    between atoms: C_6  and  N_8 
REMARK    2  A    between atoms: N_8  and  N_9 
REMARK       I    between atoms: N_9  and  C_10 
REMARK    3  A    between atoms: C_10  and  C_12 
REMARK    4  A    between atoms: C_12  and  C_13 
REMARK    5  A    between atoms: C_13  and  N_14 
REMARK       I    between atoms: N_14  and  C_15 
REMARK    6  A    between atoms: C_15  and  C_17 
ROOT
ATOM      1  N   UNL d   1      25.099 -17.281  -0.364  0.00  0.00    -0.267 N 
ATOM      2  C   UNL d   1      26.329 -17.796   0.010  0.00  0.00     0.237 C 
ATOM      3  O   UNL d   1      26.436 -18.942   0.453  0.00  0.00    -0.272 OA
ATOM      4  H   UNL d   1      24.946 -16.350  -0.746  0.00  0.00     0.190 HD
ENDROOT
BRANCH   2   5
ATOM      5  C   UNL d   1      27.530 -16.866  -0.177  0.00  0.00     0.124 C 
BRANCH   5   6
ATOM      6  C   UNL d   1      27.729 -16.008   1.079  0.00  0.00     0.132 C 
BRANCH   6   7
ATOM      7  N   UNL d   1      27.987 -14.584   0.807  0.00  0.00    -0.356 N 
ATOM      8  C   UNL d   1      27.504 -13.550   1.608  0.00  0.00     0.251 C 
ATOM      9  O   UNL d   1      26.905 -12.608   1.087  0.00  0.00    -0.268 OA
ATOM     10  H   UNL d   1      27.903 -14.314  -0.166  0.00  0.00     0.162 HD
BRANCH   8  11
ATOM     11  C   UNL d   1      27.812 -13.525   3.074  0.00  0.00     0.032 A 
ATOM     12  C   UNL d   1      28.209 -12.339   3.713  0.00  0.00     0.018 A 
ATOM     13  C   UNL d   1      28.564 -12.353   5.073  0.00  0.00     0.025 A 
ATOM     14  C   UNL d   1      28.489 -13.538   5.805  0.00  0.00     0.034 A 
ATOM     15 CL   UNL d   1      28.928 -13.583   7.466  0.00  0.00    -0.084 Cl
ATOM     16  C   UNL d   1      28.106 -14.714   5.182  0.00  0.00     0.025 A 
ATOM     17  C   UNL d   1      27.833 -14.706   3.820  0.00  0.00     0.018 A 
ENDBRANCH   8  11
ENDBRANCH   6   7
ENDBRANCH   5   6
ENDBRANCH   2   5
BRANCH   1  18
ATOM     18  N   UNL d   1      23.949 -18.100  -0.203  0.00  0.00    -0.263 N 
ATOM     19  C   UNL d   1      22.679 -17.568  -0.397  0.00  0.00     0.270 C 
ATOM     20  O   UNL d   1      22.518 -16.388  -0.719  0.00  0.00    -0.266 OA
ATOM     21  H   UNL d   1      24.140 -19.062   0.062  0.00  0.00     0.190 HD
BRANCH  19  22
ATOM     22  C   UNL d   1      21.485 -18.477  -0.208  0.00  0.00     0.033 A 
ATOM     23  C   UNL d   1      21.175 -18.952   1.082  0.00  0.00     0.017 A 
ATOM     24  C   UNL d   1      20.062 -19.783   1.305  0.00  0.00     0.007 A 
ATOM     25  C   UNL d   1      19.233 -20.160   0.243  0.00  0.00    -0.062 A 
ATOM     26  C   UNL d   1      18.026 -21.029   0.456  0.00  0.00     0.048 C 
ATOM     27  C   UNL d   1      19.544 -19.700  -1.040  0.00  0.00     0.007 A 
ATOM     28  C   UNL d   1      20.655 -18.871  -1.264  0.00  0.00     0.017 A 
ENDBRANCH  19  22
ENDBRANCH   1  18
TORSDOF 6
ENDMDL
MODEL 4
REMARK VINA RESULT:    -7.908      1.944      2.310
REMARK INTER + INTRA:         -11.747
REMARK INTER:                  -9.698
REMARK INTRA:                  -2.049
REMARK CONF_INDEPENDENT:        1.790
REMARK UNBOUND:                -2.049
REMARK  6 active torsions:
REMARK  status: ('A' for Active; 'I' for Inactive)
REMARK    1  A    between atoms: C_5  and  C_6 
REMARK       I    between atoms: C_6  and  N_8 
REMARK    2  A    between atoms: N_8  and  N_9 
REMARK       I    between atoms: N_9  and  C_10 
REMARK    3  A    between atoms: C_10  and  C_12 
REMARK    4  A    between atoms: C_12  and  C_13 
REMARK    5  A    between atoms: C_13  and  N_14 
REMARK       I    between atoms: N_14  and  C_15 
REMARK    6  A    between atoms: C_15  and  C_17 
ROOT
ATOM      1  N   UNL d   1      25.401 -17.295  -0.006  0.00  0.00    -0.267 N 
ATOM      2  C   UNL d   1      26.568 -17.733   0.597  0.00  0.00     0.237 C 
ATOM      3  O   UNL d   1      26.602 -18.790   1.233  0.00  0.00    -0.272 OA
ATOM      4  H   UNL d   1      25.310 -16.441  -0.552  0.00  0.00     0.190 HD
ENDROOT
BRANCH   2   5
ATOM      5  C   UNL d   1      27.796 -16.840   0.409  0.00  0.00     0.124 C 
BRANCH   5   6
ATOM      6  C   UNL d   1      27.677 -16.054  -0.902  0.00  0.00     0.132 C 
BRANCH   6   7
ATOM      7  N   UNL d   1      26.956 -16.763  -1.973  0.00  0.00    -0.356 N 
ATOM      8  C   UNL d   1      25.872 -16.218  -2.659  0.00  0.00     0.251 C 
ATOM      9  O   UNL d   1      24.833 -16.870  -2.769  0.00  0.00    -0.268 OA
ATOM     10  H   UNL d   1      26.769 -17.742  -1.785  0.00  0.00     0.162 HD
BRANCH   8  11
ATOM     11  C   UNL d   1      26.008 -14.900  -3.359  0.00  0.00     0.032 A 
ATOM     12  C   UNL d   1      25.527 -13.716  -2.777  0.00  0.00     0.018 A 
ATOM     13  C   UNL d   1      25.598 -12.501  -3.482  0.00  0.00     0.025 A 
ATOM     14  C   UNL d   1      26.180 -12.459  -4.749  0.00  0.00     0.034 A 
ATOM     15 CL   UNL d   1      26.270 -10.990  -5.635  0.00  0.00    -0.084 Cl
ATOM     16  C   UNL d   1      26.651 -13.623  -5.334  0.00  0.00     0.025 A 
ATOM     17  C   UNL d   1      26.504 -14.831  -4.663  0.00  0.00     0.018 A 
ENDBRANCH   8  11
ENDBRANCH   6   7
ENDBRANCH   5   6
ENDBRANCH   2   5
BRANCH   1  18
ATOM     18  N   UNL d   1      24.227 -18.083   0.144  0.00  0.00    -0.263 N 
ATOM     19  C   UNL d   1      23.007 -17.619  -0.333  0.00  0.00     0.270 C 
ATOM     20  O   UNL d   1      22.912 -16.528  -0.902  0.00  0.00    -0.266 OA
ATOM     21  H   UNL d   1      24.364 -18.971   0.619  0.00  0.00     0.190 HD
BRANCH  19  22
ATOM     22  C   UNL d   1      21.785 -18.490  -0.145  0.00  0.00     0.033 A 
ATOM     23  C   UNL d   1      21.029 -18.873  -1.269  0.00  0.00     0.017 A 
ATOM     24  C   UNL d   1      19.897 -19.699  -1.140  0.00  0.00     0.007 A 
ATOM     25  C   UNL d   1      19.496 -20.161   0.117  0.00  0.00    -0.062 A 
ATOM     26  C   UNL d   1      18.304 -21.063   0.282  0.00  0.00     0.048 C 
ATOM     27  C   UNL d   1      20.237 -19.774   1.237  0.00  0.00     0.007 A 
ATOM     28  C   UNL d   1      21.366 -18.949   1.110  0.00  0.00     0.017 A 
ENDBRANCH  19  22
ENDBRANCH   1  18
TORSDOF 6
ENDMDL
MODEL 5
REMARK VINA RESULT:    -7.854      3.437      5.011
REMARK INTER + INTRA:         -11.167
REMARK INTER:                  -9.644
REMARK INTRA:                  -1.524
REMARK CONF_INDEPENDENT:        1.790
REMARK UNBOUND:                -1.524
REMARK  6 active torsions:
REMARK  status: ('A' for Active; 'I' for Inactive)
REMARK    1  A    between atoms: C_5  and  C_6 
REMARK       I    between atoms: C_6  and  N_8 
REMARK    2  A    between atoms: N_8  and  N_9 
REMARK       I    between atoms: N_9  and  C_10 
REMARK    3  A    between atoms: C_10  and  C_12 
REMARK    4  A    between atoms: C_12  and  C_13 
REMARK    5  A    between atoms: C_13  and  N_14 
REMARK       I    between atoms: N_14  and  C_15 
REMARK    6  A    between atoms: C_15  and  C_17 
ROOT
ATOM      1  N   UNL d   1      26.903 -15.093  -3.593  0.00  0.00    -0.267 N 
ATOM      2  C   UNL d   1      27.025 -15.002  -4.969  0.00  0.00     0.237 C 
ATOM      3  O   UNL d   1      26.234 -15.576  -5.722  0.00  0.00    -0.272 OA
ATOM      4  H   UNL d   1      27.514 -14.636  -2.920  0.00  0.00     0.190 HD
ENDROOT
BRANCH   2   5
ATOM      5  C   UNL d   1      28.181 -14.142  -5.484  0.00  0.00     0.124 C 
BRANCH   5   6
ATOM      6  C   UNL d   1      29.464 -14.979  -5.560  0.00  0.00     0.132 C 
BRANCH   6   7
ATOM      7  N   UNL d   1      29.749 -15.535  -6.894  0.00  0.00    -0.356 N 
ATOM      8  C   UNL d   1      30.727 -16.499  -7.131  0.00  0.00     0.251 C 
ATOM      9  O   UNL d   1      31.553 -16.318  -8.027  0.00  0.00    -0.268 OA
ATOM     10  H   UNL d   1      29.769 -14.853  -7.644  0.00  0.00     0.162 HD
BRANCH   8  11
ATOM     11  C   UNL d   1      30.703 -17.797  -6.383  0.00  0.00     0.032 A 
ATOM     12  C   UNL d   1      30.729 -17.826  -4.979  0.00  0.00     0.018 A 
ATOM     13  C   UNL d   1      30.780 -19.056  -4.298  0.00  0.00     0.025 A 
ATOM     14  C   UNL d   1      30.770 -20.254  -5.013  0.00  0.00     0.034 A 
ATOM     15 CL   UNL d   1      30.842 -21.768  -4.205  0.00  0.00    -0.084 Cl
ATOM     16  C   UNL d   1      30.753 -20.234  -6.398  0.00  0.00     0.025 A 
ATOM     17  C   UNL d   1      30.782 -19.015  -7.063  0.00  0.00     0.018 A 
ENDBRANCH   8  11
ENDBRANCH   6   7
ENDBRANCH   5   6
ENDBRANCH   2   5
BRANCH   1  18
ATOM     18  N   UNL d   1      25.850 -15.887  -3.061  0.00  0.00    -0.263 N 
ATOM     19  C   UNL d   1      25.688 -16.002  -1.684  0.00  0.00     0.270 C 
ATOM     20  O   UNL d   1      26.437 -15.419  -0.898  0.00  0.00    -0.266 OA
ATOM     21  H   UNL d   1      25.264 -16.344  -3.754  0.00  0.00     0.190 HD
BRANCH  19  22
ATOM     22  C   UNL d   1      24.558 -16.863  -1.166  0.00  0.00     0.033 A 
ATOM     23  C   UNL d   1      23.259 -16.326  -1.090  0.00  0.00     0.017 A 
ATOM     24  C   UNL d   1      22.175 -17.099  -0.633  0.00  0.00     0.007 A 
ATOM     25  C   UNL d   1      22.367 -18.427  -0.240  0.00  0.00    -0.062 A 
ATOM     26  C   UNL d   1      21.225 -19.282   0.231  0.00  0.00     0.048 C 
ATOM     27  C   UNL d   1      23.657 -18.960  -0.303  0.00  0.00     0.007 A 
ATOM     28  C   UNL d   1      24.740 -18.190  -0.758  0.00  0.00     0.017 A 
ENDBRANCH  19  22
ENDBRANCH   1  18
TORSDOF 6
ENDMDL
MODEL 6
REMARK VINA RESULT:    -7.833      4.226      9.653
REMARK INTER + INTRA:         -11.008
REMARK INTER:                  -9.622
REMARK INTRA:                  -1.386
REMARK CONF_INDEPENDENT:        1.790
REMARK UNBOUND:                -1.386
REMARK  6 active torsions:
REMARK  status: ('A' for Active; 'I' for Inactive)
REMARK    1  A    between atoms: C_5  and  C_6 
REMARK       I    between atoms: C_6  and  N_8 
REMARK    2  A    between atoms: N_8  and  N_9 
REMARK       I    between atoms: N_9  and  C_10 
REMARK    3  A    between atoms: C_10  and  C_12 
REMARK    4  A    between atoms: C_12  and  C_13 
REMARK    5  A    between atoms: C_13  and  N_14 
REMARK       I    between atoms: N_14  and  C_15 
REMARK    6  A    between atoms: C_15  and  C_17 
ROOT
ATOM      1  N   UNL d   1      28.376 -15.573  -4.409  0.00  0.00    -0.267 N 
ATOM      2  C   UNL d   1      27.133 -15.027  -4.680  0.00  0.00     0.237 C 
ATOM      3  O   UNL d   1      26.581 -15.201  -5.770  0.00  0.00    -0.272 OA
ATOM      4  H   UNL d   1      28.878 -15.476  -3.528  0.00  0.00     0.190 HD
ENDROOT
BRANCH   2   5
ATOM      5  C   UNL d   1      26.493 -14.220  -3.549  0.00  0.00     0.124 C 
BRANCH   5   6
ATOM      6  C   UNL d   1      25.622 -15.135  -2.680  0.00  0.00     0.132 C 
BRANCH   6   7
ATOM      7  N   UNL d   1      26.377 -16.112  -1.877  0.00  0.00    -0.356 N 
ATOM      8  C   UNL d   1      25.922 -16.625  -0.664  0.00  0.00     0.251 C 
ATOM      9  O   UNL d   1      26.663 -16.604   0.320  0.00  0.00    -0.268 OA
ATOM     10  H   UNL d   1      27.371 -15.925  -1.804  0.00  0.00     0.162 HD
BRANCH   8  11
ATOM     11  C   UNL d   1      24.588 -17.302  -0.585  0.00  0.00     0.032 A 
ATOM     12  C   UNL d   1      24.487 -18.702  -0.520  0.00  0.00     0.018 A 
ATOM     13  C   UNL d   1      23.224 -19.321  -0.520  0.00  0.00     0.025 A 
ATOM     14  C   UNL d   1      22.064 -18.546  -0.549  0.00  0.00     0.034 A 
ATOM     15 CL   UNL d   1      20.510 -19.279  -0.561  0.00  0.00    -0.084 Cl
ATOM     16  C   UNL d   1      22.154 -17.166  -0.621  0.00  0.00     0.025 A 
ATOM     17  C   UNL d   1      23.406 -16.568  -0.700  0.00  0.00     0.018 A 
ENDBRANCH   8  11
ENDBRANCH   6   7
ENDBRANCH   5   6
ENDBRANCH   2   5
BRANCH   1  18
ATOM     18  N   UNL d   1      29.019 -16.325  -5.429  0.00  0.00    -0.263 N 
ATOM     19  C   UNL d   1      30.029 -17.224  -5.104  0.00  0.00     0.270 C 
ATOM     20  O   UNL d   1      30.382 -17.399  -3.935  0.00  0.00    -0.266 OA
ATOM     21  H   UNL d   1      28.689 -16.141  -6.372  0.00  0.00     0.190 HD
BRANCH  19  22
ATOM     22  C   UNL d   1      30.688 -17.997  -6.224  0.00  0.00     0.033 A 
ATOM     23  C   UNL d   1      30.565 -19.400  -6.262  0.00  0.00     0.017 A 
ATOM     24  C   UNL d   1      31.146 -20.155  -7.298  0.00  0.00     0.007 A 
ATOM     25  C   UNL d   1      31.863 -19.525  -8.319  0.00  0.00    -0.062 A 
ATOM     26  C   UNL d   1      32.475 -20.304  -9.450  0.00  0.00     0.048 C 
ATOM     27  C   UNL d   1      31.998 -18.134  -8.279  0.00  0.00     0.007 A 
ATOM     28  C   UNL d   1      31.419 -17.378  -7.246  0.00  0.00     0.017 A 
ENDBRANCH  19  22
ENDBRANCH   1  18
TORSDOF 6
ENDMDL
MODEL 7
REMARK VINA RESULT:    -7.269      5.429      8.741
REMARK INTER + INTRA:         -11.237
REMARK INTER:                  -9.059
REMARK INTRA:                  -2.178
REMARK CONF_INDEPENDENT:        1.790
REMARK UNBOUND:                -2.178
REMARK  6 active torsions:
REMARK  status: ('A' for Active; 'I' for Inactive)
REMARK    1  A    between atoms: C_5  and  C_6 
REMARK       I    between atoms: C_6  and  N_8 
REMARK    2  A    between atoms: N_8  and  N_9 
REMARK       I    between atoms: N_9  and  C_10 
REMARK    3  A    between atoms: C_10  and  C_12 
REMARK    4  A    between atoms: C_12  and  C_13 
REMARK    5  A    between atoms: C_13  and  N_14 
REMARK       I    between atoms: N_14  and  C_15 
REMARK    6  A    between atoms: C_15  and  C_17 
ROOT
ATOM      1  N   UNL d   1      27.098 -14.118   0.747  0.00  0.00    -0.267 N 
ATOM      2  C   UNL d   1      27.549 -14.896  -0.307  0.00  0.00     0.237 C 
ATOM      3  O   UNL d   1      28.468 -15.705  -0.158  0.00  0.00    -0.272 OA
ATOM      4  H   UNL d   1      26.339 -13.443   0.692  0.00  0.00     0.190 HD
ENDROOT
BRANCH   2   5
ATOM      5  C   UNL d   1      26.829 -14.698  -1.642  0.00  0.00     0.124 C 
BRANCH   5   6
ATOM      6  C   UNL d   1      26.474 -16.059  -2.253  0.00  0.00     0.132 C 
BRANCH   6   7
ATOM      7  N   UNL d   1      26.730 -17.208  -1.369  0.00  0.00    -0.356 N 
ATOM      8  C   UNL d   1      25.917 -17.541  -0.287  0.00  0.00     0.251 C 
ATOM      9  O   UNL d   1      26.426 -17.733   0.819  0.00  0.00    -0.268 OA
ATOM     10  H   UNL d   1      27.701 -17.333  -1.103  0.00  0.00     0.162 HD
BRANCH   8  11
ATOM     11  C   UNL d   1      24.452 -17.777  -0.489  0.00  0.00     0.032 A 
ATOM     12  C   UNL d   1      23.543 -16.707  -0.534  0.00  0.00     0.018 A 
ATOM     13  C   UNL d   1      22.163 -16.955  -0.652  0.00  0.00     0.025 A 
ATOM     14  C   UNL d   1      21.693 -18.264  -0.759  0.00  0.00     0.034 A 
ATOM     15 CL   UNL d   1      20.012 -18.594  -0.893  0.00  0.00    -0.084 Cl
ATOM     16  C   UNL d   1      22.581 -19.326  -0.708  0.00  0.00     0.025 A 
ATOM     17  C   UNL d   1      23.934 -19.074  -0.512  0.00  0.00     0.018 A 
ENDBRANCH   8  11
ENDBRANCH   6   7
ENDBRANCH   5   6
ENDBRANCH   2   5
BRANCH   1  18
ATOM     18  N   UNL d   1      27.738 -14.256   2.008  0.00  0.00    -0.263 N 
ATOM     19  C   UNL d   1      27.459 -13.362   3.036  0.00  0.00     0.270 C 
ATOM     20  O   UNL d   1      26.651 -12.443   2.886  0.00  0.00    -0.266 OA
ATOM     21  H   UNL d   1      28.394 -15.031   2.075  0.00  0.00     0.190 HD
BRANCH  19  22
ATOM     22  C   UNL d   1      28.170 -13.546   4.358  0.00  0.00     0.033 A 
ATOM     23  C   UNL d   1      28.062 -12.547   5.346  0.00  0.00     0.017 A 
ATOM     24  C   UNL d   1      28.691 -12.688   6.597  0.00  0.00     0.007 A 
ATOM     25  C   UNL d   1      29.442 -13.830   6.889  0.00  0.00    -0.062 A 
ATOM     26  C   UNL d   1      30.107 -14.016   8.224  0.00  0.00     0.048 C 
ATOM     27  C   UNL d   1      29.562 -14.818   5.907  0.00  0.00     0.007 A 
ATOM     28  C   UNL d   1      28.935 -14.679   4.658  0.00  0.00     0.017 A 
ENDBRANCH  19  22
ENDBRANCH   1  18
TORSDOF 6
ENDMDL
MODEL 8
REMARK VINA RESULT:    -7.065      5.623      7.545
REMARK INTER + INTRA:         -11.164
REMARK INTER:                  -8.855
REMARK INTRA:                  -2.309
REMARK CONF_INDEPENDENT:        1.790
REMARK UNBOUND:                -2.309
REMARK  6 active torsions:
REMARK  status: ('A' for Active; 'I' for Inactive)
REMARK    1  A    between atoms: C_5  and  C_6 
REMARK       I    between atoms: C_6  and  N_8 
REMARK    2  A    between atoms: N_8  and  N_9 
REMARK       I    between atoms: N_9  and  C_10 
REMARK    3  A    between atoms: C_10  and  C_12 
REMARK    4  A    between atoms: C_12  and  C_13 
REMARK    5  A    between atoms: C_13  and  N_14 
REMARK       I    between atoms: N_14  and  C_15 
REMARK    6  A    between atoms: C_15  and  C_17 
ROOT
ATOM      1  N   UNL d   1      28.059 -15.739   0.541  0.00  0.00    -0.267 N 
ATOM      2  C   UNL d   1      28.541 -14.469   0.272  0.00  0.00     0.237 C 
ATOM      3  O   UNL d   1      27.829 -13.612  -0.256  0.00  0.00    -0.272 OA
ATOM      4  H   UNL d   1      28.591 -16.485   0.983  0.00  0.00     0.190 HD
ENDROOT
BRANCH   2   5
ATOM      5  C   UNL d   1      29.991 -14.202   0.682  0.00  0.00     0.124 C 
BRANCH   5   6
ATOM      6  C   UNL d   1      30.029 -13.256   1.889  0.00  0.00     0.132 C 
BRANCH   6   7
ATOM      7  N   UNL d   1      28.783 -12.503   2.110  0.00  0.00    -0.356 N 
ATOM      8  C   UNL d   1      27.784 -12.915   2.990  0.00  0.00     0.251 C 
ATOM      9  O   UNL d   1      26.616 -12.967   2.601  0.00  0.00    -0.268 OA
ATOM     10  H   UNL d   1      28.352 -12.136   1.269  0.00  0.00     0.162 HD
BRANCH   8  11
ATOM     11  C   UNL d   1      28.107 -13.179   4.429  0.00  0.00     0.032 A 
ATOM     12  C   UNL d   1      28.373 -12.125   5.319  0.00  0.00     0.018 A 
ATOM     13  C   UNL d   1      28.746 -12.397   6.647  0.00  0.00     0.025 A 
ATOM     14  C   UNL d   1      28.821 -13.715   7.098  0.00  0.00     0.034 A 
ATOM     15 CL   UNL d   1      29.285 -14.075   8.712  0.00  0.00    -0.084 Cl
ATOM     16  C   UNL d   1      28.568 -14.761   6.225  0.00  0.00     0.025 A 
ATOM     17  C   UNL d   1      28.277 -14.484   4.895  0.00  0.00     0.018 A 
ENDBRANCH   8  11
ENDBRANCH   6   7
ENDBRANCH   5   6
ENDBRANCH   2   5
BRANCH   1  18
ATOM     18  N   UNL d   1      26.720 -16.043   0.173  0.00  0.00    -0.263 N 
ATOM     19  C   UNL d   1      26.249 -17.348   0.267  0.00  0.00     0.270 C 
ATOM     20  O   UNL d   1      26.966 -18.263   0.676  0.00  0.00    -0.266 OA
ATOM     21  H   UNL d   1      26.175 -15.251  -0.157  0.00  0.00     0.190 HD
BRANCH  19  22
ATOM     22  C   UNL d   1      24.819 -17.624  -0.143  0.00  0.00     0.033 A 
ATOM     23  C   UNL d   1      24.345 -18.950  -0.147  0.00  0.00     0.017 A 
ATOM     24  C   UNL d   1      23.016 -19.248  -0.502  0.00  0.00     0.007 A 
ATOM     25  C   UNL d   1      22.132 -18.227  -0.862  0.00  0.00    -0.062 A 
ATOM     26  C   UNL d   1      20.701 -18.514  -1.225  0.00  0.00     0.048 C 
ATOM     27  C   UNL d   1      22.602 -16.911  -0.871  0.00  0.00     0.007 A 
ATOM     28  C   UNL d   1      23.928 -16.611  -0.517  0.00  0.00     0.017 A 
ENDBRANCH  19  22
ENDBRANCH   1  18
TORSDOF 6
ENDMDL
MODEL 9
REMARK VINA RESULT:    -6.609      4.512      9.096
REMARK INTER + INTRA:         -11.049
REMARK INTER:                  -8.399
REMARK INTRA:                  -2.650
REMARK CONF_INDEPENDENT:        1.790
REMARK UNBOUND:                -2.650
REMARK  6 active torsions:
REMARK  status: ('A' for Active; 'I' for Inactive)
REMARK    1  A    between atoms: C_5  and  C_6 
REMARK       I    between atoms: C_6  and  N_8 
REMARK    2  A    between atoms: N_8  and  N_9 
REMARK       I    between atoms: N_9  and  C_10 
REMARK    3  A    between atoms: C_10  and  C_12 
REMARK    4  A    between atoms: C_12  and  C_13 
REMARK    5  A    between atoms: C_13  and  N_14 
REMARK       I    between atoms: N_14  and  C_15 
REMARK    6  A    between atoms: C_15  and  C_17 
ROOT
ATOM      1  N   UNL d   1      27.714 -12.978  -4.868  0.00  0.00    -0.267 N 
ATOM      2  C   UNL d   1      27.960 -11.787  -4.206  0.00  0.00     0.237 C 
ATOM      3  O   UNL d   1      29.106 -11.351  -4.077  0.00  0.00    -0.272 OA
ATOM      4  H   UNL d   1      26.793 -13.386  -5.016  0.00  0.00     0.190 HD
ENDROOT
BRANCH   2   5
ATOM      5  C   UNL d   1      26.730 -11.053  -3.667  0.00  0.00     0.124 C 
BRANCH   5   6
ATOM      6  C   UNL d   1      25.908 -11.992  -2.774  0.00  0.00     0.132 C 
BRANCH   6   7
ATOM      7  N   UNL d   1      24.955 -12.845  -3.504  0.00  0.00    -0.356 N 
ATOM      8  C   UNL d   1      25.184 -14.193  -3.775  0.00  0.00     0.251 C 
ATOM      9  O   UNL d   1      25.045 -14.613  -4.925  0.00  0.00    -0.268 OA
ATOM     10  H   UNL d   1      24.532 -12.412  -4.317  0.00  0.00     0.162 HD
BRANCH   8  11
ATOM     11  C   UNL d   1      25.480 -15.147  -2.659  0.00  0.00     0.032 A 
ATOM     12  C   UNL d   1      26.799 -15.531  -2.363  0.00  0.00     0.018 A 
ATOM     13  C   UNL d   1      27.050 -16.483  -1.359  0.00  0.00     0.025 A 
ATOM     14  C   UNL d   1      25.993 -17.027  -0.628  0.00  0.00     0.034 A 
ATOM     15 CL   UNL d   1      26.273 -18.200   0.595  0.00  0.00    -0.084 Cl
ATOM     16  C   UNL d   1      24.689 -16.660  -0.919  0.00  0.00     0.025 A 
ATOM     17  C   UNL d   1      24.446 -15.778  -1.964  0.00  0.00     0.018 A 
ENDBRANCH   8  11
ENDBRANCH   6   7
ENDBRANCH   5   6
ENDBRANCH   2   5
BRANCH   1  18
ATOM     18  N   UNL d   1      28.822 -13.705  -5.381  0.00  0.00    -0.263 N 
ATOM     19  C   UNL d   1      28.659 -15.017  -5.814  0.00  0.00     0.270 C 
ATOM     20  O   UNL d   1      27.560 -15.575  -5.773  0.00  0.00    -0.266 OA
ATOM     21  H   UNL d   1      29.702 -13.197  -5.391  0.00  0.00     0.190 HD
BRANCH  19  22
ATOM     22  C   UNL d   1      29.869 -15.751  -6.345  0.00  0.00     0.033 A 
ATOM     23  C   UNL d   1      30.092 -17.087  -5.958  0.00  0.00     0.017 A 
ATOM     24  C   UNL d   1      31.195 -17.813  -6.445  0.00  0.00     0.007 A 
ATOM     25  C   UNL d   1      32.100 -17.220  -7.331  0.00  0.00    -0.062 A 
ATOM     26  C   UNL d   1      33.274 -17.978  -7.884  0.00  0.00     0.048 C 
ATOM     27  C   UNL d   1      31.888 -15.891  -7.708  0.00  0.00     0.007 A 
ATOM     28  C   UNL d   1      30.789 -15.164  -7.223  0.00  0.00     0.017 A 
ENDBRANCH  19  22
ENDBRANCH   1  18
TORSDOF 6
ENDMDL
