MODEL 1
REMARK VINA RESULT:    -8.936      0.000      0.000
REMARK INTER + INTRA:         -10.819
REMARK INTER:                 -10.428
REMARK INTRA:                  -0.392
REMARK CONF_INDEPENDENT:        1.492
REMARK UNBOUND:                -0.392
REMARK  5 active torsions:
REMARK  status: ('A' for Active; 'I' for Inactive)
REMARK       I    between atoms: N_1  and  C_2 
REMARK    1  A    between atoms: C_2  and  C_4 
REMARK    2  A    between atoms: C_8  and  N_9 
REMARK    3  A    between atoms: N_9  and  C_10 
REMARK    4  A    between atoms: C_10  and  N_12 
REMARK    5  A    between atoms: N_12  and  C_13 
ROOT
ATOM      1  N   UNL d   1      24.844 -17.777  -0.203  0.00  0.00    -0.333 N 
ATOM      2  H   UNL d   1      25.259 -18.430   0.455  0.00  0.00     0.168 HD
ENDROOT
BRANCH   1   3
ATOM      3  C   UNL d   1      25.791 -17.008  -0.976  0.00  0.00     0.035 A 
ATOM      4  C   UNL d   1      27.146 -16.880  -0.655  0.00  0.00     0.029 A 
ATOM      5  C   UNL d   1      28.010 -16.136  -1.508  0.00  0.00     0.003 A 
ATOM      6  C   UNL d   1      27.530 -15.461  -2.647  0.00  0.00     0.017 A 
ATOM      7  C   UNL d   1      26.192 -15.576  -2.954  0.00  0.00     0.034 A 
ATOM      8  C   UNL d   1      25.400 -16.373  -2.147  0.00  0.00     0.046 A 
BRANCH   7   9
ATOM      9  C   UNL d   1      25.530 -15.038  -4.184  0.00  0.00     0.249 C 
ATOM     10  N   UNL d   1      24.824 -13.856  -4.017  0.00  0.00    -0.366 N 
ATOM     11  H   UNL d   1      24.275 -13.518  -4.797  0.00  0.00     0.159 HD
ATOM     12  H   UNL d   1      24.722 -13.366  -3.137  0.00  0.00     0.159 HD
ATOM     13  O   UNL d   1      25.546 -15.631  -5.224  0.00  0.00    -0.268 OA
ENDBRANCH   7   9
ENDBRANCH   1   3
BRANCH   1  14
ATOM     14  C   UNL d   1      23.423 -17.693  -0.244  0.00  0.00     0.176 C 
ATOM     15  S   UNL d   1      22.451 -16.360  -0.684  0.00  0.00    -0.041 SA
BRANCH  14  16
ATOM     16  N   UNL d   1      22.775 -18.863   0.190  0.00  0.00    -0.333 N 
ATOM     17  H   UNL d   1      23.260 -19.594   0.689  0.00  0.00     0.168 HD
BRANCH  16  18
ATOM     18  C   UNL d   1      21.376 -19.037   0.004  0.00  0.00     0.037 C 
ATOM     19  C   UNL d   1      20.712 -18.962  -1.213  0.00  0.00     0.032 C 
ATOM     20  C   UNL d   1      19.394 -19.495  -1.269  0.00  0.00     0.042 C 
ATOM     21  C   UNL d   1      18.767 -19.915  -0.073  0.00  0.00     0.105 C 
ATOM     22  C   UNL d   1      19.257 -19.424   1.097  0.00  0.00     0.107 C 
ATOM     23  O   UNL d   1      18.467 -21.285   0.290  0.00  0.00    -0.323 OA
ATOM     24  C   UNL d   1      20.629 -19.320   1.143  0.00  0.00     0.069 C 
ATOM     25  O   UNL d   1      18.598 -19.912   2.196  0.00  0.00    -0.323 OA
ATOM     26  C   UNL d   1      18.648 -21.263   1.763  0.00  0.00     0.352 C 
ENDBRANCH  16  18
ENDBRANCH  14  16
ENDBRANCH   1  14
TORSDOF 5
ENDMDL
MODEL 2
REMARK VINA RESULT:    -8.397      1.427      8.299
REMARK INTER + INTRA:         -10.044
REMARK INTER:                  -9.889
REMARK INTRA:                  -0.155
REMARK CONF_INDEPENDENT:        1.492
REMARK UNBOUND:                -0.155
REMARK  5 active torsions:
REMARK  status: ('A' for Active; 'I' for Inactive)
REMARK       I    between atoms: N_1  and  C_2 
REMARK    1  A    between atoms: C_2  and  C_4 
REMARK    2  A    between atoms: C_8  and  N_9 
REMARK    3  A    between atoms: N_9  and  C_10 
REMARK    4  A    between atoms: C_10  and  N_12 
REMARK    5  A    between atoms: N_12  and  C_13 
ROOT
ATOM      1  N   UNL d   1      23.003 -18.866  -0.128  0.00  0.00    -0.333 N 
ATOM      2  H   UNL d   1      23.617 -19.645   0.094  0.00  0.00     0.168 HD
ENDROOT
BRANCH   1   3
ATOM      3  C   UNL d   1      21.597 -19.192  -0.163  0.00  0.00     0.035 A 
ATOM      4  C   UNL d   1      20.843 -19.292  -1.337  0.00  0.00     0.029 A 
ATOM      5  C   UNL d   1      19.470 -19.665  -1.270  0.00  0.00     0.003 A 
ATOM      6  C   UNL d   1      18.817 -19.877  -0.039  0.00  0.00     0.017 A 
ATOM      7  C   UNL d   1      19.558 -19.765   1.116  0.00  0.00     0.034 A 
ATOM      8  C   UNL d   1      20.907 -19.480   1.007  0.00  0.00     0.046 A 
BRANCH   7   9
ATOM      9  C   UNL d   1      19.071 -20.075   2.497  0.00  0.00     0.249 C 
ATOM     10  N   UNL d   1      20.048 -20.451   3.408  0.00  0.00    -0.366 N 
ATOM     11  H   UNL d   1      19.747 -20.772   4.320  0.00  0.00     0.159 HD
ATOM     12  H   UNL d   1      21.033 -20.540   3.192  0.00  0.00     0.159 HD
ATOM     13  O   UNL d   1      17.906 -20.073   2.775  0.00  0.00    -0.268 OA
ENDBRANCH   7   9
ENDBRANCH   1   3
BRANCH   1  14
ATOM     14  C   UNL d   1      23.606 -17.605  -0.396  0.00  0.00     0.176 C 
ATOM     15  S   UNL d   1      22.852 -16.083  -0.566  0.00  0.00    -0.041 SA
BRANCH  14  16
ATOM     16  N   UNL d   1      24.997 -17.672  -0.592  0.00  0.00    -0.333 N 
ATOM     17  H   UNL d   1      25.544 -18.468  -0.298  0.00  0.00     0.168 HD
BRANCH  16  18
ATOM     18  C   UNL d   1      25.690 -16.642  -1.283  0.00  0.00     0.037 C 
ATOM     19  C   UNL d   1      26.935 -16.137  -0.933  0.00  0.00     0.032 C 
ATOM     20  C   UNL d   1      27.625 -15.369  -1.912  0.00  0.00     0.042 C 
ATOM     21  C   UNL d   1      26.960 -15.017  -3.109  0.00  0.00     0.105 C 
ATOM     22  C   UNL d   1      25.601 -15.060  -3.105  0.00  0.00     0.107 C 
ATOM     23  O   UNL d   1      27.262 -15.533  -4.429  0.00  0.00    -0.323 OA
ATOM     24  C   UNL d   1      25.063 -16.118  -2.408  0.00  0.00     0.069 C 
ATOM     25  O   UNL d   1      25.055 -14.727  -4.319  0.00  0.00    -0.323 OA
ATOM     26  C   UNL d   1      25.922 -15.571  -5.063  0.00  0.00     0.352 C 
ENDBRANCH  16  18
ENDBRANCH  14  16
ENDBRANCH   1  14
TORSDOF 5
ENDMDL
MODEL 3
REMARK VINA RESULT:    -7.985      2.113      2.744
REMARK INTER + INTRA:          -9.874
REMARK INTER:                  -9.476
REMARK INTRA:                  -0.398
REMARK CONF_INDEPENDENT:        1.492
REMARK UNBOUND:                -0.398
REMARK  5 active torsions:
REMARK  status: ('A' for Active; 'I' for Inactive)
REMARK       I    between atoms: N_1  and  C_2 
REMARK    1  A    between atoms: C_2  and  C_4 
REMARK    2  A    between atoms: C_8  and  N_9 
REMARK    3  A    between atoms: N_9  and  C_10 
REMARK    4  A    between atoms: C_10  and  N_12 
REMARK    5  A    between atoms: N_12  and  C_13 
ROOT
ATOM      1  N   UNL d   1      24.811 -17.727   0.087  0.00  0.00    -0.333 N 
ATOM      2  H   UNL d   1      25.181 -18.374   0.777  0.00  0.00     0.168 HD
ENDROOT
BRANCH   1   3
ATOM      3  C   UNL d   1      25.796 -16.876  -0.538  0.00  0.00     0.035 A 
ATOM      4  C   UNL d   1      25.883 -16.657  -1.917  0.00  0.00     0.029 A 
ATOM      5  C   UNL d   1      26.862 -15.761  -2.433  0.00  0.00     0.003 A 
ATOM      6  C   UNL d   1      27.804 -15.128  -1.598  0.00  0.00     0.017 A 
ATOM      7  C   UNL d   1      27.726 -15.355  -0.242  0.00  0.00     0.034 A 
ATOM      8  C   UNL d   1      26.710 -16.167   0.230  0.00  0.00     0.046 A 
BRANCH   7   9
ATOM      9  C   UNL d   1      28.553 -14.677   0.806  0.00  0.00     0.249 C 
ATOM     10  N   UNL d   1      29.631 -15.408   1.286  0.00  0.00    -0.366 N 
ATOM     11  H   UNL d   1      30.148 -15.029   2.068  0.00  0.00     0.159 HD
ATOM     12  H   UNL d   1      29.868 -16.346   0.989  0.00  0.00     0.159 HD
ATOM     13  O   UNL d   1      28.257 -13.607   1.253  0.00  0.00    -0.268 OA
ENDBRANCH   7   9
ENDBRANCH   1   3
BRANCH   1  14
ATOM     14  C   UNL d   1      23.405 -17.731  -0.136  0.00  0.00     0.176 C 
ATOM     15  S   UNL d   1      22.405 -16.438  -0.630  0.00  0.00    -0.041 SA
BRANCH  14  16
ATOM     16  N   UNL d   1      22.790 -18.962   0.148  0.00  0.00    -0.333 N 
ATOM     17  H   UNL d   1      23.301 -19.743   0.534  0.00  0.00     0.168 HD
BRANCH  16  18
ATOM     18  C   UNL d   1      21.392 -19.142  -0.031  0.00  0.00     0.037 C 
ATOM     19  C   UNL d   1      20.734 -19.162  -1.254  0.00  0.00     0.032 C 
ATOM     20  C   UNL d   1      19.413 -19.689  -1.273  0.00  0.00     0.042 C 
ATOM     21  C   UNL d   1      18.776 -20.006  -0.052  0.00  0.00     0.105 C 
ATOM     22  C   UNL d   1      19.264 -19.426   1.077  0.00  0.00     0.107 C 
ATOM     23  O   UNL d   1      18.465 -21.341   0.420  0.00  0.00    -0.323 OA
ATOM     24  C   UNL d   1      20.637 -19.327   1.123  0.00  0.00     0.069 C 
ATOM     25  O   UNL d   1      18.596 -19.819   2.209  0.00  0.00    -0.323 OA
ATOM     26  C   UNL d   1      18.639 -21.202   1.887  0.00  0.00     0.352 C 
ENDBRANCH  16  18
ENDBRANCH  14  16
ENDBRANCH   1  14
TORSDOF 5
ENDMDL
MODEL 4
REMARK VINA RESULT:    -7.461      4.622      6.273
REMARK INTER + INTRA:          -9.711
REMARK INTER:                  -8.952
REMARK INTRA:                  -0.759
REMARK CONF_INDEPENDENT:        1.492
REMARK UNBOUND:                -0.759
REMARK  5 active torsions:
REMARK  status: ('A' for Active; 'I' for Inactive)
REMARK       I    between atoms: N_1  and  C_2 
REMARK    1  A    between atoms: C_2  and  C_4 
REMARK    2  A    between atoms: C_8  and  N_9 
REMARK    3  A    between atoms: N_9  and  C_10 
REMARK    4  A    between atoms: C_10  and  N_12 
REMARK    5  A    between atoms: N_12  and  C_13 
ROOT
ATOM      1  N   UNL d   1      28.921 -15.906   0.588  0.00  0.00    -0.333 N 
ATOM      2  H   UNL d   1      29.766 -16.270   1.020  0.00  0.00     0.168 HD
ENDROOT
BRANCH   1   3
ATOM      3  C   UNL d   1      28.273 -14.844   1.321  0.00  0.00     0.035 A 
ATOM      4  C   UNL d   1      27.550 -13.806   0.724  0.00  0.00     0.029 A 
ATOM      5  C   UNL d   1      26.907 -12.830   1.538  0.00  0.00     0.003 A 
ATOM      6  C   UNL d   1      27.028 -12.836   2.941  0.00  0.00     0.017 A 
ATOM      7  C   UNL d   1      27.752 -13.851   3.527  0.00  0.00     0.034 A 
ATOM      8  C   UNL d   1      28.294 -14.825   2.709  0.00  0.00     0.046 A 
BRANCH   7   9
ATOM      9  C   UNL d   1      27.884 -14.092   4.998  0.00  0.00     0.249 C 
ATOM     10  N   UNL d   1      28.539 -15.260   5.358  0.00  0.00    -0.366 N 
ATOM     11  H   UNL d   1      28.553 -15.511   6.339  0.00  0.00     0.159 HD
ATOM     12  H   UNL d   1      28.903 -15.941   4.704  0.00  0.00     0.159 HD
ATOM     13  O   UNL d   1      27.388 -13.361   5.807  0.00  0.00    -0.268 OA
ENDBRANCH   7   9
ENDBRANCH   1   3
BRANCH   1  14
ATOM     14  C   UNL d   1      28.493 -16.502  -0.632  0.00  0.00     0.176 C 
ATOM     15  S   UNL d   1      28.989 -16.136  -2.224  0.00  0.00    -0.041 SA
BRANCH  14  16
ATOM     16  N   UNL d   1      27.494 -17.477  -0.465  0.00  0.00    -0.333 N 
ATOM     17  H   UNL d   1      27.708 -18.429  -0.206  0.00  0.00     0.168 HD
BRANCH  16  18
ATOM     18  C   UNL d   1      26.117 -17.144  -0.588  0.00  0.00     0.037 C 
ATOM     19  C   UNL d   1      25.604 -16.118  -1.370  0.00  0.00     0.032 C 
ATOM     20  C   UNL d   1      24.209 -16.144  -1.644  0.00  0.00     0.042 C 
ATOM     21  C   UNL d   1      23.392 -17.093  -0.987  0.00  0.00     0.105 C 
ATOM     22  C   UNL d   1      23.875 -17.649   0.156  0.00  0.00     0.107 C 
ATOM     23  O   UNL d   1      22.744 -18.229  -1.610  0.00  0.00    -0.323 OA
ATOM     24  C   UNL d   1      25.223 -17.931   0.131  0.00  0.00     0.069 C 
ATOM     25  O   UNL d   1      23.021 -18.574   0.700  0.00  0.00    -0.323 OA
ATOM     26  C   UNL d   1      22.789 -19.245  -0.530  0.00  0.00     0.352 C 
ENDBRANCH  16  18
ENDBRANCH  14  16
ENDBRANCH   1  14
TORSDOF 5
ENDMDL
MODEL 5
REMARK VINA RESULT:    -7.319      2.664      8.787
REMARK INTER + INTRA:          -9.329
REMARK INTER:                  -8.810
REMARK INTRA:                  -0.519
REMARK CONF_INDEPENDENT:        1.492
REMARK UNBOUND:                -0.519
REMARK  5 active torsions:
REMARK  status: ('A' for Active; 'I' for Inactive)
REMARK       I    between atoms: N_1  and  C_2 
REMARK    1  A    between atoms: C_2  and  C_4 
REMARK    2  A    between atoms: C_8  and  N_9 
REMARK    3  A    between atoms: N_9  and  C_10 
REMARK    4  A    between atoms: C_10  and  N_12 
REMARK    5  A    between atoms: N_12  and  C_13 
ROOT
ATOM      1  N   UNL d   1      24.024 -15.198  -2.021  0.00  0.00    -0.333 N 
ATOM      2  H   UNL d   1      23.131 -14.717  -2.077  0.00  0.00     0.168 HD
ENDROOT
BRANCH   1   3
ATOM      3  C   UNL d   1      23.992 -16.458  -1.317  0.00  0.00     0.035 A 
ATOM      4  C   UNL d   1      25.119 -17.082  -0.772  0.00  0.00     0.029 A 
ATOM      5  C   UNL d   1      24.977 -18.303  -0.054  0.00  0.00     0.003 A 
ATOM      6  C   UNL d   1      23.732 -18.950   0.074  0.00  0.00     0.017 A 
ATOM      7  C   UNL d   1      22.625 -18.342  -0.476  0.00  0.00     0.034 A 
ATOM      8  C   UNL d   1      22.790 -17.116  -1.095  0.00  0.00     0.046 A 
BRANCH   7   9
ATOM      9  C   UNL d   1      21.211 -18.812  -0.334  0.00  0.00     0.249 C 
ATOM     10  N   UNL d   1      21.027 -19.927   0.471  0.00  0.00    -0.366 N 
ATOM     11  H   UNL d   1      20.103 -20.338   0.505  0.00  0.00     0.159 HD
ATOM     12  H   UNL d   1      21.772 -20.432   0.934  0.00  0.00     0.159 HD
ATOM     13  O   UNL d   1      20.310 -18.303  -0.937  0.00  0.00    -0.268 OA
ENDBRANCH   7   9
ENDBRANCH   1   3
BRANCH   1  14
ATOM     14  C   UNL d   1      25.156 -14.561  -2.603  0.00  0.00     0.176 C 
ATOM     15  S   UNL d   1      26.696 -14.295  -1.914  0.00  0.00    -0.041 SA
BRANCH  14  16
ATOM     16  N   UNL d   1      24.919 -14.053  -3.892  0.00  0.00    -0.333 N 
ATOM     17  H   UNL d   1      23.988 -13.870  -4.236  0.00  0.00     0.168 HD
BRANCH  16  18
ATOM     18  C   UNL d   1      25.996 -13.704  -4.751  0.00  0.00     0.037 C 
ATOM     19  C   UNL d   1      26.340 -12.411  -5.125  0.00  0.00     0.032 C 
ATOM     20  C   UNL d   1      27.628 -12.220  -5.698  0.00  0.00     0.042 C 
ATOM     21  C   UNL d   1      28.420 -13.349  -6.011  0.00  0.00     0.105 C 
ATOM     22  C   UNL d   1      27.783 -14.543  -6.144  0.00  0.00     0.107 C 
ATOM     23  O   UNL d   1      29.638 -13.744  -5.333  0.00  0.00    -0.323 OA
ATOM     24  C   UNL d   1      26.768 -14.754  -5.238  0.00  0.00     0.069 C 
ATOM     25  O   UNL d   1      28.641 -15.576  -6.421  0.00  0.00    -0.323 OA
ATOM     26  C   UNL d   1      29.568 -15.224  -5.404  0.00  0.00     0.352 C 
ENDBRANCH  16  18
ENDBRANCH  14  16
ENDBRANCH   1  14
TORSDOF 5
ENDMDL
MODEL 6
REMARK VINA RESULT:    -7.199      6.266      8.529
REMARK INTER + INTRA:          -9.220
REMARK INTER:                  -8.691
REMARK INTRA:                  -0.529
REMARK CONF_INDEPENDENT:        1.492
REMARK UNBOUND:                -0.529
REMARK  5 active torsions:
REMARK  status: ('A' for Active; 'I' for Inactive)
REMARK       I    between atoms: N_1  and  C_2 
REMARK    1  A    between atoms: C_2  and  C_4 
REMARK    2  A    between atoms: C_8  and  N_9 
REMARK    3  A    between atoms: N_9  and  C_10 
REMARK    4  A    between atoms: C_10  and  N_12 
REMARK    5  A    between atoms: N_12  and  C_13 
ROOT
ATOM      1  N   UNL d   1      28.097 -15.983   0.734  0.00  0.00    -0.333 N 
ATOM      2  H   UNL d   1      28.934 -16.502   0.982  0.00  0.00     0.168 HD
ENDROOT
BRANCH   1   3
ATOM      3  C   UNL d   1      27.852 -14.806   1.535  0.00  0.00     0.035 A 
ATOM      4  C   UNL d   1      27.351 -13.602   1.028  0.00  0.00     0.029 A 
ATOM      5  C   UNL d   1      27.100 -12.512   1.909  0.00  0.00     0.003 A 
ATOM      6  C   UNL d   1      27.404 -12.581   3.283  0.00  0.00     0.017 A 
ATOM      7  C   UNL d   1      27.911 -13.762   3.777  0.00  0.00     0.034 A 
ATOM      8  C   UNL d   1      28.065 -14.825   2.906  0.00  0.00     0.046 A 
BRANCH   7   9
ATOM      9  C   UNL d   1      28.173 -14.062   5.220  0.00  0.00     0.249 C 
ATOM     10  N   UNL d   1      28.797 -15.275   5.477  0.00  0.00    -0.366 N 
ATOM     11  H   UNL d   1      28.893 -15.562   6.443  0.00  0.00     0.159 HD
ATOM     12  H   UNL d   1      29.057 -15.950   4.769  0.00  0.00     0.159 HD
ATOM     13  O   UNL d   1      27.800 -13.337   6.097  0.00  0.00    -0.268 OA
ENDBRANCH   7   9
ENDBRANCH   1   3
BRANCH   1  14
ATOM     14  C   UNL d   1      27.289 -16.495  -0.321  0.00  0.00     0.176 C 
ATOM     15  S   UNL d   1      25.867 -17.433  -0.209  0.00  0.00    -0.041 SA
BRANCH  14  16
ATOM     16  N   UNL d   1      27.789 -16.213  -1.604  0.00  0.00    -0.333 N 
ATOM     17  H   UNL d   1      28.727 -16.461  -1.883  0.00  0.00     0.168 HD
BRANCH  16  18
ATOM     18  C   UNL d   1      26.962 -15.625  -2.600  0.00  0.00     0.037 C 
ATOM     19  C   UNL d   1      25.699 -15.091  -2.383  0.00  0.00     0.032 C 
ATOM     20  C   UNL d   1      25.166 -14.248  -3.397  0.00  0.00     0.042 C 
ATOM     21  C   UNL d   1      25.853 -14.126  -4.627  0.00  0.00     0.105 C 
ATOM     22  C   UNL d   1      26.740 -15.106  -4.948  0.00  0.00     0.107 C 
ATOM     23  O   UNL d   1      26.546 -12.943  -5.096  0.00  0.00    -0.323 OA
ATOM     24  C   UNL d   1      27.483 -15.575  -3.888  0.00  0.00     0.069 C 
ATOM     25  O   UNL d   1      27.372 -14.880  -6.145  0.00  0.00    -0.323 OA
ATOM     26  C   UNL d   1      27.683 -13.526  -5.851  0.00  0.00     0.352 C 
ENDBRANCH  16  18
ENDBRANCH  14  16
ENDBRANCH   1  14
TORSDOF 5
ENDMDL
MODEL 7
REMARK VINA RESULT:    -7.068      3.293      4.616
REMARK INTER + INTRA:          -9.447
REMARK INTER:                  -8.559
REMARK INTRA:                  -0.888
REMARK CONF_INDEPENDENT:        1.492
REMARK UNBOUND:                -0.888
REMARK  5 active torsions:
REMARK  status: ('A' for Active; 'I' for Inactive)
REMARK       I    between atoms: N_1  and  C_2 
REMARK    1  A    between atoms: C_2  and  C_4 
REMARK    2  A    between atoms: C_8  and  N_9 
REMARK    3  A    between atoms: N_9  and  C_10 
REMARK    4  A    between atoms: C_10  and  N_12 
REMARK    5  A    between atoms: N_12  and  C_13 
ROOT
ATOM      1  N   UNL d   1      29.187 -16.339  -2.034  0.00  0.00    -0.333 N 
ATOM      2  H   UNL d   1      30.097 -16.791  -2.019  0.00  0.00     0.168 HD
ENDROOT
BRANCH   1   3
ATOM      3  C   UNL d   1      28.773 -15.853  -3.329  0.00  0.00     0.035 A 
ATOM      4  C   UNL d   1      29.501 -16.041  -4.509  0.00  0.00     0.029 A 
ATOM      5  C   UNL d   1      28.984 -15.563  -5.746  0.00  0.00     0.003 A 
ATOM      6  C   UNL d   1      27.778 -14.839  -5.818  0.00  0.00     0.017 A 
ATOM      7  C   UNL d   1      27.069 -14.642  -4.654  0.00  0.00     0.034 A 
ATOM      8  C   UNL d   1      27.562 -15.191  -3.484  0.00  0.00     0.046 A 
BRANCH   7   9
ATOM      9  C   UNL d   1      25.715 -14.012  -4.553  0.00  0.00     0.249 C 
ATOM     10  N   UNL d   1      25.630 -12.699  -4.996  0.00  0.00    -0.366 N 
ATOM     11  H   UNL d   1      24.759 -12.205  -4.844  0.00  0.00     0.159 HD
ATOM     12  H   UNL d   1      26.408 -12.160  -5.353  0.00  0.00     0.159 HD
ATOM     13  O   UNL d   1      24.787 -14.579  -4.052  0.00  0.00    -0.268 OA
ENDBRANCH   7   9
ENDBRANCH   1   3
BRANCH   1  14
ATOM     14  C   UNL d   1      28.484 -16.225  -0.802  0.00  0.00     0.176 C 
ATOM     15  S   UNL d   1      28.673 -15.050   0.423  0.00  0.00    -0.041 SA
BRANCH  14  16
ATOM     16  N   UNL d   1      27.561 -17.261  -0.579  0.00  0.00    -0.333 N 
ATOM     17  H   UNL d   1      27.851 -18.201  -0.351  0.00  0.00     0.168 HD
BRANCH  16  18
ATOM     18  C   UNL d   1      26.162 -17.011  -0.593  0.00  0.00     0.037 C 
ATOM     19  C   UNL d   1      25.545 -15.923  -1.197  0.00  0.00     0.032 C 
ATOM     20  C   UNL d   1      24.142 -16.007  -1.413  0.00  0.00     0.042 C 
ATOM     21  C   UNL d   1      23.422 -17.094  -0.866  0.00  0.00     0.105 C 
ATOM     22  C   UNL d   1      23.997 -17.771   0.164  0.00  0.00     0.107 C 
ATOM     23  O   UNL d   1      22.815 -18.173  -1.619  0.00  0.00    -0.323 OA
ATOM     24  C   UNL d   1      25.357 -17.951   0.042  0.00  0.00     0.069 C 
ATOM     25  O   UNL d   1      23.232 -18.821   0.604  0.00  0.00    -0.323 OA
ATOM     26  C   UNL d   1      22.980 -19.326  -0.699  0.00  0.00     0.352 C 
ENDBRANCH  16  18
ENDBRANCH  14  16
ENDBRANCH   1  14
TORSDOF 5
ENDMDL
MODEL 8
REMARK VINA RESULT:    -6.843      4.106      5.244
REMARK INTER + INTRA:          -9.541
REMARK INTER:                  -8.334
REMARK INTRA:                  -1.206
REMARK CONF_INDEPENDENT:        1.492
REMARK UNBOUND:                -1.206
REMARK  5 active torsions:
REMARK  status: ('A' for Active; 'I' for Inactive)
REMARK       I    between atoms: N_1  and  C_2 
REMARK    1  A    between atoms: C_2  and  C_4 
REMARK    2  A    between atoms: C_8  and  N_9 
REMARK    3  A    between atoms: N_9  and  C_10 
REMARK    4  A    between atoms: C_10  and  N_12 
REMARK    5  A    between atoms: N_12  and  C_13 
ROOT
ATOM      1  N   UNL d   1      28.620 -13.944  -0.719  0.00  0.00    -0.333 N 
ATOM      2  H   UNL d   1      29.457 -13.373  -0.644  0.00  0.00     0.168 HD
ENDROOT
BRANCH   1   3
ATOM      3  C   UNL d   1      28.306 -14.388  -2.057  0.00  0.00     0.035 A 
ATOM      4  C   UNL d   1      29.044 -15.346  -2.760  0.00  0.00     0.029 A 
ATOM      5  C   UNL d   1      28.626 -15.752  -4.059  0.00  0.00     0.003 A 
ATOM      6  C   UNL d   1      27.515 -15.166  -4.698  0.00  0.00     0.017 A 
ATOM      7  C   UNL d   1      26.798 -14.213  -4.010  0.00  0.00     0.034 A 
ATOM      8  C   UNL d   1      27.187 -13.904  -2.720  0.00  0.00     0.046 A 
BRANCH   7   9
ATOM      9  C   UNL d   1      25.525 -13.576  -4.474  0.00  0.00     0.249 C 
ATOM     10  N   UNL d   1      25.640 -12.275  -4.941  0.00  0.00    -0.366 N 
ATOM     11  H   UNL d   1      24.788 -11.775  -5.161  0.00  0.00     0.159 HD
ATOM     12  H   UNL d   1      26.502 -11.747  -4.967  0.00  0.00     0.159 HD
ATOM     13  O   UNL d   1      24.467 -14.129  -4.375  0.00  0.00    -0.268 OA
ENDBRANCH   7   9
ENDBRANCH   1   3
BRANCH   1  14
ATOM     14  C   UNL d   1      27.880 -14.193   0.471  0.00  0.00     0.176 C 
ATOM     15  S   UNL d   1      27.052 -13.073   1.459  0.00  0.00    -0.041 SA
BRANCH  14  16
ATOM     16  N   UNL d   1      27.900 -15.537   0.880  0.00  0.00    -0.333 N 
ATOM     17  H   UNL d   1      28.513 -15.869   1.611  0.00  0.00     0.168 HD
BRANCH  16  18
ATOM     18  C   UNL d   1      26.997 -16.486   0.326  0.00  0.00     0.037 C 
ATOM     19  C   UNL d   1      26.989 -17.846   0.606  0.00  0.00     0.032 C 
ATOM     20  C   UNL d   1      25.824 -18.577   0.242  0.00  0.00     0.042 C 
ATOM     21  C   UNL d   1      24.819 -17.942  -0.523  0.00  0.00     0.105 C 
ATOM     22  C   UNL d   1      25.172 -16.828  -1.218  0.00  0.00     0.107 C 
ATOM     23  O   UNL d   1      23.497 -17.582  -0.051  0.00  0.00    -0.323 OA
ATOM     24  C   UNL d   1      26.042 -15.991  -0.556  0.00  0.00     0.069 C 
ATOM     25  O   UNL d   1      24.121 -16.273  -1.904  0.00  0.00    -0.323 OA
ATOM     26  C   UNL d   1      23.229 -16.329  -0.800  0.00  0.00     0.352 C 
ENDBRANCH  16  18
ENDBRANCH  14  16
ENDBRANCH   1  14
TORSDOF 5
ENDMDL
