MODEL 1
REMARK VINA RESULT:   -10.422      0.000      0.000
REMARK INTER + INTRA:         -14.247
REMARK INTER:                 -12.211
REMARK INTRA:                  -2.036
REMARK CONF_INDEPENDENT:        1.790
REMARK UNBOUND:                -2.036
REMARK  6 active torsions:
REMARK  status: ('A' for Active; 'I' for Inactive)
REMARK    1  A    between atoms: C_2  and  N_5 
REMARK    2  A    between atoms: C_10  and  C_9 
REMARK    3  A    between atoms: C_10  and  N_25 
REMARK    4  A    between atoms: C_10  and  C_11 
REMARK    5  A    between atoms: N_28  and  C_29 
REMARK    6  A    between atoms: C_32  and  O_33 
ROOT
ATOM      1  C   UNL d   1      28.012 -14.490  -3.197  0.00  0.00     0.299 C 
ENDROOT
BRANCH   1   2
ATOM      2  N   UNL d   1      27.834 -15.175  -1.781  0.00  0.00    -0.052 N 
ATOM      3  C   UNL d   1      26.782 -14.483  -0.862  0.00  0.00     0.256 C 
ATOM      4  C   UNL d   1      26.181 -15.345   0.234  0.00  0.00     0.150 C 
ATOM      5  N   UNL d   1      25.803 -16.627  -0.376  0.00  0.00    -0.378 N 
ATOM      6  C   UNL d   1      26.964 -17.405  -0.825  0.00  0.00     0.150 C 
ATOM      7  C   UNL d   1      27.565 -16.708  -2.042  0.00  0.00     0.256 C 
ATOM      8  H   UNL d   1      28.743 -15.075  -1.308  0.00  0.00     0.281 HD
BRANCH   5   9
ATOM      9  C   UNL d   1      24.512 -17.119  -0.472  0.00  0.00     0.030 A 
ATOM     10  C   UNL d   1      24.129 -18.467  -0.309  0.00  0.00     0.032 A 
ATOM     11  C   UNL d   1      22.798 -18.908  -0.528  0.00  0.00     0.039 A 
ATOM     12  C   UNL d   1      21.815 -17.983  -0.841  0.00  0.00     0.065 A 
ATOM     13  C   UNL d   1      22.140 -16.639  -0.895  0.00  0.00     0.039 A 
ATOM     14  C   UNL d   1      23.472 -16.227  -0.752  0.00  0.00     0.032 A 
BRANCH  12  15
ATOM     15  O   UNL d   1      20.524 -18.328  -1.105  0.00  0.00    -0.361 OA
ATOM     16  H   UNL d   1      20.117 -17.689  -1.714  0.00  0.00     0.217 HD
ENDBRANCH  12  15
ENDBRANCH   5   9
ENDBRANCH   1   2
BRANCH   1  17
ATOM     17  C   UNL d   1      29.079 -15.339  -3.890  0.00  0.00     0.049 C 
ATOM     18  C   UNL d   1      30.091 -15.933  -3.209  0.00  0.00     0.028 C 
ATOM     19  C   UNL d   1      30.891 -17.058  -3.664  0.00  0.00    -0.009 C 
ATOM     20  C   UNL d   1      31.611 -17.907  -2.773  0.00  0.00     0.035 C 
ATOM     21  C   UNL d   1      30.476 -17.537  -4.897  0.00  0.00     0.047 C 
ATOM     22  C   UNL d   1      31.980 -19.168  -3.250  0.00  0.00     0.171 C 
ATOM     23  C   UNL d   1      31.196 -19.725  -4.227  0.00  0.00     0.093 C 
ATOM     24  O   UNL d   1      33.312 -19.450  -3.734  0.00  0.00    -0.341 OA
ATOM     25  C   UNL d   1      30.611 -18.881  -5.158  0.00  0.00     0.066 C 
ATOM     26  O   UNL d   1      31.739 -20.873  -4.744  0.00  0.00    -0.327 OA
ATOM     27  C   UNL d   1      33.025 -20.282  -4.914  0.00  0.00     0.346 C 
ATOM     28  N   UNL d   1      29.629 -16.794  -5.739  0.00  0.00    -0.322 N 
ATOM     29  C   UNL d   1      28.914 -15.712  -5.316  0.00  0.00     0.254 C 
ATOM     30  H   UNL d   1      29.313 -17.241  -6.591  0.00  0.00     0.169 HD
ATOM     31  O   UNL d   1      28.008 -15.187  -6.001  0.00  0.00    -0.268 OA
ENDBRANCH   1  17
BRANCH   1  32
ATOM     32  C   UNL d   1      26.626 -14.116  -3.841  0.00  0.00     0.184 A 
ATOM     33  N   UNL d   1      25.652 -15.021  -3.898  0.00  0.00    -0.111 NA
ATOM     34  N   UNL d   1      24.588 -14.450  -4.539  0.00  0.00    -0.023 NA
ATOM     35  N   UNL d   1      24.867 -13.213  -4.898  0.00  0.00    -0.043 NA
ATOM     36  N   UNL d   1      26.093 -12.936  -4.409  0.00  0.00    -0.223 N 
BRANCH  36  37
ATOM     37  C   UNL d   1      26.558 -11.551  -4.587  0.00  0.00     0.048 C 
ATOM     38  C   UNL d   1      27.985 -11.401  -5.109  0.00  0.00     0.040 C 
ATOM     39  C   UNL d   1      26.048 -10.550  -3.519  0.00  0.00     0.040 C 
ATOM     40  C   UNL d   1      25.913 -10.978  -5.759  0.00  0.00     0.040 C 
ENDBRANCH  36  37
ENDBRANCH   1  32
TORSDOF 6
ENDMDL
MODEL 2
REMARK VINA RESULT:   -10.334      3.376      6.708
REMARK INTER + INTRA:         -14.381
REMARK INTER:                 -12.124
REMARK INTRA:                  -2.258
REMARK CONF_INDEPENDENT:        1.790
REMARK UNBOUND:                -2.258
REMARK  6 active torsions:
REMARK  status: ('A' for Active; 'I' for Inactive)
REMARK    1  A    between atoms: C_2  and  N_5 
REMARK    2  A    between atoms: C_10  and  C_9 
REMARK    3  A    between atoms: C_10  and  N_25 
REMARK    4  A    between atoms: C_10  and  C_11 
REMARK    5  A    between atoms: N_28  and  C_29 
REMARK    6  A    between atoms: C_32  and  O_33 
ROOT
ATOM      1  C   UNL d   1      28.485 -15.701  -2.205  0.00  0.00     0.299 C 
ENDROOT
BRANCH   1   2
ATOM      2  N   UNL d   1      29.058 -14.451  -1.421  0.00  0.00    -0.052 N 
ATOM      3  C   UNL d   1      27.974 -13.599  -0.692  0.00  0.00     0.256 C 
ATOM      4  C   UNL d   1      28.460 -12.751   0.470  0.00  0.00     0.150 C 
ATOM      5  N   UNL d   1      29.319 -13.602   1.303  0.00  0.00    -0.378 N 
ATOM      6  C   UNL d   1      30.561 -13.993   0.622  0.00  0.00     0.150 C 
ATOM      7  C   UNL d   1      30.209 -14.984  -0.483  0.00  0.00     0.256 C 
ATOM      8  H   UNL d   1      29.473 -13.841  -2.139  0.00  0.00     0.281 HD
BRANCH   5   9
ATOM      9  C   UNL d   1      29.061 -13.962   2.615  0.00  0.00     0.030 A 
ATOM     10  C   UNL d   1      27.784 -14.040   3.212  0.00  0.00     0.032 A 
ATOM     11  C   UNL d   1      27.611 -14.314   4.594  0.00  0.00     0.039 A 
ATOM     12  C   UNL d   1      28.718 -14.591   5.380  0.00  0.00     0.065 A 
ATOM     13  C   UNL d   1      29.972 -14.634   4.795  0.00  0.00     0.039 A 
ATOM     14  C   UNL d   1      30.136 -14.286   3.448  0.00  0.00     0.032 A 
BRANCH  12  15
ATOM     15  O   UNL d   1      28.641 -14.824   6.719  0.00  0.00    -0.361 OA
ATOM     16  H   UNL d   1      28.530 -15.774   6.895  0.00  0.00     0.217 HD
ENDBRANCH  12  15
ENDBRANCH   5   9
ENDBRANCH   1   2
BRANCH   1  17
ATOM     17  C   UNL d   1      27.392 -16.249  -1.285  0.00  0.00     0.049 C 
ATOM     18  C   UNL d   1      26.086 -15.914  -1.428  0.00  0.00     0.028 C 
ATOM     19  C   UNL d   1      24.945 -16.653  -0.914  0.00  0.00    -0.009 C 
ATOM     20  C   UNL d   1      23.630 -16.519  -1.448  0.00  0.00     0.035 C 
ATOM     21  C   UNL d   1      25.320 -17.826  -0.277  0.00  0.00     0.047 C 
ATOM     22  C   UNL d   1      22.725 -17.552  -1.186  0.00  0.00     0.171 C 
ATOM     23  C   UNL d   1      23.244 -18.803  -0.976  0.00  0.00     0.093 C 
ATOM     24  O   UNL d   1      21.728 -17.458  -0.145  0.00  0.00    -0.341 OA
ATOM     25  C   UNL d   1      24.469 -18.906  -0.337  0.00  0.00     0.066 C 
ATOM     26  O   UNL d   1      22.294 -19.700  -0.558  0.00  0.00    -0.327 OA
ATOM     27  C   UNL d   1      21.775 -18.812   0.429  0.00  0.00     0.346 C 
ATOM     28  N   UNL d   1      26.647 -18.067   0.122  0.00  0.00    -0.322 N 
ATOM     29  C   UNL d   1      27.709 -17.340  -0.331  0.00  0.00     0.254 C 
ATOM     30  H   UNL d   1      26.856 -18.976   0.516  0.00  0.00     0.169 HD
ATOM     31  O   UNL d   1      28.897 -17.685  -0.145  0.00  0.00    -0.268 OA
ENDBRANCH   1  17
BRANCH   1  32
ATOM     32  C   UNL d   1      28.275 -15.384  -3.732  0.00  0.00     0.184 A 
ATOM     33  N   UNL d   1      28.936 -16.081  -4.654  0.00  0.00    -0.111 NA
ATOM     34  N   UNL d   1      28.604 -15.572  -5.879  0.00  0.00    -0.023 NA
ATOM     35  N   UNL d   1      27.759 -14.568  -5.756  0.00  0.00    -0.043 NA
ATOM     36  N   UNL d   1      27.463 -14.472  -4.443  0.00  0.00    -0.223 N 
BRANCH  36  37
ATOM     37  C   UNL d   1      26.430 -13.486  -4.089  0.00  0.00     0.048 C 
ATOM     38  C   UNL d   1      26.894 -12.347  -3.185  0.00  0.00     0.040 C 
ATOM     39  C   UNL d   1      25.012 -14.075  -3.874  0.00  0.00     0.040 C 
ATOM     40  C   UNL d   1      26.152 -12.648  -5.247  0.00  0.00     0.040 C 
ENDBRANCH  36  37
ENDBRANCH   1  32
TORSDOF 6
ENDMDL
MODEL 3
REMARK VINA RESULT:   -10.245      3.251      6.996
REMARK INTER + INTRA:         -14.176
REMARK INTER:                 -12.035
REMARK INTRA:                  -2.140
REMARK CONF_INDEPENDENT:        1.790
REMARK UNBOUND:                -2.140
REMARK  6 active torsions:
REMARK  status: ('A' for Active; 'I' for Inactive)
REMARK    1  A    between atoms: C_2  and  N_5 
REMARK    2  A    between atoms: C_10  and  C_9 
REMARK    3  A    between atoms: C_10  and  N_25 
REMARK    4  A    between atoms: C_10  and  C_11 
REMARK    5  A    between atoms: N_28  and  C_29 
REMARK    6  A    between atoms: C_32  and  O_33 
ROOT
ATOM      1  C   UNL d   1      28.509 -15.905  -2.428  0.00  0.00     0.299 C 
ENDROOT
BRANCH   1   2
ATOM      2  N   UNL d   1      29.171 -14.644  -1.736  0.00  0.00    -0.052 N 
ATOM      3  C   UNL d   1      28.157 -13.698  -1.024  0.00  0.00     0.256 C 
ATOM      4  C   UNL d   1      28.725 -12.812   0.071  0.00  0.00     0.150 C 
ATOM      5  N   UNL d   1      29.570 -13.659   0.924  0.00  0.00    -0.378 N 
ATOM      6  C   UNL d   1      30.765 -14.150   0.228  0.00  0.00     0.150 C 
ATOM      7  C   UNL d   1      30.326 -15.182  -0.806  0.00  0.00     0.256 C 
ATOM      8  H   UNL d   1      29.591 -14.097  -2.501  0.00  0.00     0.281 HD
BRANCH   5   9
ATOM      9  C   UNL d   1      29.340 -13.931   2.263  0.00  0.00     0.030 A 
ATOM     10  C   UNL d   1      30.332 -14.088   3.254  0.00  0.00     0.032 A 
ATOM     11  C   UNL d   1      30.018 -14.471   4.584  0.00  0.00     0.039 A 
ATOM     12  C   UNL d   1      28.692 -14.626   4.956  0.00  0.00     0.065 A 
ATOM     13  C   UNL d   1      27.694 -14.366   4.033  0.00  0.00     0.039 A 
ATOM     14  C   UNL d   1      28.020 -14.065   2.705  0.00  0.00     0.032 A 
BRANCH  12  15
ATOM     15  O   UNL d   1      28.309 -15.029   6.200  0.00  0.00    -0.361 OA
ATOM     16  H   UNL d   1      28.554 -15.958   6.348  0.00  0.00     0.217 HD
ENDBRANCH  12  15
ENDBRANCH   5   9
ENDBRANCH   1   2
BRANCH   1  17
ATOM     17  C   UNL d   1      27.423 -16.342  -1.444  0.00  0.00     0.049 C 
ATOM     18  C   UNL d   1      26.114 -16.031  -1.622  0.00  0.00     0.028 C 
ATOM     19  C   UNL d   1      24.978 -16.708  -1.018  0.00  0.00    -0.009 C 
ATOM     20  C   UNL d   1      23.661 -16.645  -1.560  0.00  0.00     0.035 C 
ATOM     21  C   UNL d   1      25.360 -17.794  -0.245  0.00  0.00     0.047 C 
ATOM     22  C   UNL d   1      22.762 -17.641  -1.171  0.00  0.00     0.171 C 
ATOM     23  C   UNL d   1      23.286 -18.856  -0.813  0.00  0.00     0.093 C 
ATOM     24  O   UNL d   1      21.768 -17.426  -0.145  0.00  0.00    -0.341 OA
ATOM     25  C   UNL d   1      24.514 -18.877  -0.171  0.00  0.00     0.066 C 
ATOM     26  O   UNL d   1      22.341 -19.700  -0.287  0.00  0.00    -0.327 OA
ATOM     27  C   UNL d   1      21.822 -18.701   0.588  0.00  0.00     0.346 C 
ATOM     28  N   UNL d   1      26.690 -17.979   0.174  0.00  0.00    -0.322 N 
ATOM     29  C   UNL d   1      27.748 -17.308  -0.367  0.00  0.00     0.254 C 
ATOM     30  H   UNL d   1      26.904 -18.834   0.675  0.00  0.00     0.169 HD
ATOM     31  O   UNL d   1      28.937 -17.624  -0.145  0.00  0.00    -0.268 OA
ENDBRANCH   1  17
BRANCH   1  32
ATOM     32  C   UNL d   1      28.265 -15.665  -3.963  0.00  0.00     0.184 A 
ATOM     33  N   UNL d   1      27.123 -15.121  -4.379  0.00  0.00    -0.111 NA
ATOM     34  N   UNL d   1      27.159 -15.069  -5.745  0.00  0.00    -0.023 NA
ATOM     35  N   UNL d   1      28.286 -15.575  -6.204  0.00  0.00    -0.043 NA
ATOM     36  N   UNL d   1      29.039 -15.880  -5.127  0.00  0.00    -0.223 N 
BRANCH  36  37
ATOM     37  C   UNL d   1      30.405 -16.348  -5.410  0.00  0.00     0.048 C 
ATOM     38  C   UNL d   1      31.389 -16.237  -4.248  0.00  0.00     0.040 C 
ATOM     39  C   UNL d   1      30.912 -16.052  -6.845  0.00  0.00     0.040 C 
ATOM     40  C   UNL d   1      30.409 -17.803  -5.465  0.00  0.00     0.040 C 
ENDBRANCH  36  37
ENDBRANCH   1  32
TORSDOF 6
ENDMDL
MODEL 4
REMARK VINA RESULT:    -9.566      4.623      6.796
REMARK INTER + INTRA:         -14.014
REMARK INTER:                 -11.356
REMARK INTRA:                  -2.658
REMARK CONF_INDEPENDENT:        1.790
REMARK UNBOUND:                -2.658
REMARK  6 active torsions:
REMARK  status: ('A' for Active; 'I' for Inactive)
REMARK    1  A    between atoms: C_2  and  N_5 
REMARK    2  A    between atoms: C_10  and  C_9 
REMARK    3  A    between atoms: C_10  and  N_25 
REMARK    4  A    between atoms: C_10  and  C_11 
REMARK    5  A    between atoms: N_28  and  C_29 
REMARK    6  A    between atoms: C_32  and  O_33 
ROOT
ATOM      1  C   UNL d   1      28.188 -13.786  -0.066  0.00  0.00     0.299 C 
ENDROOT
BRANCH   1   2
ATOM      2  N   UNL d   1      28.100 -15.359  -0.224  0.00  0.00    -0.052 N 
ATOM      3  C   UNL d   1      27.471 -16.091   1.001  0.00  0.00     0.256 C 
ATOM      4  C   UNL d   1      26.876 -17.461   0.727  0.00  0.00     0.150 C 
ATOM      5  N   UNL d   1      26.054 -17.347  -0.486  0.00  0.00    -0.378 N 
ATOM      6  C   UNL d   1      26.852 -17.074  -1.688  0.00  0.00     0.150 C 
ATOM      7  C   UNL d   1      27.380 -15.645  -1.597  0.00  0.00     0.256 C 
ATOM      8  H   UNL d   1      29.075 -15.685  -0.287  0.00  0.00     0.281 HD
BRANCH   5   9
ATOM      9  C   UNL d   1      24.684 -17.539  -0.546  0.00  0.00     0.030 A 
ATOM     10  C   UNL d   1      24.016 -18.770  -0.378  0.00  0.00     0.032 A 
ATOM     11  C   UNL d   1      22.614 -18.902  -0.560  0.00  0.00     0.039 A 
ATOM     12  C   UNL d   1      21.853 -17.778  -0.838  0.00  0.00     0.065 A 
ATOM     13  C   UNL d   1      22.467 -16.539  -0.895  0.00  0.00     0.039 A 
ATOM     14  C   UNL d   1      23.860 -16.435  -0.790  0.00  0.00     0.032 A 
BRANCH  12  15
ATOM     15  O   UNL d   1      20.511 -17.825  -1.065  0.00  0.00    -0.361 OA
ATOM     16  H   UNL d   1      20.237 -17.096  -1.647  0.00  0.00     0.217 HD
ENDBRANCH  12  15
ENDBRANCH   5   9
ENDBRANCH   1   2
BRANCH   1  17
ATOM     17  C   UNL d   1      28.873 -13.584   1.286  0.00  0.00     0.049 C 
ATOM     18  C   UNL d   1      28.329 -12.827   2.271  0.00  0.00     0.028 C 
ATOM     19  C   UNL d   1      28.655 -12.891   3.686  0.00  0.00    -0.009 C 
ATOM     20  C   UNL d   1      27.777 -12.418   4.706  0.00  0.00     0.035 C 
ATOM     21  C   UNL d   1      29.579 -13.884   3.971  0.00  0.00     0.047 C 
ATOM     22  C   UNL d   1      27.983 -12.902   6.000  0.00  0.00     0.171 C 
ATOM     23  C   UNL d   1      28.556 -14.140   6.125  0.00  0.00     0.093 C 
ATOM     24  O   UNL d   1      28.686 -12.139   7.006  0.00  0.00    -0.341 OA
ATOM     25  C   UNL d   1      29.504 -14.521   5.188  0.00  0.00     0.066 C 
ATOM     26  O   UNL d   1      28.871 -14.443   7.426  0.00  0.00    -0.327 OA
ATOM     27  C   UNL d   1      29.499 -13.183   7.650  0.00  0.00     0.346 C 
ATOM     28  N   UNL d   1      30.353 -14.493   2.966  0.00  0.00    -0.322 N 
ATOM     29  C   UNL d   1      30.067 -14.393   1.636  0.00  0.00     0.254 C 
ATOM     30  H   UNL d   1      30.954 -15.260   3.244  0.00  0.00     0.169 HD
ATOM     31  O   UNL d   1      30.622 -15.101   0.767  0.00  0.00    -0.268 OA
ENDBRANCH   1  17
BRANCH   1  32
ATOM     32  C   UNL d   1      28.649 -13.092  -1.401  0.00  0.00     0.184 A 
ATOM     33  N   UNL d   1      29.946 -12.976  -1.679  0.00  0.00    -0.111 NA
ATOM     34  N   UNL d   1      30.060 -12.302  -2.863  0.00  0.00    -0.023 NA
ATOM     35  N   UNL d   1      28.873 -11.982  -3.337  0.00  0.00    -0.043 NA
ATOM     36  N   UNL d   1      27.964 -12.527  -2.502  0.00  0.00    -0.223 N 
BRANCH  36  37
ATOM     37  C   UNL d   1      26.557 -12.399  -2.912  0.00  0.00     0.048 C 
ATOM     38  C   UNL d   1      26.095 -10.979  -3.232  0.00  0.00     0.040 C 
ATOM     39  C   UNL d   1      25.576 -13.354  -2.185  0.00  0.00     0.040 C 
ATOM     40  C   UNL d   1      26.406 -12.909  -4.267  0.00  0.00     0.040 C 
ENDBRANCH  36  37
ENDBRANCH   1  32
TORSDOF 6
ENDMDL
MODEL 5
REMARK VINA RESULT:    -9.538      5.675      8.323
REMARK INTER + INTRA:         -13.758
REMARK INTER:                 -11.328
REMARK INTRA:                  -2.430
REMARK CONF_INDEPENDENT:        1.790
REMARK UNBOUND:                -2.430
REMARK  6 active torsions:
REMARK  status: ('A' for Active; 'I' for Inactive)
REMARK    1  A    between atoms: C_2  and  N_5 
REMARK    2  A    between atoms: C_10  and  C_9 
REMARK    3  A    between atoms: C_10  and  N_25 
REMARK    4  A    between atoms: C_10  and  C_11 
REMARK    5  A    between atoms: N_28  and  C_29 
REMARK    6  A    between atoms: C_32  and  O_33 
ROOT
ATOM      1  C   UNL d   1      28.221 -13.701   1.104  0.00  0.00     0.299 C 
ENDROOT
BRANCH   1   2
ATOM      2  N   UNL d   1      28.631 -14.624   2.323  0.00  0.00    -0.052 N 
ATOM      3  C   UNL d   1      30.087 -14.402   2.834  0.00  0.00     0.256 C 
ATOM      4  C   UNL d   1      30.365 -14.825   4.266  0.00  0.00     0.150 C 
ATOM      5  N   UNL d   1      29.272 -14.301   5.096  0.00  0.00    -0.378 N 
ATOM      6  C   UNL d   1      27.981 -14.933   4.798  0.00  0.00     0.150 C 
ATOM      7  C   UNL d   1      27.518 -14.450   3.427  0.00  0.00     0.256 C 
ATOM      8  H   UNL d   1      28.593 -15.589   1.965  0.00  0.00     0.281 HD
BRANCH   5   9
ATOM      9  C   UNL d   1      29.412 -13.367   6.110  0.00  0.00     0.030 A 
ATOM     10  C   UNL d   1      30.433 -13.355   7.084  0.00  0.00     0.032 A 
ATOM     11  C   UNL d   1      30.446 -12.423   8.155  0.00  0.00     0.039 A 
ATOM     12  C   UNL d   1      29.471 -11.440   8.216  0.00  0.00     0.065 A 
ATOM     13  C   UNL d   1      28.524 -11.358   7.210  0.00  0.00     0.039 A 
ATOM     14  C   UNL d   1      28.478 -12.331   6.203  0.00  0.00     0.032 A 
BRANCH  12  15
ATOM     15  O   UNL d   1      29.390 -10.534   9.230  0.00  0.00    -0.361 OA
ATOM     16  H   UNL d   1      28.472 -10.445   9.536  0.00  0.00     0.217 HD
ENDBRANCH  12  15
ENDBRANCH   5   9
ENDBRANCH   1   2
BRANCH   1  17
ATOM     17  C   UNL d   1      27.423 -14.629   0.186  0.00  0.00     0.049 C 
ATOM     18  C   UNL d   1      27.101 -15.899   0.538  0.00  0.00     0.028 C 
ATOM     19  C   UNL d   1      26.037 -16.708  -0.033  0.00  0.00    -0.009 C 
ATOM     20  C   UNL d   1      25.462 -17.823   0.645  0.00  0.00     0.035 C 
ATOM     21  C   UNL d   1      25.301 -16.018  -0.983  0.00  0.00     0.047 C 
ATOM     22  C   UNL d   1      24.203 -18.250   0.217  0.00  0.00     0.171 C 
ATOM     23  C   UNL d   1      23.383 -17.314  -0.357  0.00  0.00     0.093 C 
ATOM     24  O   UNL d   1      24.030 -19.384  -0.662  0.00  0.00    -0.341 OA
ATOM     25  C   UNL d   1      23.964 -16.312  -1.119  0.00  0.00     0.066 C 
ATOM     26  O   UNL d   1      22.250 -17.869  -0.895  0.00  0.00    -0.327 OA
ATOM     27  C   UNL d   1      22.976 -18.896  -1.566  0.00  0.00     0.346 C 
ATOM     28  N   UNL d   1      25.763 -14.820  -1.559  0.00  0.00    -0.322 N 
ATOM     29  C   UNL d   1      26.792 -14.088  -1.042  0.00  0.00     0.254 C 
ATOM     30  H   UNL d   1      25.137 -14.337  -2.192  0.00  0.00     0.169 HD
ATOM     31  O   UNL d   1      27.059 -12.928  -1.426  0.00  0.00    -0.268 OA
ENDBRANCH   1  17
BRANCH   1  32
ATOM     32  C   UNL d   1      27.719 -12.290   1.585  0.00  0.00     0.184 A 
ATOM     33  N   UNL d   1      26.414 -12.040   1.668  0.00  0.00    -0.111 NA
ATOM     34  N   UNL d   1      26.263 -10.740   2.064  0.00  0.00    -0.023 NA
ATOM     35  N   UNL d   1      27.436 -10.159   2.223  0.00  0.00    -0.043 NA
ATOM     36  N   UNL d   1      28.369 -11.111   2.018  0.00  0.00    -0.223 N 
BRANCH  36  37
ATOM     37  C   UNL d   1      29.762 -10.710   2.269  0.00  0.00     0.048 C 
ATOM     38  C   UNL d   1      30.737 -10.977   1.126  0.00  0.00     0.040 C 
ATOM     39  C   UNL d   1      30.249 -10.920   3.726  0.00  0.00     0.040 C 
ATOM     40  C   UNL d   1      29.859  -9.258   2.207  0.00  0.00     0.040 C 
ENDBRANCH  36  37
ENDBRANCH   1  32
TORSDOF 6
ENDMDL
MODEL 6
REMARK VINA RESULT:    -9.248      6.032      8.296
REMARK INTER + INTRA:         -14.168
REMARK INTER:                 -11.037
REMARK INTRA:                  -3.131
REMARK CONF_INDEPENDENT:        1.790
REMARK UNBOUND:                -3.131
REMARK  6 active torsions:
REMARK  status: ('A' for Active; 'I' for Inactive)
REMARK    1  A    between atoms: C_2  and  N_5 
REMARK    2  A    between atoms: C_10  and  C_9 
REMARK    3  A    between atoms: C_10  and  N_25 
REMARK    4  A    between atoms: C_10  and  C_11 
REMARK    5  A    between atoms: N_28  and  C_29 
REMARK    6  A    between atoms: C_32  and  O_33 
ROOT
ATOM      1  C   UNL d   1      28.607 -13.454   1.525  0.00  0.00     0.299 C 
ENDROOT
BRANCH   1   2
ATOM      2  N   UNL d   1      28.898 -14.494   2.683  0.00  0.00    -0.052 N 
ATOM      3  C   UNL d   1      30.281 -14.307   3.379  0.00  0.00     0.256 C 
ATOM      4  C   UNL d   1      30.405 -14.874   4.783  0.00  0.00     0.150 C 
ATOM      5  N   UNL d   1      29.212 -14.455   5.530  0.00  0.00    -0.378 N 
ATOM      6  C   UNL d   1      27.979 -15.070   5.021  0.00  0.00     0.150 C 
ATOM      7  C   UNL d   1      27.663 -14.452   3.663  0.00  0.00     0.256 C 
ATOM      8  H   UNL d   1      28.926 -15.417   2.226  0.00  0.00     0.281 HD
BRANCH   5   9
ATOM      9  C   UNL d   1      29.212 -13.631   6.643  0.00  0.00     0.030 A 
ATOM     10  C   UNL d   1      28.210 -12.695   6.976  0.00  0.00     0.032 A 
ATOM     11  C   UNL d   1      28.336 -11.811   8.079  0.00  0.00     0.039 A 
ATOM     12  C   UNL d   1      29.440 -11.910   8.911  0.00  0.00     0.065 A 
ATOM     13  C   UNL d   1      30.382 -12.896   8.675  0.00  0.00     0.039 A 
ATOM     14  C   UNL d   1      30.284 -13.709   7.538  0.00  0.00     0.032 A 
BRANCH  12  15
ATOM     15  O   UNL d   1      29.654 -11.076   9.966  0.00  0.00    -0.361 OA
ATOM     16  H   UNL d   1      29.028 -10.332   9.947  0.00  0.00     0.217 HD
ENDBRANCH  12  15
ENDBRANCH   5   9
ENDBRANCH   1   2
BRANCH   1  17
ATOM     17  C   UNL d   1      28.011 -14.305   0.402  0.00  0.00     0.049 C 
ATOM     18  C   UNL d   1      26.981 -13.874  -0.368  0.00  0.00     0.028 C 
ATOM     19  C   UNL d   1      26.613 -14.382  -1.679  0.00  0.00    -0.009 C 
ATOM     20  C   UNL d   1      25.839 -13.632  -2.612  0.00  0.00     0.035 C 
ATOM     21  C   UNL d   1      27.485 -15.362  -2.128  0.00  0.00     0.047 C 
ATOM     22  C   UNL d   1      25.906 -14.017  -3.953  0.00  0.00     0.171 C 
ATOM     23  C   UNL d   1      27.055 -14.635  -4.373  0.00  0.00     0.093 C 
ATOM     24  O   UNL d   1      24.883 -14.825  -4.576  0.00  0.00    -0.341 OA
ATOM     25  C   UNL d   1      27.718 -15.463  -3.481  0.00  0.00     0.066 C 
ATOM     26  O   UNL d   1      26.950 -15.125  -5.650  0.00  0.00    -0.327 OA
ATOM     27  C   UNL d   1      25.691 -15.743  -5.395  0.00  0.00     0.346 C 
ATOM     28  N   UNL d   1      28.384 -16.014  -1.264  0.00  0.00    -0.322 N 
ATOM     29  C   UNL d   1      28.691 -15.555  -0.017  0.00  0.00     0.254 C 
ATOM     30  H   UNL d   1      29.038 -16.666  -1.681  0.00  0.00     0.169 HD
ATOM     31  O   UNL d   1      29.639 -16.011   0.659  0.00  0.00    -0.268 OA
ENDBRANCH   1  17
BRANCH   1  32
ATOM     32  C   UNL d   1      27.948 -12.137   2.079  0.00  0.00     0.184 A 
ATOM     33  N   UNL d   1      26.646 -11.920   1.907  0.00  0.00    -0.111 NA
ATOM     34  N   UNL d   1      26.353 -10.695   2.440  0.00  0.00    -0.023 NA
ATOM     35  N   UNL d   1      27.436 -10.128   2.934  0.00  0.00    -0.043 NA
ATOM     36  N   UNL d   1      28.434 -11.026   2.807  0.00  0.00    -0.223 N 
BRANCH  36  37
ATOM     37  C   UNL d   1      29.720 -10.648   3.413  0.00  0.00     0.048 C 
ATOM     38  C   UNL d   1      30.963 -11.135   2.672  0.00  0.00     0.040 C 
ATOM     39  C   UNL d   1      29.734 -10.641   4.964  0.00  0.00     0.040 C 
ATOM     40  C   UNL d   1      29.959  -9.230   3.181  0.00  0.00     0.040 C 
ENDBRANCH  36  37
ENDBRANCH   1  32
TORSDOF 6
ENDMDL
MODEL 7
REMARK VINA RESULT:    -9.216      2.751      6.256
REMARK INTER + INTRA:         -13.715
REMARK INTER:                 -11.006
REMARK INTRA:                  -2.709
REMARK CONF_INDEPENDENT:        1.790
REMARK UNBOUND:                -2.709
REMARK  6 active torsions:
REMARK  status: ('A' for Active; 'I' for Inactive)
REMARK    1  A    between atoms: C_2  and  N_5 
REMARK    2  A    between atoms: C_10  and  C_9 
REMARK    3  A    between atoms: C_10  and  N_25 
REMARK    4  A    between atoms: C_10  and  C_11 
REMARK    5  A    between atoms: N_28  and  C_29 
REMARK    6  A    between atoms: C_32  and  O_33 
ROOT
ATOM      1  C   UNL d   1      28.090 -15.126  -3.210  0.00  0.00     0.299 C 
ENDROOT
BRANCH   1   2
ATOM      2  N   UNL d   1      27.759 -15.517  -1.712  0.00  0.00    -0.052 N 
ATOM      3  C   UNL d   1      26.618 -14.672  -1.066  0.00  0.00     0.256 C 
ATOM      4  C   UNL d   1      25.900 -15.308   0.111  0.00  0.00     0.150 C 
ATOM      5  N   UNL d   1      25.583 -16.692  -0.266  0.00  0.00    -0.378 N 
ATOM      6  C   UNL d   1      26.781 -17.525  -0.425  0.00  0.00     0.150 C 
ATOM      7  C   UNL d   1      27.512 -17.075  -1.687  0.00  0.00     0.256 C 
ATOM      8  H   UNL d   1      28.613 -15.309  -1.176  0.00  0.00     0.281 HD
BRANCH   5   9
ATOM      9  C   UNL d   1      24.307 -17.214  -0.397  0.00  0.00     0.030 A 
ATOM     10  C   UNL d   1      23.950 -18.570  -0.233  0.00  0.00     0.032 A 
ATOM     11  C   UNL d   1      22.637 -19.043  -0.489  0.00  0.00     0.039 A 
ATOM     12  C   UNL d   1      21.643 -18.143  -0.839  0.00  0.00     0.065 A 
ATOM     13  C   UNL d   1      21.938 -16.792  -0.895  0.00  0.00     0.039 A 
ATOM     14  C   UNL d   1      23.255 -16.349  -0.716  0.00  0.00     0.032 A 
BRANCH  12  15
ATOM     15  O   UNL d   1      20.369 -18.521  -1.139  0.00  0.00    -0.361 OA
ATOM     16  H   UNL d   1      19.916 -17.825  -1.645  0.00  0.00     0.217 HD
ENDBRANCH  12  15
ENDBRANCH   5   9
ENDBRANCH   1   2
BRANCH   1  17
ATOM     17  C   UNL d   1      27.164 -13.944  -3.500  0.00  0.00     0.049 C 
ATOM     18  C   UNL d   1      27.577 -12.656  -3.401  0.00  0.00     0.028 C 
ATOM     19  C   UNL d   1      26.953 -11.501  -4.026  0.00  0.00    -0.009 C 
ATOM     20  C   UNL d   1      27.646 -10.277  -4.261  0.00  0.00     0.035 C 
ATOM     21  C   UNL d   1      25.872 -11.850  -4.820  0.00  0.00     0.047 C 
ATOM     22  C   UNL d   1      27.111  -9.413  -5.220  0.00  0.00     0.171 C 
ATOM     23  C   UNL d   1      26.373  -9.975  -6.229  0.00  0.00     0.093 C 
ATOM     24  O   UNL d   1      26.312  -8.264  -4.863  0.00  0.00    -0.341 OA
ATOM     25  C   UNL d   1      25.606 -11.092  -5.938  0.00  0.00     0.066 C 
ATOM     26  O   UNL d   1      25.754  -9.033  -7.011  0.00  0.00    -0.327 OA
ATOM     27  C   UNL d   1      25.256  -8.312  -5.887  0.00  0.00     0.346 C 
ATOM     28  N   UNL d   1      25.259 -13.113  -4.733  0.00  0.00    -0.322 N 
ATOM     29  C   UNL d   1      25.832 -14.182  -4.107  0.00  0.00     0.254 C 
ATOM     30  H   UNL d   1      24.521 -13.319  -5.396  0.00  0.00     0.169 HD
ATOM     31  O   UNL d   1      25.389 -15.347  -4.212  0.00  0.00    -0.268 OA
ENDBRANCH   1  17
BRANCH   1  32
ATOM     32  C   UNL d   1      29.640 -15.119  -3.480  0.00  0.00     0.184 A 
ATOM     33  N   UNL d   1      30.494 -15.221  -2.464  0.00  0.00    -0.111 NA
ATOM     34  N   UNL d   1      31.761 -15.143  -2.974  0.00  0.00    -0.023 NA
ATOM     35  N   UNL d   1      31.730 -14.986  -4.282  0.00  0.00    -0.043 NA
ATOM     36  N   UNL d   1      30.434 -15.049  -4.649  0.00  0.00    -0.223 N 
BRANCH  36  37
ATOM     37  C   UNL d   1      30.173 -15.021  -6.097  0.00  0.00     0.048 C 
ATOM     38  C   UNL d   1      31.252 -14.351  -6.943  0.00  0.00     0.040 C 
ATOM     39  C   UNL d   1      28.687 -14.818  -6.488  0.00  0.00     0.040 C 
ATOM     40  C   UNL d   1      30.369 -16.357  -6.643  0.00  0.00     0.040 C 
ENDBRANCH  36  37
ENDBRANCH   1  32
TORSDOF 6
ENDMDL
MODEL 8
REMARK VINA RESULT:    -9.140      1.983      2.445
REMARK INTER + INTRA:         -13.811
REMARK INTER:                 -10.930
REMARK INTRA:                  -2.881
REMARK CONF_INDEPENDENT:        1.790
REMARK UNBOUND:                -2.881
REMARK  6 active torsions:
REMARK  status: ('A' for Active; 'I' for Inactive)
REMARK    1  A    between atoms: C_2  and  N_5 
REMARK    2  A    between atoms: C_10  and  C_9 
REMARK    3  A    between atoms: C_10  and  N_25 
REMARK    4  A    between atoms: C_10  and  C_11 
REMARK    5  A    between atoms: N_28  and  C_29 
REMARK    6  A    between atoms: C_32  and  O_33 
ROOT
ATOM      1  C   UNL d   1      28.225 -14.727  -3.058  0.00  0.00     0.299 C 
ENDROOT
BRANCH   1   2
ATOM      2  N   UNL d   1      27.984 -15.355  -1.625  0.00  0.00    -0.052 N 
ATOM      3  C   UNL d   1      26.914 -14.610  -0.770  0.00  0.00     0.256 C 
ATOM      4  C   UNL d   1      26.260 -15.421   0.336  0.00  0.00     0.150 C 
ATOM      5  N   UNL d   1      25.879 -16.718  -0.239  0.00  0.00    -0.378 N 
ATOM      6  C   UNL d   1      27.041 -17.532  -0.618  0.00  0.00     0.150 C 
ATOM      7  C   UNL d   1      27.697 -16.891  -1.837  0.00  0.00     0.256 C 
ATOM      8  H   UNL d   1      28.878 -15.252  -1.124  0.00  0.00     0.281 HD
BRANCH   5   9
ATOM      9  C   UNL d   1      24.583 -17.191  -0.363  0.00  0.00     0.030 A 
ATOM     10  C   UNL d   1      24.169 -18.524  -0.156  0.00  0.00     0.032 A 
ATOM     11  C   UNL d   1      22.839 -18.950  -0.406  0.00  0.00     0.039 A 
ATOM     12  C   UNL d   1      21.886 -18.022  -0.795  0.00  0.00     0.065 A 
ATOM     13  C   UNL d   1      22.238 -16.688  -0.895  0.00  0.00     0.039 A 
ATOM     14  C   UNL d   1      23.571 -16.294  -0.720  0.00  0.00     0.032 A 
BRANCH  12  15
ATOM     15  O   UNL d   1      20.599 -18.356  -1.092  0.00  0.00    -0.361 OA
ATOM     16  H   UNL d   1      20.177 -17.657  -1.619  0.00  0.00     0.217 HD
ENDBRANCH  12  15
ENDBRANCH   5   9
ENDBRANCH   1   2
BRANCH   1  17
ATOM     17  C   UNL d   1      29.323 -15.599  -3.667  0.00  0.00     0.049 C 
ATOM     18  C   UNL d   1      29.283 -16.026  -4.954  0.00  0.00     0.028 C 
ATOM     19  C   UNL d   1      30.412 -16.485  -5.746  0.00  0.00    -0.009 C 
ATOM     20  C   UNL d   1      30.405 -16.496  -7.172  0.00  0.00     0.035 C 
ATOM     21  C   UNL d   1      31.612 -16.394  -5.057  0.00  0.00     0.047 C 
ATOM     22  C   UNL d   1      31.644 -16.543  -7.816  0.00  0.00     0.171 C 
ATOM     23  C   UNL d   1      32.719 -16.012  -7.150  0.00  0.00     0.093 C 
ATOM     24  O   UNL d   1      32.192 -17.769  -8.347  0.00  0.00    -0.341 OA
ATOM     25  C   UNL d   1      32.759 -16.130  -5.770  0.00  0.00     0.066 C 
ATOM     26  O   UNL d   1      33.906 -16.263  -7.789  0.00  0.00    -0.327 OA
ATOM     27  C   UNL d   1      33.610 -17.645  -7.969  0.00  0.00     0.346 C 
ATOM     28  N   UNL d   1      31.659 -16.218  -3.663  0.00  0.00    -0.322 N 
ATOM     29  C   UNL d   1      30.583 -15.829  -2.919  0.00  0.00     0.254 C 
ATOM     30  H   UNL d   1      32.572 -16.088  -3.242  0.00  0.00     0.169 HD
ATOM     31  O   UNL d   1      30.678 -15.470  -1.725  0.00  0.00    -0.268 OA
ENDBRANCH   1  17
BRANCH   1  32
ATOM     32  C   UNL d   1      26.868 -14.386  -3.778  0.00  0.00     0.184 A 
ATOM     33  N   UNL d   1      25.950 -15.333  -3.954  0.00  0.00    -0.111 NA
ATOM     34  N   UNL d   1      24.903 -14.779  -4.638  0.00  0.00    -0.023 NA
ATOM     35  N   UNL d   1      25.139 -13.511  -4.908  0.00  0.00    -0.043 NA
ATOM     36  N   UNL d   1      26.313 -13.202  -4.318  0.00  0.00    -0.223 N 
BRANCH  36  37
ATOM     37  C   UNL d   1      26.714 -11.788  -4.385  0.00  0.00     0.048 C 
ATOM     38  C   UNL d   1      28.166 -11.538  -4.781  0.00  0.00     0.040 C 
ATOM     39  C   UNL d   1      26.066 -10.874  -3.313  0.00  0.00     0.040 C 
ATOM     40  C   UNL d   1      26.133 -11.184  -5.576  0.00  0.00     0.040 C 
ENDBRANCH  36  37
ENDBRANCH   1  32
TORSDOF 6
ENDMDL
MODEL 9
REMARK VINA RESULT:    -9.030      5.637      9.308
REMARK INTER + INTRA:         -13.732
REMARK INTER:                 -10.820
REMARK INTRA:                  -2.912
REMARK CONF_INDEPENDENT:        1.790
REMARK UNBOUND:                -2.912
REMARK  6 active torsions:
REMARK  status: ('A' for Active; 'I' for Inactive)
REMARK    1  A    between atoms: C_2  and  N_5 
REMARK    2  A    between atoms: C_10  and  C_9 
REMARK    3  A    between atoms: C_10  and  N_25 
REMARK    4  A    between atoms: C_10  and  C_11 
REMARK    5  A    between atoms: N_28  and  C_29 
REMARK    6  A    between atoms: C_32  and  O_33 
ROOT
ATOM      1  C   UNL d   1      29.474 -13.558   2.849  0.00  0.00     0.299 C 
ENDROOT
BRANCH   1   2
ATOM      2  N   UNL d   1      29.246 -14.825   1.926  0.00  0.00    -0.052 N 
ATOM      3  C   UNL d   1      27.780 -15.357   1.918  0.00  0.00     0.256 C 
ATOM      4  C   UNL d   1      27.375 -16.179   0.708  0.00  0.00     0.150 C 
ATOM      5  N   UNL d   1      27.837 -15.458  -0.486  0.00  0.00    -0.378 N 
ATOM      6  C   UNL d   1      29.301 -15.404  -0.584  0.00  0.00     0.150 C 
ATOM      7  C   UNL d   1      29.819 -14.466   0.501  0.00  0.00     0.256 C 
ATOM      8  H   UNL d   1      29.824 -15.573   2.336  0.00  0.00     0.281 HD
BRANCH   5   9
ATOM      9  C   UNL d   1      27.018 -14.933  -1.472  0.00  0.00     0.030 A 
ATOM     10  C   UNL d   1      26.682 -13.571  -1.625  0.00  0.00     0.032 A 
ATOM     11  C   UNL d   1      25.750 -13.127  -2.600  0.00  0.00     0.039 A 
ATOM     12  C   UNL d   1      25.201 -14.040  -3.486  0.00  0.00     0.065 A 
ATOM     13  C   UNL d   1      25.601 -15.364  -3.432  0.00  0.00     0.039 A 
ATOM     14  C   UNL d   1      26.462 -15.801  -2.417  0.00  0.00     0.032 A 
BRANCH  12  15
ATOM     15  O   UNL d   1      24.272 -13.702  -4.423  0.00  0.00    -0.361 OA
ATOM     16  H   UNL d   1      24.404 -12.787  -4.721  0.00  0.00     0.217 HD
ENDBRANCH  12  15
ENDBRANCH   5   9
ENDBRANCH   1   2
BRANCH   1  17
ATOM     17  C   UNL d   1      28.920 -12.394   2.026  0.00  0.00     0.049 C 
ATOM     18  C   UNL d   1      27.611 -12.040   2.057  0.00  0.00     0.028 C 
ATOM     19  C   UNL d   1      27.057 -10.753   1.669  0.00  0.00    -0.009 C 
ATOM     20  C   UNL d   1      25.789 -10.286   2.124  0.00  0.00     0.035 C 
ATOM     21  C   UNL d   1      28.038  -9.847   1.295  0.00  0.00     0.047 C 
ATOM     22  C   UNL d   1      25.551  -8.911   2.048  0.00  0.00     0.171 C 
ATOM     23  C   UNL d   1      26.638  -8.080   2.113  0.00  0.00     0.093 C 
ATOM     24  O   UNL d   1      24.780  -8.319   0.980  0.00  0.00    -0.341 OA
ATOM     25  C   UNL d   1      27.828  -8.511   1.546  0.00  0.00     0.066 C 
ATOM     26  O   UNL d   1      26.314  -6.772   1.857  0.00  0.00    -0.327 OA
ATOM     27  C   UNL d   1      25.559  -7.104   0.694  0.00  0.00     0.346 C 
ATOM     28  N   UNL d   1      29.351 -10.252   0.995  0.00  0.00    -0.322 N 
ATOM     29  C   UNL d   1      29.852 -11.478   1.323  0.00  0.00     0.254 C 
ATOM     30  H   UNL d   1      30.029  -9.524   0.800  0.00  0.00     0.169 HD
ATOM     31  O   UNL d   1      31.068 -11.757   1.248  0.00  0.00    -0.268 OA
ENDBRANCH   1  17
BRANCH   1  32
ATOM     32  C   UNL d   1      29.078 -13.849   4.344  0.00  0.00     0.184 A 
ATOM     33  N   UNL d   1      28.926 -15.104   4.761  0.00  0.00    -0.111 NA
ATOM     34  N   UNL d   1      28.542 -15.064   6.073  0.00  0.00    -0.023 NA
ATOM     35  N   UNL d   1      28.438 -13.819   6.493  0.00  0.00    -0.043 NA
ATOM     36  N   UNL d   1      28.844 -13.033   5.474  0.00  0.00    -0.223 N 
BRANCH  36  37
ATOM     37  C   UNL d   1      28.929 -11.593   5.768  0.00  0.00     0.048 C 
ATOM     38  C   UNL d   1      29.980 -10.824   4.973  0.00  0.00     0.040 C 
ATOM     39  C   UNL d   1      28.695 -11.216   7.254  0.00  0.00     0.040 C 
ATOM     40  C   UNL d   1      27.780 -10.918   5.182  0.00  0.00     0.040 C 
ENDBRANCH  36  37
ENDBRANCH   1  32
TORSDOF 6
ENDMDL
