MODEL 1
REMARK VINA RESULT:    -8.795      0.000      0.000
REMARK INTER + INTRA:         -13.658
REMARK INTER:                 -10.585
REMARK INTRA:                  -3.073
REMARK CONF_INDEPENDENT:        1.790
REMARK UNBOUND:                -3.073
REMARK  6 active torsions:
REMARK  status: ('A' for Active; 'I' for Inactive)
REMARK    1  A    between atoms: C_5  and  N_6 
REMARK    2  A    between atoms: C_7  and  C_8 
REMARK    3  A    between atoms: C_13  and  O_14 
REMARK    4  A    between atoms: C_22  and  N_23 
REMARK    5  A    between atoms: C_24  and  C_25 
REMARK    6  A    between atoms: C_30  and  O_31 
ROOT
ATOM      1  C   UNL d   1      27.774 -14.752   1.981  0.00  0.00     0.269 C 
ATOM      2  N   UNL d   1      29.385 -15.361   0.978  0.00  0.00    -0.074 N 
ATOM      3  C   UNL d   1      30.993 -14.400   0.453  0.00  0.00     0.239 C 
ATOM      4  C   UNL d   1      31.168 -14.193  -1.017  0.00  0.00     0.091 C 
ATOM      5  C   UNL d   1      29.866 -14.572  -1.593  0.00  0.00     0.169 C 
ATOM      6  O   UNL d   1      30.203 -14.596  -3.037  0.00  0.00    -0.317 OA
ATOM      7  C   UNL d   1      29.178 -14.835  -3.915  0.00  0.00     0.080 C 
ATOM      8  C   UNL d   1      29.385 -14.734  -5.289  0.00  0.00     0.037 C 
ATOM      9  C   UNL d   1      28.289 -14.825  -6.165  0.00  0.00     0.003 C 
ATOM     10  C   UNL d   1      26.998 -15.020  -5.681  0.00  0.00     0.001 C 
ATOM     11  C   UNL d   1      26.811 -15.177  -4.325  0.00  0.00     0.012 C 
ATOM     12  C   UNL d   1      27.910 -15.162  -3.464  0.00  0.00     0.001 C 
ATOM     13  C   UNL d   1      27.714 -15.501  -2.030  0.00  0.00     0.153 C 
ATOM     14  C   UNL d   1      29.074 -15.884  -1.367  0.00  0.00     0.099 C 
ATOM     15  C   UNL d   1      28.803 -16.298   0.034  0.00  0.00     0.246 C 
ATOM     16  H   UNL d   1      29.874 -15.984   1.648  0.00  0.00     0.279 HD
ENDROOT
BRANCH   5  17
ATOM     17  N   UNL d   1      29.130 -13.365  -0.914  0.00  0.00    -0.262 NA
ATOM     18  C   UNL d   1      28.743 -12.240  -1.582  0.00  0.00     0.128 C 
BRANCH  18  19
ATOM     19  C   UNL d   1      27.890 -11.572  -3.206  0.00  0.00     0.014 C 
ATOM     20  C   UNL d   1      28.875 -11.122  -3.934  0.00  0.00     0.015 C 
ATOM     21  C   UNL d   1      28.588 -10.888  -5.295  0.00  0.00     0.001 C 
ATOM     22  C   UNL d   1      27.354 -11.220  -5.958  0.00  0.00     0.003 C 
ATOM     23  C   UNL d   1      26.250 -11.753  -5.361  0.00  0.00     0.037 C 
ATOM     24  C   UNL d   1      26.402 -11.822  -3.979  0.00  0.00     0.077 C 
BRANCH  24  25
ATOM     25  O   UNL d   1      25.193 -12.355  -3.400  0.00  0.00    -0.360 OA
ATOM     26  H   UNL d   1      24.340 -12.200  -3.871  0.00  0.00     0.217 HD
ENDBRANCH  24  25
ENDBRANCH  18  19
ENDBRANCH   5  17
BRANCH  13  27
ATOM     27  N   UNL d   1      26.662 -16.491  -1.779  0.00  0.00    -0.290 NA
ATOM     28  C   UNL d   1      25.646 -16.007  -1.162  0.00  0.00     0.125 C 
BRANCH  28  29
ATOM     29  C   UNL d   1      24.506 -16.853  -0.883  0.00  0.00     0.014 A 
ATOM     30  C   UNL d   1      23.218 -16.328  -0.983  0.00  0.00     0.015 A 
ATOM     31  C   UNL d   1      22.155 -17.087  -0.520  0.00  0.00     0.001 A 
ATOM     32  C   UNL d   1      22.381 -18.395  -0.084  0.00  0.00     0.003 A 
ATOM     33  C   UNL d   1      23.668 -18.950  -0.110  0.00  0.00     0.037 A 
ATOM     34  C   UNL d   1      24.746 -18.148  -0.445  0.00  0.00     0.077 A 
BRANCH  34  35
ATOM     35  O   UNL d   1      26.036 -18.581  -0.301  0.00  0.00    -0.360 OA
ATOM     36  H   UNL d   1      26.580 -18.210  -1.016  0.00  0.00     0.217 HD
ENDBRANCH  34  35
ENDBRANCH  28  29
ENDBRANCH  13  27
TORSDOF 6
ENDMDL
MODEL 2
REMARK VINA RESULT:    -8.627      1.177      1.495
REMARK INTER + INTRA:         -13.327
REMARK INTER:                 -10.417
REMARK INTRA:                  -2.910
REMARK CONF_INDEPENDENT:        1.790
REMARK UNBOUND:                -2.910
REMARK  6 active torsions:
REMARK  status: ('A' for Active; 'I' for Inactive)
REMARK    1  A    between atoms: C_5  and  N_6 
REMARK    2  A    between atoms: C_7  and  C_8 
REMARK    3  A    between atoms: C_13  and  O_14 
REMARK    4  A    between atoms: C_22  and  N_23 
REMARK    5  A    between atoms: C_24  and  C_25 
REMARK    6  A    between atoms: C_30  and  O_31 
ROOT
ATOM      1  C   UNL d   1      27.344 -13.736   2.564  0.00  0.00     0.269 C 
ATOM      2  N   UNL d   1      28.635 -14.940   1.639  0.00  0.00    -0.074 N 
ATOM      3  C   UNL d   1      30.410 -14.589   0.925  0.00  0.00     0.239 C 
ATOM      4  C   UNL d   1      30.533 -14.670  -0.563  0.00  0.00     0.091 C 
ATOM      5  C   UNL d   1      29.139 -14.729  -1.038  0.00  0.00     0.169 C 
ATOM      6  O   UNL d   1      29.351 -15.071  -2.465  0.00  0.00    -0.317 OA
ATOM      7  C   UNL d   1      28.241 -15.127  -3.267  0.00  0.00     0.080 C 
ATOM      8  C   UNL d   1      28.370 -15.302  -4.643  0.00  0.00     0.037 C 
ATOM      9  C   UNL d   1      27.235 -15.196  -5.466  0.00  0.00     0.003 C 
ATOM     10  C   UNL d   1      25.980 -14.924  -4.926  0.00  0.00     0.001 C 
ATOM     11  C   UNL d   1      25.853 -14.811  -3.559  0.00  0.00     0.012 C 
ATOM     12  C   UNL d   1      26.968 -14.991  -2.739  0.00  0.00     0.001 C 
ATOM     13  C   UNL d   1      26.785 -15.035  -1.264  0.00  0.00     0.153 C 
ATOM     14  C   UNL d   1      28.021 -15.698  -0.579  0.00  0.00     0.099 C 
ATOM     15  C   UNL d   1      27.742 -15.795   0.878  0.00  0.00     0.246 C 
ATOM     16  H   UNL d   1      28.971 -15.570   2.392  0.00  0.00     0.279 HD
ENDROOT
BRANCH   5  17
ATOM     17  N   UNL d   1      28.832 -13.270  -0.552  0.00  0.00    -0.262 NA
ATOM     18  C   UNL d   1      28.745 -12.195  -1.388  0.00  0.00     0.128 C 
BRANCH  18  19
ATOM     19  C   UNL d   1      28.015 -11.557  -3.082  0.00  0.00     0.014 C 
ATOM     20  C   UNL d   1      29.049 -11.463  -3.872  0.00  0.00     0.015 C 
ATOM     21  C   UNL d   1      28.774 -11.347  -5.250  0.00  0.00     0.001 C 
ATOM     22  C   UNL d   1      27.470 -11.449  -5.853  0.00  0.00     0.003 C 
ATOM     23  C   UNL d   1      26.295 -11.610  -5.182  0.00  0.00     0.037 C 
ATOM     24  C   UNL d   1      26.482 -11.532  -3.804  0.00  0.00     0.077 C 
BRANCH  24  25
ATOM     25  O   UNL d   1      25.204 -11.670  -3.149  0.00  0.00    -0.360 OA
ATOM     26  H   UNL d   1      24.405 -11.827  -3.707  0.00  0.00     0.217 HD
ENDBRANCH  24  25
ENDBRANCH  18  19
ENDBRANCH   5  17
BRANCH  13  27
ATOM     27  N   UNL d   1      25.513 -15.619  -0.828  0.00  0.00    -0.290 NA
ATOM     28  C   UNL d   1      25.342 -16.825  -1.236  0.00  0.00     0.125 C 
BRANCH  28  29
ATOM     29  C   UNL d   1      24.153 -17.551  -0.847  0.00  0.00     0.014 A 
ATOM     30  C   UNL d   1      24.248 -18.903  -0.520  0.00  0.00     0.015 A 
ATOM     31  C   UNL d   1      23.079 -19.627  -0.348  0.00  0.00     0.001 A 
ATOM     32  C   UNL d   1      21.849 -18.967  -0.384  0.00  0.00     0.003 A 
ATOM     33  C   UNL d   1      21.780 -17.583  -0.590  0.00  0.00     0.037 A 
ATOM     34  C   UNL d   1      22.937 -16.884  -0.894  0.00  0.00     0.077 A 
BRANCH  34  35
ATOM     35  O   UNL d   1      22.902 -15.575  -1.292  0.00  0.00    -0.360 OA
ATOM     36  H   UNL d   1      23.634 -15.409  -1.910  0.00  0.00     0.217 HD
ENDBRANCH  34  35
ENDBRANCH  28  29
ENDBRANCH  13  27
TORSDOF 6
ENDMDL
MODEL 3
REMARK VINA RESULT:    -8.571      2.483      5.106
REMARK INTER + INTRA:         -12.112
REMARK INTER:                 -10.361
REMARK INTRA:                  -1.751
REMARK CONF_INDEPENDENT:        1.790
REMARK UNBOUND:                -1.751
REMARK  6 active torsions:
REMARK  status: ('A' for Active; 'I' for Inactive)
REMARK    1  A    between atoms: C_5  and  N_6 
REMARK    2  A    between atoms: C_7  and  C_8 
REMARK    3  A    between atoms: C_13  and  O_14 
REMARK    4  A    between atoms: C_22  and  N_23 
REMARK    5  A    between atoms: C_24  and  C_25 
REMARK    6  A    between atoms: C_30  and  O_31 
ROOT
ATOM      1  C   UNL d   1      32.023 -13.421  -0.601  0.00  0.00     0.269 C 
ATOM      2  N   UNL d   1      31.794 -15.329  -0.071  0.00  0.00    -0.074 N 
ATOM      3  C   UNL d   1      31.989 -16.966  -1.105  0.00  0.00     0.239 C 
ATOM      4  C   UNL d   1      30.728 -17.733  -1.337  0.00  0.00     0.091 C 
ATOM      5  C   UNL d   1      29.659 -16.811  -0.913  0.00  0.00     0.169 C 
ATOM      6  O   UNL d   1      28.491 -17.725  -0.922  0.00  0.00    -0.317 OA
ATOM      7  C   UNL d   1      27.265 -17.176  -0.652  0.00  0.00     0.080 C 
ATOM      8  C   UNL d   1      26.105 -17.937  -0.779  0.00  0.00     0.037 C 
ATOM      9  C   UNL d   1      24.849 -17.316  -0.655  0.00  0.00     0.003 C 
ATOM     10  C   UNL d   1      24.747 -15.950  -0.401  0.00  0.00     0.001 C 
ATOM     11  C   UNL d   1      25.899 -15.217  -0.218  0.00  0.00     0.012 C 
ATOM     12  C   UNL d   1      27.142 -15.851  -0.268  0.00  0.00     0.001 C 
ATOM     13  C   UNL d   1      28.363 -15.085   0.098  0.00  0.00     0.153 C 
ATOM     14  C   UNL d   1      29.538 -16.055   0.433  0.00  0.00     0.099 C 
ATOM     15  C   UNL d   1      30.698 -15.238   0.877  0.00  0.00     0.246 C 
ATOM     16  H   UNL d   1      32.611 -15.517   0.540  0.00  0.00     0.279 HD
ENDROOT
BRANCH   5  17
ATOM     17  N   UNL d   1      29.959 -15.808  -2.080  0.00  0.00    -0.262 NA
ATOM     18  C   UNL d   1      29.004 -15.312  -2.918  0.00  0.00     0.128 C 
BRANCH  18  19
ATOM     19  C   UNL d   1      27.210 -14.547  -3.005  0.00  0.00     0.014 C 
ATOM     20  C   UNL d   1      27.311 -13.400  -2.391  0.00  0.00     0.015 C 
ATOM     21  C   UNL d   1      26.256 -12.487  -2.595  0.00  0.00     0.001 C 
ATOM     22  C   UNL d   1      25.158 -12.670  -3.510  0.00  0.00     0.003 C 
ATOM     23  C   UNL d   1      24.936 -13.778  -4.272  0.00  0.00     0.037 C 
ATOM     24  C   UNL d   1      25.836 -14.795  -3.966  0.00  0.00     0.077 C 
BRANCH  24  25
ATOM     25  O   UNL d   1      25.529 -15.951  -4.772  0.00  0.00    -0.360 OA
ATOM     26  H   UNL d   1      25.243 -15.810  -5.706  0.00  0.00     0.217 HD
ENDBRANCH  24  25
ENDBRANCH  18  19
ENDBRANCH   5  17
BRANCH  13  27
ATOM     27  N   UNL d   1      28.153 -14.069   1.134  0.00  0.00    -0.290 NA
ATOM     28  C   UNL d   1      28.042 -14.562   2.314  0.00  0.00     0.125 C 
BRANCH  28  29
ATOM     29  C   UNL d   1      27.877 -13.679   3.447  0.00  0.00     0.014 A 
ATOM     30  C   UNL d   1      27.735 -12.308   3.238  0.00  0.00     0.015 A 
ATOM     31  C   UNL d   1      27.780 -11.461   4.334  0.00  0.00     0.001 A 
ATOM     32  C   UNL d   1      27.841 -12.003   5.620  0.00  0.00     0.003 A 
ATOM     33  C   UNL d   1      27.856 -13.390   5.817  0.00  0.00     0.037 A 
ATOM     34  C   UNL d   1      27.946 -14.231   4.720  0.00  0.00     0.077 A 
BRANCH  34  35
ATOM     35  O   UNL d   1      28.157 -15.575   4.860  0.00  0.00    -0.360 OA
ATOM     36  H   UNL d   1      28.691 -15.895   4.112  0.00  0.00     0.217 HD
ENDBRANCH  34  35
ENDBRANCH  28  29
ENDBRANCH  13  27
TORSDOF 6
ENDMDL
MODEL 4
REMARK VINA RESULT:    -7.949      0.922      1.270
REMARK INTER + INTRA:         -13.088
REMARK INTER:                  -9.738
REMARK INTRA:                  -3.350
REMARK CONF_INDEPENDENT:        1.790
REMARK UNBOUND:                -3.350
REMARK  6 active torsions:
REMARK  status: ('A' for Active; 'I' for Inactive)
REMARK    1  A    between atoms: C_5  and  N_6 
REMARK    2  A    between atoms: C_7  and  C_8 
REMARK    3  A    between atoms: C_13  and  O_14 
REMARK    4  A    between atoms: C_22  and  N_23 
REMARK    5  A    between atoms: C_24  and  C_25 
REMARK    6  A    between atoms: C_30  and  O_31 
ROOT
ATOM      1  C   UNL d   1      28.018 -14.893   2.054  0.00  0.00     0.269 C 
ATOM      2  N   UNL d   1      29.561 -15.553   0.980  0.00  0.00    -0.074 N 
ATOM      3  C   UNL d   1      31.173 -14.644   0.380  0.00  0.00     0.239 C 
ATOM      4  C   UNL d   1      31.287 -14.444  -1.097  0.00  0.00     0.091 C 
ATOM      5  C   UNL d   1      29.948 -14.783  -1.612  0.00  0.00     0.169 C 
ATOM      6  O   UNL d   1      30.217 -14.819  -3.071  0.00  0.00    -0.317 OA
ATOM      7  C   UNL d   1      29.147 -15.026  -3.900  0.00  0.00     0.080 C 
ATOM      8  C   UNL d   1      29.294 -14.934  -5.282  0.00  0.00     0.037 C 
ATOM      9  C   UNL d   1      28.156 -14.990  -6.107  0.00  0.00     0.003 C 
ATOM     10  C   UNL d   1      26.883 -15.144  -5.563  0.00  0.00     0.001 C 
ATOM     11  C   UNL d   1      26.754 -15.294  -4.200  0.00  0.00     0.012 C 
ATOM     12  C   UNL d   1      27.891 -15.312  -3.391  0.00  0.00     0.001 C 
ATOM     13  C   UNL d   1      27.750 -15.644  -1.948  0.00  0.00     0.153 C 
ATOM     14  C   UNL d   1      29.127 -16.069  -1.347  0.00  0.00     0.099 C 
ATOM     15  C   UNL d   1      28.908 -16.473   0.066  0.00  0.00     0.246 C 
ATOM     16  H   UNL d   1      30.061 -16.191   1.628  0.00  0.00     0.279 HD
ENDROOT
BRANCH   5  17
ATOM     17  N   UNL d   1      29.282 -13.553  -0.903  0.00  0.00    -0.262 NA
ATOM     18  C   UNL d   1      28.691 -12.521  -1.572  0.00  0.00     0.128 C 
BRANCH  18  19
ATOM     19  C   UNL d   1      27.483 -12.062  -3.035  0.00  0.00     0.014 C 
ATOM     20  C   UNL d   1      28.253 -11.531  -3.945  0.00  0.00     0.015 C 
ATOM     21  C   UNL d   1      27.703 -11.415  -5.238  0.00  0.00     0.001 C 
ATOM     22  C   UNL d   1      26.428 -11.940  -5.654  0.00  0.00     0.003 C 
ATOM     23  C   UNL d   1      25.530 -12.574  -4.849  0.00  0.00     0.037 C 
ATOM     24  C   UNL d   1      25.931 -12.545  -3.516  0.00  0.00     0.077 C 
BRANCH  24  25
ATOM     25  O   UNL d   1      24.927 -13.194  -2.710  0.00  0.00    -0.360 OA
ATOM     26  H   UNL d   1      24.428 -13.951  -3.100  0.00  0.00     0.217 HD
ENDBRANCH  24  25
ENDBRANCH  18  19
ENDBRANCH   5  17
BRANCH  13  27
ATOM     27  N   UNL d   1      26.681 -16.600  -1.647  0.00  0.00    -0.290 NA
ATOM     28  C   UNL d   1      25.682 -16.070  -1.040  0.00  0.00     0.125 C 
BRANCH  28  29
ATOM     29  C   UNL d   1      24.527 -16.879  -0.716  0.00  0.00     0.014 A 
ATOM     30  C   UNL d   1      24.703 -18.101  -0.070  0.00  0.00     0.015 A 
ATOM     31  C   UNL d   1      23.613 -18.950   0.051  0.00  0.00     0.001 A 
ATOM     32  C   UNL d   1      22.352 -18.515  -0.362  0.00  0.00     0.003 A 
ATOM     33  C   UNL d   1      22.173 -17.231  -0.895  0.00  0.00     0.037 A 
ATOM     34  C   UNL d   1      23.281 -16.436  -1.138  0.00  0.00     0.077 A 
BRANCH  34  35
ATOM     35  O   UNL d   1      23.183 -15.260  -1.831  0.00  0.00    -0.360 OA
ATOM     36  H   UNL d   1      24.006 -14.753  -1.718  0.00  0.00     0.217 HD
ENDBRANCH  34  35
ENDBRANCH  28  29
ENDBRANCH  13  27
TORSDOF 6
ENDMDL
MODEL 5
REMARK VINA RESULT:    -7.704      2.404      6.549
REMARK INTER + INTRA:         -11.918
REMARK INTER:                  -9.493
REMARK INTRA:                  -2.425
REMARK CONF_INDEPENDENT:        1.790
REMARK UNBOUND:                -2.425
REMARK  6 active torsions:
REMARK  status: ('A' for Active; 'I' for Inactive)
REMARK    1  A    between atoms: C_5  and  N_6 
REMARK    2  A    between atoms: C_7  and  C_8 
REMARK    3  A    between atoms: C_13  and  O_14 
REMARK    4  A    between atoms: C_22  and  N_23 
REMARK    5  A    between atoms: C_24  and  C_25 
REMARK    6  A    between atoms: C_30  and  O_31 
ROOT
ATOM      1  C   UNL d   1      31.292 -17.453  -0.205  0.00  0.00     0.269 C 
ATOM      2  N   UNL d   1      30.472 -15.675   0.166  0.00  0.00    -0.074 N 
ATOM      3  C   UNL d   1      29.035 -15.166   1.373  0.00  0.00     0.239 C 
ATOM      4  C   UNL d   1      27.780 -14.691   0.715  0.00  0.00     0.091 C 
ATOM      5  C   UNL d   1      27.963 -15.035  -0.706  0.00  0.00     0.169 C 
ATOM      6  O   UNL d   1      26.823 -14.306  -1.313  0.00  0.00    -0.317 OA
ATOM      7  C   UNL d   1      26.620 -14.471  -2.658  0.00  0.00     0.080 C 
ATOM      8  C   UNL d   1      25.491 -13.935  -3.274  0.00  0.00     0.037 C 
ATOM      9  C   UNL d   1      25.218 -14.249  -4.617  0.00  0.00     0.003 C 
ATOM     10  C   UNL d   1      26.063 -15.084  -5.345  0.00  0.00     0.001 C 
ATOM     11  C   UNL d   1      27.208 -15.561  -4.745  0.00  0.00     0.012 C 
ATOM     12  C   UNL d   1      27.514 -15.187  -3.435  0.00  0.00     0.001 C 
ATOM     13  C   UNL d   1      28.832 -15.570  -2.861  0.00  0.00     0.153 C 
ATOM     14  C   UNL d   1      29.165 -14.686  -1.618  0.00  0.00     0.099 C 
ATOM     15  C   UNL d   1      30.525 -15.051  -1.145  0.00  0.00     0.246 C 
ATOM     16  H   UNL d   1      31.208 -15.166   0.691  0.00  0.00     0.279 HD
ENDROOT
BRANCH   5  17
ATOM     17  N   UNL d   1      27.927 -16.575  -0.414  0.00  0.00    -0.262 NA
ATOM     18  C   UNL d   1      26.784 -17.267  -0.134  0.00  0.00     0.128 C 
BRANCH  18  19
ATOM     19  C   UNL d   1      24.923 -17.537  -0.657  0.00  0.00     0.014 C 
ATOM     20  C   UNL d   1      24.604 -18.697  -0.151  0.00  0.00     0.015 C 
ATOM     21  C   UNL d   1      23.226 -18.992  -0.086  0.00  0.00     0.001 C 
ATOM     22  C   UNL d   1      22.160 -18.080  -0.412  0.00  0.00     0.003 C 
ATOM     23  C   UNL d   1      22.317 -16.815  -0.893  0.00  0.00     0.037 C 
ATOM     24  C   UNL d   1      23.654 -16.535  -1.166  0.00  0.00     0.077 C 
BRANCH  24  25
ATOM     25  O   UNL d   1      23.754 -15.202  -1.707  0.00  0.00    -0.360 OA
ATOM     26  H   UNL d   1      24.590 -14.698  -1.562  0.00  0.00     0.217 HD
ENDBRANCH  24  25
ENDBRANCH  18  19
ENDBRANCH   5  17
BRANCH  13  27
ATOM     27  N   UNL d   1      29.927 -15.617  -3.834  0.00  0.00    -0.290 NA
ATOM     28  C   UNL d   1      30.037 -16.754  -4.419  0.00  0.00     0.125 C 
BRANCH  28  29
ATOM     29  C   UNL d   1      31.045 -16.941  -5.440  0.00  0.00     0.014 A 
ATOM     30  C   UNL d   1      30.656 -17.183  -6.756  0.00  0.00     0.015 A 
ATOM     31  C   UNL d   1      31.623 -17.558  -7.676  0.00  0.00     0.001 A 
ATOM     32  C   UNL d   1      32.967 -17.563  -7.297  0.00  0.00     0.003 A 
ATOM     33  C   UNL d   1      33.351 -17.194  -6.001  0.00  0.00     0.037 A 
ATOM     34  C   UNL d   1      32.377 -16.950  -5.048  0.00  0.00     0.077 A 
BRANCH  34  35
ATOM     35  O   UNL d   1      32.691 -16.776  -3.728  0.00  0.00    -0.360 OA
ATOM     36  H   UNL d   1      32.022 -16.205  -3.312  0.00  0.00     0.217 HD
ENDBRANCH  34  35
ENDBRANCH  28  29
ENDBRANCH  13  27
TORSDOF 6
ENDMDL
MODEL 6
REMARK VINA RESULT:    -7.476      2.695      4.601
REMARK INTER + INTRA:         -12.136
REMARK INTER:                  -9.266
REMARK INTRA:                  -2.870
REMARK CONF_INDEPENDENT:        1.790
REMARK UNBOUND:                -2.870
REMARK  6 active torsions:
REMARK  status: ('A' for Active; 'I' for Inactive)
REMARK    1  A    between atoms: C_5  and  N_6 
REMARK    2  A    between atoms: C_7  and  C_8 
REMARK    3  A    between atoms: C_13  and  O_14 
REMARK    4  A    between atoms: C_22  and  N_23 
REMARK    5  A    between atoms: C_24  and  C_25 
REMARK    6  A    between atoms: C_30  and  O_31 
ROOT
ATOM      1  C   UNL d   1      27.485 -17.786   0.192  0.00  0.00     0.269 C 
ATOM      2  N   UNL d   1      29.047 -16.561   0.369  0.00  0.00    -0.074 N 
ATOM      3  C   UNL d   1      29.209 -14.825   1.233  0.00  0.00     0.239 C 
ATOM      4  C   UNL d   1      29.450 -13.670   0.316  0.00  0.00     0.091 C 
ATOM      5  C   UNL d   1      29.208 -14.219  -1.030  0.00  0.00     0.169 C 
ATOM      6  O   UNL d   1      29.719 -13.111  -1.873  0.00  0.00    -0.317 OA
ATOM      7  C   UNL d   1      29.572 -13.238  -3.229  0.00  0.00     0.080 C 
ATOM      8  C   UNL d   1      29.897 -12.182  -4.078  0.00  0.00     0.037 C 
ATOM      9  C   UNL d   1      29.590 -12.272  -5.448  0.00  0.00     0.003 C 
ATOM     10  C   UNL d   1      28.971 -13.405  -5.971  0.00  0.00     0.001 C 
ATOM     11  C   UNL d   1      28.708 -14.468  -5.135  0.00  0.00     0.012 C 
ATOM     12  C   UNL d   1      29.081 -14.405  -3.791  0.00  0.00     0.001 C 
ATOM     13  C   UNL d   1      28.946 -15.619  -2.942  0.00  0.00     0.153 C 
ATOM     14  C   UNL d   1      29.828 -15.491  -1.661  0.00  0.00     0.099 C 
ATOM     15  C   UNL d   1      29.722 -16.764  -0.901  0.00  0.00     0.246 C 
ATOM     16  H   UNL d   1      29.670 -17.047   1.040  0.00  0.00     0.279 HD
ENDROOT
BRANCH   5  17
ATOM     17  N   UNL d   1      27.681 -14.436  -0.748  0.00  0.00    -0.262 NA
ATOM     18  C   UNL d   1      26.702 -13.596  -1.192  0.00  0.00     0.128 C 
BRANCH  18  19
ATOM     19  C   UNL d   1      26.057 -12.581  -2.729  0.00  0.00     0.014 C 
ATOM     20  C   UNL d   1      26.652 -11.423  -2.633  0.00  0.00     0.015 C 
ATOM     21  C   UNL d   1      26.632 -10.613  -3.787  0.00  0.00     0.001 C 
ATOM     22  C   UNL d   1      26.125 -11.008  -5.076  0.00  0.00     0.003 C 
ATOM     23  C   UNL d   1      25.531 -12.200  -5.365  0.00  0.00     0.037 C 
ATOM     24  C   UNL d   1      25.343 -12.966  -4.217  0.00  0.00     0.077 C 
BRANCH  24  25
ATOM     25  O   UNL d   1      24.677 -14.194  -4.577  0.00  0.00    -0.360 OA
ATOM     26  H   UNL d   1      23.834 -14.139  -5.088  0.00  0.00     0.217 HD
ENDBRANCH  24  25
ENDBRANCH  18  19
ENDBRANCH   5  17
BRANCH  13  27
ATOM     27  N   UNL d   1      29.159 -16.882  -3.654  0.00  0.00    -0.290 NA
ATOM     28  C   UNL d   1      30.243 -16.902  -4.341  0.00  0.00     0.125 C 
BRANCH  28  29
ATOM     29  C   UNL d   1      30.613 -18.100  -5.062  0.00  0.00     0.014 A 
ATOM     30  C   UNL d   1      30.621 -18.089  -6.456  0.00  0.00     0.015 A 
ATOM     31  C   UNL d   1      30.780 -19.291  -7.128  0.00  0.00     0.001 A 
ATOM     32  C   UNL d   1      31.049 -20.454  -6.404  0.00  0.00     0.003 A 
ATOM     33  C   UNL d   1      31.164 -20.422  -5.007  0.00  0.00     0.037 A 
ATOM     34  C   UNL d   1      30.873 -19.250  -4.329  0.00  0.00     0.077 A 
BRANCH  34  35
ATOM     35  O   UNL d   1      30.781 -19.213  -2.965  0.00  0.00    -0.360 OA
ATOM     36  H   UNL d   1      30.384 -18.367  -2.693  0.00  0.00     0.217 HD
ENDBRANCH  34  35
ENDBRANCH  28  29
ENDBRANCH  13  27
TORSDOF 6
ENDMDL
MODEL 7
REMARK VINA RESULT:    -6.674      2.604      6.426
REMARK INTER + INTRA:         -11.662
REMARK INTER:                  -8.464
REMARK INTRA:                  -3.198
REMARK CONF_INDEPENDENT:        1.790
REMARK UNBOUND:                -3.198
REMARK  6 active torsions:
REMARK  status: ('A' for Active; 'I' for Inactive)
REMARK    1  A    between atoms: C_5  and  N_6 
REMARK    2  A    between atoms: C_7  and  C_8 
REMARK    3  A    between atoms: C_13  and  O_14 
REMARK    4  A    between atoms: C_22  and  N_23 
REMARK    5  A    between atoms: C_24  and  C_25 
REMARK    6  A    between atoms: C_30  and  O_31 
ROOT
ATOM      1  C   UNL d   1      30.536 -12.120  -6.361  0.00  0.00     0.269 C 
ATOM      2  N   UNL d   1      28.601 -11.798  -6.711  0.00  0.00    -0.074 N 
ATOM      3  C   UNL d   1      27.412 -10.395  -6.075  0.00  0.00     0.239 C 
ATOM      4  C   UNL d   1      26.327 -10.842  -5.149  0.00  0.00     0.091 C 
ATOM      5  C   UNL d   1      26.700 -12.224  -4.796  0.00  0.00     0.169 C 
ATOM      6  O   UNL d   1      25.464 -12.672  -4.109  0.00  0.00    -0.317 OA
ATOM      7  C   UNL d   1      25.477 -13.924  -3.551  0.00  0.00     0.080 C 
ATOM      8  C   UNL d   1      24.410 -14.362  -2.770  0.00  0.00     0.037 C 
ATOM      9  C   UNL d   1      24.511 -15.581  -2.077  0.00  0.00     0.003 C 
ATOM     10  C   UNL d   1      25.661 -16.362  -2.164  0.00  0.00     0.001 C 
ATOM     11  C   UNL d   1      26.687 -15.950  -2.985  0.00  0.00     0.012 C 
ATOM     12  C   UNL d   1      26.553 -14.776  -3.730  0.00  0.00     0.001 C 
ATOM     13  C   UNL d   1      27.592 -14.434  -4.737  0.00  0.00     0.153 C 
ATOM     14  C   UNL d   1      27.042 -13.389  -5.757  0.00  0.00     0.099 C 
ATOM     15  C   UNL d   1      28.088 -13.154  -6.786  0.00  0.00     0.246 C 
ATOM     16  H   UNL d   1      28.575 -11.487  -7.700  0.00  0.00     0.279 HD
ENDROOT
BRANCH   5  17
ATOM     17  N   UNL d   1      27.981 -11.760  -4.020  0.00  0.00    -0.262 NA
ATOM     18  C   UNL d   1      28.203 -12.022  -2.699  0.00  0.00     0.128 C 
BRANCH  18  19
ATOM     19  C   UNL d   1      28.125 -13.400  -1.319  0.00  0.00     0.014 C 
ATOM     20  C   UNL d   1      27.092 -13.077  -0.589  0.00  0.00     0.015 C 
ATOM     21  C   UNL d   1      26.601 -14.077   0.275  0.00  0.00     0.001 C 
ATOM     22  C   UNL d   1      27.062 -15.440   0.323  0.00  0.00     0.003 C 
ATOM     23  C   UNL d   1      28.085 -15.959  -0.414  0.00  0.00     0.037 C 
ATOM     24  C   UNL d   1      28.740 -14.970  -1.143  0.00  0.00     0.077 C 
BRANCH  24  25
ATOM     25  O   UNL d   1      29.833 -15.568  -1.869  0.00  0.00    -0.360 OA
ATOM     26  H   UNL d   1      30.142 -16.465  -1.597  0.00  0.00     0.217 HD
ENDBRANCH  24  25
ENDBRANCH  18  19
ENDBRANCH   5  17
BRANCH  13  27
ATOM     27  N   UNL d   1      28.211 -15.592  -5.389  0.00  0.00    -0.290 NA
ATOM     28  C   UNL d   1      29.418 -15.804  -5.008  0.00  0.00     0.125 C 
BRANCH  28  29
ATOM     29  C   UNL d   1      30.146 -16.940  -5.530  0.00  0.00     0.014 A 
ATOM     30  C   UNL d   1      30.409 -17.020  -6.896  0.00  0.00     0.015 A 
ATOM     31  C   UNL d   1      30.925 -18.203  -7.404  0.00  0.00     0.001 A 
ATOM     32  C   UNL d   1      31.281 -19.231  -6.528  0.00  0.00     0.003 A 
ATOM     33  C   UNL d   1      31.126 -19.082  -5.143  0.00  0.00     0.037 A 
ATOM     34  C   UNL d   1      30.488 -17.957  -4.648  0.00  0.00     0.077 A 
BRANCH  34  35
ATOM     35  O   UNL d   1      30.138 -17.850  -3.330  0.00  0.00    -0.360 OA
ATOM     36  H   UNL d   1      29.855 -16.938  -3.146  0.00  0.00     0.217 HD
ENDBRANCH  34  35
ENDBRANCH  28  29
ENDBRANCH  13  27
TORSDOF 6
ENDMDL
MODEL 8
REMARK VINA RESULT:    -6.585      2.681      4.901
REMARK INTER + INTRA:         -11.933
REMARK INTER:                  -8.375
REMARK INTRA:                  -3.558
REMARK CONF_INDEPENDENT:        1.790
REMARK UNBOUND:                -3.558
REMARK  6 active torsions:
REMARK  status: ('A' for Active; 'I' for Inactive)
REMARK    1  A    between atoms: C_5  and  N_6 
REMARK    2  A    between atoms: C_7  and  C_8 
REMARK    3  A    between atoms: C_13  and  O_14 
REMARK    4  A    between atoms: C_22  and  N_23 
REMARK    5  A    between atoms: C_24  and  C_25 
REMARK    6  A    between atoms: C_30  and  O_31 
ROOT
ATOM      1  C   UNL d   1      31.084 -14.136   1.246  0.00  0.00     0.269 C 
ATOM      2  N   UNL d   1      29.971 -15.744   0.860  0.00  0.00    -0.074 N 
ATOM      3  C   UNL d   1      30.289 -17.253  -0.326  0.00  0.00     0.239 C 
ATOM      4  C   UNL d   1      29.372 -17.350  -1.502  0.00  0.00     0.091 C 
ATOM      5  C   UNL d   1      28.667 -16.056  -1.520  0.00  0.00     0.169 C 
ATOM      6  O   UNL d   1      27.613 -16.333  -2.527  0.00  0.00    -0.317 OA
ATOM      7  C   UNL d   1      26.793 -15.293  -2.876  0.00  0.00     0.080 C 
ATOM      8  C   UNL d   1      25.874 -15.435  -3.913  0.00  0.00     0.037 C 
ATOM      9  C   UNL d   1      25.155 -14.312  -4.362  0.00  0.00     0.003 C 
ATOM     10  C   UNL d   1      25.344 -13.060  -3.781  0.00  0.00     0.001 C 
ATOM     11  C   UNL d   1      26.211 -12.942  -2.718  0.00  0.00     0.012 C 
ATOM     12  C   UNL d   1      26.867 -14.073  -2.226  0.00  0.00     0.001 C 
ATOM     13  C   UNL d   1      27.665 -13.963  -0.976  0.00  0.00     0.153 C 
ATOM     14  C   UNL d   1      27.908 -15.374  -0.355  0.00  0.00     0.099 C 
ATOM     15  C   UNL d   1      28.629 -15.193   0.932  0.00  0.00     0.246 C 
ATOM     16  H   UNL d   1      30.035 -16.305   1.730  0.00  0.00     0.279 HD
ENDROOT
BRANCH   5  17
ATOM     17  N   UNL d   1      29.977 -15.263  -1.859  0.00  0.00    -0.262 NA
ATOM     18  C   UNL d   1      30.172 -14.589  -3.029  0.00  0.00     0.128 C 
BRANCH  18  19
ATOM     19  C   UNL d   1      29.354 -13.370  -4.316  0.00  0.00     0.014 C 
ATOM     20  C   UNL d   1      29.049 -14.125  -5.337  0.00  0.00     0.015 C 
ATOM     21  C   UNL d   1      28.147 -13.576  -6.271  0.00  0.00     0.001 C 
ATOM     22  C   UNL d   1      27.452 -12.323  -6.126  0.00  0.00     0.003 C 
ATOM     23  C   UNL d   1      27.606 -11.445  -5.095  0.00  0.00     0.037 C 
ATOM     24  C   UNL d   1      28.631 -11.839  -4.239  0.00  0.00     0.077 C 
BRANCH  24  25
ATOM     25  O   UNL d   1      28.773 -10.856  -3.193  0.00  0.00    -0.360 OA
ATOM     26  H   UNL d   1      27.968 -10.371  -2.892  0.00  0.00     0.217 HD
ENDBRANCH  24  25
ENDBRANCH  18  19
ENDBRANCH   5  17
BRANCH  13  27
ATOM     27  N   UNL d   1      27.141 -12.998  -0.004  0.00  0.00    -0.290 NA
ATOM     28  C   UNL d   1      27.697 -11.844  -0.085  0.00  0.00     0.125 C 
BRANCH  28  29
ATOM     29  C   UNL d   1      27.254 -10.772   0.780  0.00  0.00     0.014 A 
ATOM     30  C   UNL d   1      26.989 -11.036   2.123  0.00  0.00     0.015 A 
ATOM     31  C   UNL d   1      26.376 -10.053   2.884  0.00  0.00     0.001 A 
ATOM     32  C   UNL d   1      26.153  -8.791   2.328  0.00  0.00     0.003 A 
ATOM     33  C   UNL d   1      26.542  -8.506   1.012  0.00  0.00     0.037 A 
ATOM     34  C   UNL d   1      27.031  -9.525   0.212  0.00  0.00     0.077 A 
BRANCH  34  35
ATOM     35  O   UNL d   1      27.242  -9.349  -1.128  0.00  0.00    -0.360 OA
ATOM     36  H   UNL d   1      28.030  -9.852  -1.397  0.00  0.00     0.217 HD
ENDBRANCH  34  35
ENDBRANCH  28  29
ENDBRANCH  13  27
TORSDOF 6
ENDMDL
MODEL 9
REMARK VINA RESULT:    -6.554      3.583      5.557
REMARK INTER + INTRA:         -11.680
REMARK INTER:                  -8.343
REMARK INTRA:                  -3.336
REMARK CONF_INDEPENDENT:        1.790
REMARK UNBOUND:                -3.336
REMARK  6 active torsions:
REMARK  status: ('A' for Active; 'I' for Inactive)
REMARK    1  A    between atoms: C_5  and  N_6 
REMARK    2  A    between atoms: C_7  and  C_8 
REMARK    3  A    between atoms: C_13  and  O_14 
REMARK    4  A    between atoms: C_22  and  N_23 
REMARK    5  A    between atoms: C_24  and  C_25 
REMARK    6  A    between atoms: C_30  and  O_31 
ROOT
ATOM      1  C   UNL d   1      30.744 -14.591   0.296  0.00  0.00     0.269 C 
ATOM      2  N   UNL d   1      30.951 -16.545   0.626  0.00  0.00    -0.074 N 
ATOM      3  C   UNL d   1      32.545 -17.624   0.908  0.00  0.00     0.239 C 
ATOM      4  C   UNL d   1      32.855 -18.608  -0.173  0.00  0.00     0.091 C 
ATOM      5  C   UNL d   1      31.954 -18.230  -1.276  0.00  0.00     0.169 C 
ATOM      6  O   UNL d   1      32.129 -19.391  -2.182  0.00  0.00    -0.317 OA
ATOM      7  C   UNL d   1      31.487 -19.344  -3.391  0.00  0.00     0.080 C 
ATOM      8  C   UNL d   1      31.713 -20.327  -4.352  0.00  0.00     0.037 C 
ATOM      9  C   UNL d   1      31.171 -20.177  -5.641  0.00  0.00     0.003 C 
ATOM     10  C   UNL d   1      30.405 -19.061  -5.971  0.00  0.00     0.001 C 
ATOM     11  C   UNL d   1      30.137 -18.124  -4.997  0.00  0.00     0.012 C 
ATOM     12  C   UNL d   1      30.614 -18.314  -3.699  0.00  0.00     0.001 C 
ATOM     13  C   UNL d   1      30.176 -17.386  -2.622  0.00  0.00     0.153 C 
ATOM     14  C   UNL d   1      30.420 -18.023  -1.218  0.00  0.00     0.099 C 
ATOM     15  C   UNL d   1      29.883 -17.093  -0.191  0.00  0.00     0.246 C 
ATOM     16  H   UNL d   1      30.590 -16.674   1.590  0.00  0.00     0.279 HD
ENDROOT
BRANCH   5  17
ATOM     17  N   UNL d   1      32.682 -16.860  -1.502  0.00  0.00    -0.262 NA
ATOM     18  C   UNL d   1      33.311 -16.519  -2.664  0.00  0.00     0.128 C 
BRANCH  18  19
ATOM     19  C   UNL d   1      33.160 -16.517  -4.610  0.00  0.00     0.014 C 
ATOM     20  C   UNL d   1      33.978 -17.455  -5.005  0.00  0.00     0.015 C 
ATOM     21  C   UNL d   1      33.822 -17.899  -6.334  0.00  0.00     0.001 C 
ATOM     22  C   UNL d   1      32.771 -17.496  -7.232  0.00  0.00     0.003 C 
ATOM     23  C   UNL d   1      31.802 -16.578  -6.959  0.00  0.00     0.037 C 
ATOM     24  C   UNL d   1      32.020 -15.957  -5.732  0.00  0.00     0.077 C 
BRANCH  24  25
ATOM     25  O   UNL d   1      30.989 -14.972  -5.515  0.00  0.00    -0.360 OA
ATOM     26  H   UNL d   1      30.088 -15.283  -5.259  0.00  0.00     0.217 HD
ENDBRANCH  24  25
ENDBRANCH  18  19
ENDBRANCH   5  17
BRANCH  13  27
ATOM     27  N   UNL d   1      28.813 -16.871  -2.783  0.00  0.00    -0.290 NA
ATOM     28  C   UNL d   1      28.776 -15.655  -3.193  0.00  0.00     0.125 C 
BRANCH  28  29
ATOM     29  C   UNL d   1      27.500 -15.021  -3.442  0.00  0.00     0.014 A 
ATOM     30  C   UNL d   1      26.662 -14.715  -2.371  0.00  0.00     0.015 A 
ATOM     31  C   UNL d   1      25.368 -14.296  -2.639  0.00  0.00     0.001 A 
ATOM     32  C   UNL d   1      24.976 -14.075  -3.961  0.00  0.00     0.003 A 
ATOM     33  C   UNL d   1      25.874 -14.268  -5.020  0.00  0.00     0.037 A 
ATOM     34  C   UNL d   1      27.121 -14.812  -4.762  0.00  0.00     0.077 A 
BRANCH  34  35
ATOM     35  O   UNL d   1      27.959 -15.200  -5.771  0.00  0.00    -0.360 OA
ATOM     36  H   UNL d   1      28.826 -14.776  -5.648  0.00  0.00     0.217 HD
ENDBRANCH  34  35
ENDBRANCH  28  29
ENDBRANCH  13  27
TORSDOF 6
ENDMDL
