MODEL 1
REMARK VINA RESULT:    -9.299      0.000      0.000
REMARK INTER + INTRA:         -11.155
REMARK INTER:                 -10.791
REMARK INTRA:                  -0.364
REMARK CONF_INDEPENDENT:        1.492
REMARK UNBOUND:                -0.364
REMARK  5 active torsions:
REMARK  status: ('A' for Active; 'I' for Inactive)
REMARK       I    between atoms: N_2  and  C_3 
REMARK       I    between atoms: C_3  and  N_5 
REMARK       I    between atoms: N_5  and  C_6 
REMARK    1  A    between atoms: C_6  and  C_8 
REMARK    2  A    between atoms: C_8  and  N_9 
REMARK    3  A    between atoms: N_9  and  C_10 
REMARK    4  A    between atoms: C_13  and  C_14 
REMARK       I    between atoms: C_14  and  N_16 
REMARK    5  A    between atoms: N_16  and  C_17 
ROOT
ATOM      1  C   UNL d   1      24.616 -16.921  -0.858  0.00  0.00     0.028 A 
ATOM      2  C   UNL d   1      23.326 -16.415  -1.078  0.00  0.00     0.030 A 
ATOM      3  C   UNL d   1      22.179 -17.212  -0.895  0.00  0.00     0.019 A 
ATOM      4  C   UNL d   1      22.293 -18.564  -0.537  0.00  0.00     0.032 A 
ATOM      5  C   UNL d   1      23.573 -19.070  -0.304  0.00  0.00     0.019 A 
ATOM      6  C   UNL d   1      24.711 -18.258  -0.471  0.00  0.00     0.030 A 
ENDROOT
BRANCH   1   7
ATOM      7  N   UNL d   1      25.717 -16.108  -1.055  0.00  0.00    -0.381 N 
ATOM      8  H   UNL d   1      26.635 -16.564  -1.031  0.00  0.00     0.160 HD
BRANCH   7   9
ATOM      9  C   UNL d   1      25.710 -14.783  -1.706  0.00  0.00     0.223 C 
BRANCH   9  10
ATOM     10  C   UNL d   1      26.046 -14.917  -3.220  0.00  0.00     0.243 C 
ATOM     11  N   UNL d   1      27.388 -15.099  -3.575  0.00  0.00    -0.278 N 
ATOM     12  C   UNL d   1      27.785 -15.236  -4.894  0.00  0.00     0.322 C 
ATOM     13  H   UNL d   1      28.092 -15.150  -2.857  0.00  0.00     0.173 HD
ATOM     14  N   UNL d   1      29.138 -15.416  -5.109  0.00  0.00    -0.347 N 
ATOM     15  O   UNL d   1      27.023 -15.201  -5.860  0.00  0.00    -0.247 OA
ATOM     16  C   UNL d   1      29.617 -15.566  -6.479  0.00  0.00     0.151 C 
ATOM     17  H   UNL d   1      29.817 -15.458  -4.364  0.00  0.00     0.163 HD
ATOM     18  O   UNL d   1      25.122 -14.838  -4.036  0.00  0.00    -0.271 OA
ENDBRANCH   9  10
ENDBRANCH   7   9
ENDBRANCH   1   7
BRANCH   4  19
ATOM     19  C   UNL d   1      21.049 -19.404  -0.477  0.00  0.00     0.251 C 
ATOM     20  O   UNL d   1      20.460 -19.676  -1.524  0.00  0.00    -0.268 OA
ATOM     21  N   UNL d   1      20.631 -19.882   0.756  0.00  0.00    -0.353 N 
ATOM     22  H   UNL d   1      21.122 -19.628   1.598  0.00  0.00     0.163 HD
BRANCH  21  23
ATOM     23  C   UNL d   1      19.475 -20.769   0.900  0.00  0.00     0.076 C 
ATOM     24  C   UNL d   1      18.851 -20.656   2.292  0.00  0.00     0.032 C 
ATOM     25  C   UNL d   1      18.403 -20.451  -0.147  0.00  0.00     0.032 C 
ENDBRANCH  21  23
ENDBRANCH   4  19
TORSDOF 5
ENDMDL
MODEL 2
REMARK VINA RESULT:    -9.235      3.716      5.116
REMARK INTER + INTRA:         -11.171
REMARK INTER:                 -10.726
REMARK INTRA:                  -0.444
REMARK CONF_INDEPENDENT:        1.492
REMARK UNBOUND:                -0.444
REMARK  5 active torsions:
REMARK  status: ('A' for Active; 'I' for Inactive)
REMARK       I    between atoms: N_2  and  C_3 
REMARK       I    between atoms: C_3  and  N_5 
REMARK       I    between atoms: N_5  and  C_6 
REMARK    1  A    between atoms: C_6  and  C_8 
REMARK    2  A    between atoms: C_8  and  N_9 
REMARK    3  A    between atoms: N_9  and  C_10 
REMARK    4  A    between atoms: C_13  and  C_14 
REMARK       I    between atoms: C_14  and  N_16 
REMARK    5  A    between atoms: N_16  and  C_17 
ROOT
ATOM      1  C   UNL d   1      25.983 -16.904  -0.470  0.00  0.00     0.028 A 
ATOM      2  C   UNL d   1      25.604 -18.110   0.139  0.00  0.00     0.030 A 
ATOM      3  C   UNL d   1      24.274 -18.571   0.099  0.00  0.00     0.019 A 
ATOM      4  C   UNL d   1      23.267 -17.807  -0.509  0.00  0.00     0.032 A 
ATOM      5  C   UNL d   1      23.640 -16.613  -1.129  0.00  0.00     0.019 A 
ATOM      6  C   UNL d   1      24.976 -16.172  -1.099  0.00  0.00     0.030 A 
ENDROOT
BRANCH   1   7
ATOM      7  N   UNL d   1      27.299 -16.483  -0.402  0.00  0.00    -0.381 N 
ATOM      8  H   UNL d   1      28.010 -17.145  -0.731  0.00  0.00     0.160 HD
BRANCH   7   9
ATOM      9  C   UNL d   1      27.758 -15.082  -0.324  0.00  0.00     0.223 C 
BRANCH   9  10
ATOM     10  C   UNL d   1      27.430 -14.478   1.073  0.00  0.00     0.243 C 
ATOM     11  N   UNL d   1      28.174 -14.929   2.169  0.00  0.00    -0.278 N 
ATOM     12  C   UNL d   1      27.961 -14.446   3.449  0.00  0.00     0.322 C 
ATOM     13  H   UNL d   1      28.900 -15.614   2.032  0.00  0.00     0.173 HD
ATOM     14  N   UNL d   1      28.768 -14.970   4.440  0.00  0.00    -0.347 N 
ATOM     15  O   UNL d   1      27.114 -13.604   3.745  0.00  0.00    -0.247 OA
ATOM     16  C   UNL d   1      28.590 -14.500   5.810  0.00  0.00     0.151 C 
ATOM     17  H   UNL d   1      29.484 -15.659   4.267  0.00  0.00     0.163 HD
ATOM     18  O   UNL d   1      26.520 -13.646   1.153  0.00  0.00    -0.271 OA
ENDBRANCH   9  10
ENDBRANCH   7   9
ENDBRANCH   1   7
BRANCH   4  19
ATOM     19  C   UNL d   1      21.844 -18.280  -0.417  0.00  0.00     0.251 C 
ATOM     20  O   UNL d   1      20.951 -17.586  -0.903  0.00  0.00    -0.268 OA
ATOM     21  N   UNL d   1      21.590 -19.508   0.176  0.00  0.00    -0.353 N 
ATOM     22  H   UNL d   1      22.338 -20.046   0.582  0.00  0.00     0.163 HD
BRANCH  21  23
ATOM     23  C   UNL d   1      20.244 -20.082   0.243  0.00  0.00     0.076 C 
ATOM     24  C   UNL d   1      19.499 -19.619   1.495  0.00  0.00     0.032 C 
ATOM     25  C   UNL d   1      19.421 -19.698  -0.991  0.00  0.00     0.032 C 
ENDBRANCH  21  23
ENDBRANCH   4  19
TORSDOF 5
ENDMDL
MODEL 3
REMARK VINA RESULT:    -8.996      3.338      4.606
REMARK INTER + INTRA:         -11.116
REMARK INTER:                 -10.487
REMARK INTRA:                  -0.628
REMARK CONF_INDEPENDENT:        1.492
REMARK UNBOUND:                -0.628
REMARK  5 active torsions:
REMARK  status: ('A' for Active; 'I' for Inactive)
REMARK       I    between atoms: N_2  and  C_3 
REMARK       I    between atoms: C_3  and  N_5 
REMARK       I    between atoms: N_5  and  C_6 
REMARK    1  A    between atoms: C_6  and  C_8 
REMARK    2  A    between atoms: C_8  and  N_9 
REMARK    3  A    between atoms: N_9  and  C_10 
REMARK    4  A    between atoms: C_13  and  C_14 
REMARK       I    between atoms: C_14  and  N_16 
REMARK    5  A    between atoms: N_16  and  C_17 
ROOT
ATOM      1  C   UNL d   1      24.592 -16.832  -0.817  0.00  0.00     0.028 A 
ATOM      2  C   UNL d   1      23.285 -16.329  -0.892  0.00  0.00     0.030 A 
ATOM      3  C   UNL d   1      22.162 -17.164  -0.732  0.00  0.00     0.019 A 
ATOM      4  C   UNL d   1      22.315 -18.546  -0.546  0.00  0.00     0.032 A 
ATOM      5  C   UNL d   1      23.613 -19.051  -0.457  0.00  0.00     0.019 A 
ATOM      6  C   UNL d   1      24.728 -18.203  -0.599  0.00  0.00     0.030 A 
ENDROOT
BRANCH   1   7
ATOM      7  N   UNL d   1      25.668 -15.980  -0.985  0.00  0.00    -0.381 N 
ATOM      8  H   UNL d   1      25.467 -15.063  -1.399  0.00  0.00     0.160 HD
BRANCH   7   9
ATOM      9  C   UNL d   1      26.956 -16.056  -0.267  0.00  0.00     0.223 C 
BRANCH   9  10
ATOM     10  C   UNL d   1      27.030 -14.963   0.838  0.00  0.00     0.243 C 
ATOM     11  N   UNL d   1      27.860 -15.204   1.938  0.00  0.00    -0.278 N 
ATOM     12  C   UNL d   1      27.998 -14.289   2.968  0.00  0.00     0.322 C 
ATOM     13  H   UNL d   1      28.390 -16.060   1.986  0.00  0.00     0.173 HD
ATOM     14  N   UNL d   1      28.852 -14.648   3.993  0.00  0.00    -0.347 N 
ATOM     15  O   UNL d   1      27.414 -13.207   3.023  0.00  0.00    -0.247 OA
ATOM     16  C   UNL d   1      29.039 -13.723   5.106  0.00  0.00     0.151 C 
ATOM     17  H   UNL d   1      29.364 -15.517   4.010  0.00  0.00     0.163 HD
ATOM     18  O   UNL d   1      26.344 -13.944   0.703  0.00  0.00    -0.271 OA
ENDBRANCH   9  10
ENDBRANCH   7   9
ENDBRANCH   1   7
BRANCH   4  19
ATOM     19  C   UNL d   1      21.088 -19.411  -0.507  0.00  0.00     0.251 C 
ATOM     20  O   UNL d   1      20.526 -19.700  -1.565  0.00  0.00    -0.268 OA
ATOM     21  N   UNL d   1      20.654 -19.893   0.719  0.00  0.00    -0.353 N 
ATOM     22  H   UNL d   1      21.122 -19.625   1.569  0.00  0.00     0.163 HD
BRANCH  21  23
ATOM     23  C   UNL d   1      19.514 -20.803   0.844  0.00  0.00     0.076 C 
ATOM     24  C   UNL d   1      18.927 -20.776   2.255  0.00  0.00     0.032 C 
ATOM     25  C   UNL d   1      18.410 -20.442  -0.156  0.00  0.00     0.032 C 
ENDBRANCH  21  23
ENDBRANCH   4  19
TORSDOF 5
ENDMDL
MODEL 4
REMARK VINA RESULT:    -8.437      1.685      2.485
REMARK INTER + INTRA:         -10.321
REMARK INTER:                  -9.928
REMARK INTRA:                  -0.392
REMARK CONF_INDEPENDENT:        1.492
REMARK UNBOUND:                -0.392
REMARK  5 active torsions:
REMARK  status: ('A' for Active; 'I' for Inactive)
REMARK       I    between atoms: N_2  and  C_3 
REMARK       I    between atoms: C_3  and  N_5 
REMARK       I    between atoms: N_5  and  C_6 
REMARK    1  A    between atoms: C_6  and  C_8 
REMARK    2  A    between atoms: C_8  and  N_9 
REMARK    3  A    between atoms: N_9  and  C_10 
REMARK    4  A    between atoms: C_13  and  C_14 
REMARK       I    between atoms: C_14  and  N_16 
REMARK    5  A    between atoms: N_16  and  C_17 
ROOT
ATOM      1  C   UNL d   1      24.581 -16.859  -0.854  0.00  0.00     0.028 A 
ATOM      2  C   UNL d   1      24.646 -18.256  -0.746  0.00  0.00     0.030 A 
ATOM      3  C   UNL d   1      23.482 -19.049  -0.708  0.00  0.00     0.019 A 
ATOM      4  C   UNL d   1      22.210 -18.458  -0.721  0.00  0.00     0.032 A 
ATOM      5  C   UNL d   1      22.138 -17.069  -0.841  0.00  0.00     0.019 A 
ATOM      6  C   UNL d   1      23.308 -16.289  -0.898  0.00  0.00     0.030 A 
ENDROOT
BRANCH   1   7
ATOM      7  N   UNL d   1      25.747 -16.116  -0.882  0.00  0.00    -0.381 N 
ATOM      8  H   UNL d   1      26.163 -15.881   0.025  0.00  0.00     0.160 HD
BRANCH   7   9
ATOM      9  C   UNL d   1      26.671 -15.996  -2.027  0.00  0.00     0.223 C 
BRANCH   9  10
ATOM     10  C   UNL d   1      26.102 -15.005  -3.085  0.00  0.00     0.243 C 
ATOM     11  N   UNL d   1      26.260 -13.636  -2.845  0.00  0.00    -0.278 N 
ATOM     12  C   UNL d   1      25.795 -12.678  -3.730  0.00  0.00     0.322 C 
ATOM     13  H   UNL d   1      26.738 -13.326  -2.015  0.00  0.00     0.173 HD
ATOM     14  N   UNL d   1      26.020 -11.361  -3.377  0.00  0.00    -0.347 N 
ATOM     15  O   UNL d   1      25.204 -12.926  -4.781  0.00  0.00    -0.247 OA
ATOM     16  C   UNL d   1      25.552 -10.306  -4.271  0.00  0.00     0.151 C 
ATOM     17  H   UNL d   1      26.500 -11.087  -2.534  0.00  0.00     0.163 HD
ATOM     18  O   UNL d   1      25.525 -15.470  -4.074  0.00  0.00    -0.271 OA
ENDBRANCH   9  10
ENDBRANCH   7   9
ENDBRANCH   1   7
BRANCH   4  19
ATOM     19  C   UNL d   1      21.003 -19.336  -0.551  0.00  0.00     0.251 C 
ATOM     20  O   UNL d   1      20.383 -19.700  -1.552  0.00  0.00    -0.268 OA
ATOM     21  N   UNL d   1      20.651 -19.741   0.728  0.00  0.00    -0.353 N 
ATOM     22  H   UNL d   1      21.165 -19.412   1.529  0.00  0.00     0.163 HD
BRANCH  21  23
ATOM     23  C   UNL d   1      19.536 -20.656   0.980  0.00  0.00     0.076 C 
ATOM     24  C   UNL d   1      18.964 -20.468   2.386  0.00  0.00     0.032 C 
ATOM     25  C   UNL d   1      18.413 -20.449  -0.041  0.00  0.00     0.032 C 
ENDBRANCH  21  23
ENDBRANCH   4  19
TORSDOF 5
ENDMDL
MODEL 5
REMARK VINA RESULT:    -7.847      3.522      3.816
REMARK INTER + INTRA:          -9.942
REMARK INTER:                  -9.339
REMARK INTRA:                  -0.603
REMARK CONF_INDEPENDENT:        1.492
REMARK UNBOUND:                -0.603
REMARK  5 active torsions:
REMARK  status: ('A' for Active; 'I' for Inactive)
REMARK       I    between atoms: N_2  and  C_3 
REMARK       I    between atoms: C_3  and  N_5 
REMARK       I    between atoms: N_5  and  C_6 
REMARK    1  A    between atoms: C_6  and  C_8 
REMARK    2  A    between atoms: C_8  and  N_9 
REMARK    3  A    between atoms: N_9  and  C_10 
REMARK    4  A    between atoms: C_13  and  C_14 
REMARK       I    between atoms: C_14  and  N_16 
REMARK    5  A    between atoms: N_16  and  C_17 
ROOT
ATOM      1  C   UNL d   1      26.224 -17.012  -0.205  0.00  0.00     0.028 A 
ATOM      2  C   UNL d   1      25.826 -18.160   0.497  0.00  0.00     0.030 A 
ATOM      3  C   UNL d   1      24.603 -18.804   0.227  0.00  0.00     0.019 A 
ATOM      4  C   UNL d   1      23.711 -18.283  -0.722  0.00  0.00     0.032 A 
ATOM      5  C   UNL d   1      24.107 -17.149  -1.434  0.00  0.00     0.019 A 
ATOM      6  C   UNL d   1      25.340 -16.526  -1.169  0.00  0.00     0.030 A 
ENDROOT
BRANCH   1   7
ATOM      7  N   UNL d   1      27.430 -16.406   0.095  0.00  0.00    -0.381 N 
ATOM      8  H   UNL d   1      27.888 -16.701   0.963  0.00  0.00     0.160 HD
BRANCH   7   9
ATOM      9  C   UNL d   1      28.322 -15.727  -0.866  0.00  0.00     0.223 C 
BRANCH   9  10
ATOM     10  C   UNL d   1      29.273 -16.754  -1.548  0.00  0.00     0.243 C 
ATOM     11  N   UNL d   1      29.818 -17.766  -0.749  0.00  0.00    -0.278 N 
ATOM     12  C   UNL d   1      30.668 -18.729  -1.265  0.00  0.00     0.322 C 
ATOM     13  H   UNL d   1      29.580 -17.814   0.228  0.00  0.00     0.173 HD
ATOM     14  N   UNL d   1      31.132 -19.675  -0.371  0.00  0.00    -0.347 N 
ATOM     15  O   UNL d   1      31.027 -18.786  -2.440  0.00  0.00    -0.247 OA
ATOM     16  C   UNL d   1      32.032 -20.716  -0.856  0.00  0.00     0.151 C 
ATOM     17  H   UNL d   1      30.876 -19.690   0.605  0.00  0.00     0.163 HD
ATOM     18  O   UNL d   1      29.516 -16.621  -2.752  0.00  0.00    -0.271 OA
ENDBRANCH   9  10
ENDBRANCH   7   9
ENDBRANCH   1   7
BRANCH   4  19
ATOM     19  C   UNL d   1      22.366 -18.933  -0.885  0.00  0.00     0.251 C 
ATOM     20  O   UNL d   1      21.949 -19.166  -2.020  0.00  0.00    -0.268 OA
ATOM     21  N   UNL d   1      21.658 -19.287   0.254  0.00  0.00    -0.353 N 
ATOM     22  H   UNL d   1      22.016 -19.066   1.169  0.00  0.00     0.163 HD
BRANCH  21  23
ATOM     23  C   UNL d   1      20.376 -19.991   0.191  0.00  0.00     0.076 C 
ATOM     24  C   UNL d   1      19.690 -20.031   1.557  0.00  0.00     0.032 C 
ATOM     25  C   UNL d   1      19.432 -19.325  -0.815  0.00  0.00     0.032 C 
ENDBRANCH  21  23
ENDBRANCH   4  19
TORSDOF 5
ENDMDL
MODEL 6
REMARK VINA RESULT:    -7.815      4.091      4.885
REMARK INTER + INTRA:         -10.319
REMARK INTER:                  -9.306
REMARK INTRA:                  -1.013
REMARK CONF_INDEPENDENT:        1.492
REMARK UNBOUND:                -1.013
REMARK  5 active torsions:
REMARK  status: ('A' for Active; 'I' for Inactive)
REMARK       I    between atoms: N_2  and  C_3 
REMARK       I    between atoms: C_3  and  N_5 
REMARK       I    between atoms: N_5  and  C_6 
REMARK    1  A    between atoms: C_6  and  C_8 
REMARK    2  A    between atoms: C_8  and  N_9 
REMARK    3  A    between atoms: N_9  and  C_10 
REMARK    4  A    between atoms: C_13  and  C_14 
REMARK       I    between atoms: C_14  and  N_16 
REMARK    5  A    between atoms: N_16  and  C_17 
ROOT
ATOM      1  C   UNL d   1      25.920 -16.616  -0.356  0.00  0.00     0.028 A 
ATOM      2  C   UNL d   1      24.841 -16.170  -1.134  0.00  0.00     0.030 A 
ATOM      3  C   UNL d   1      23.639 -16.900  -1.215  0.00  0.00     0.019 A 
ATOM      4  C   UNL d   1      23.501 -18.133  -0.560  0.00  0.00     0.032 A 
ATOM      5  C   UNL d   1      24.566 -18.575   0.227  0.00  0.00     0.019 A 
ATOM      6  C   UNL d   1      25.755 -17.827   0.316  0.00  0.00     0.030 A 
ENDROOT
BRANCH   1   7
ATOM      7  N   UNL d   1      27.085 -15.873  -0.308  0.00  0.00    -0.381 N 
ATOM      8  H   UNL d   1      27.080 -14.978  -0.808  0.00  0.00     0.160 HD
BRANCH   7   9
ATOM      9  C   UNL d   1      28.155 -16.002   0.702  0.00  0.00     0.223 C 
BRANCH   9  10
ATOM     10  C   UNL d   1      28.582 -14.599   1.226  0.00  0.00     0.243 C 
ATOM     11  N   UNL d   1      29.586 -14.546   2.200  0.00  0.00    -0.278 N 
ATOM     12  C   UNL d   1      30.038 -13.347   2.722  0.00  0.00     0.322 C 
ATOM     13  H   UNL d   1      30.011 -15.399   2.526  0.00  0.00     0.173 HD
ATOM     14  N   UNL d   1      31.037 -13.433   3.672  0.00  0.00    -0.347 N 
ATOM     15  O   UNL d   1      29.608 -12.239   2.401  0.00  0.00    -0.247 OA
ATOM     16  C   UNL d   1      31.554 -12.201   4.260  0.00  0.00     0.151 C 
ATOM     17  H   UNL d   1      31.437 -14.306   3.979  0.00  0.00     0.163 HD
ATOM     18  O   UNL d   1      28.006 -13.604   0.776  0.00  0.00    -0.271 OA
ENDBRANCH   9  10
ENDBRANCH   7   9
ENDBRANCH   1   7
BRANCH   4  19
ATOM     19  C   UNL d   1      22.248 -18.933  -0.778  0.00  0.00     0.251 C 
ATOM     20  O   UNL d   1      21.955 -19.284  -1.922  0.00  0.00    -0.268 OA
ATOM     21  N   UNL d   1      21.486 -19.287   0.325  0.00  0.00    -0.353 N 
ATOM     22  H   UNL d   1      21.741 -18.970   1.247  0.00  0.00     0.163 HD
BRANCH  21  23
ATOM     23  C   UNL d   1      20.293 -20.128   0.215  0.00  0.00     0.076 C 
ATOM     24  C   UNL d   1      19.595 -20.291   1.566  0.00  0.00     0.032 C 
ATOM     25  C   UNL d   1      19.295 -19.539  -0.787  0.00  0.00     0.032 C 
ENDBRANCH  21  23
ENDBRANCH   4  19
TORSDOF 5
ENDMDL
MODEL 7
REMARK VINA RESULT:    -7.532      1.601      1.967
REMARK INTER + INTRA:          -9.511
REMARK INTER:                  -9.023
REMARK INTRA:                  -0.487
REMARK CONF_INDEPENDENT:        1.492
REMARK UNBOUND:                -0.487
REMARK  5 active torsions:
REMARK  status: ('A' for Active; 'I' for Inactive)
REMARK       I    between atoms: N_2  and  C_3 
REMARK       I    between atoms: C_3  and  N_5 
REMARK       I    between atoms: N_5  and  C_6 
REMARK    1  A    between atoms: C_6  and  C_8 
REMARK    2  A    between atoms: C_8  and  N_9 
REMARK    3  A    between atoms: N_9  and  C_10 
REMARK    4  A    between atoms: C_13  and  C_14 
REMARK       I    between atoms: C_14  and  N_16 
REMARK    5  A    between atoms: N_16  and  C_17 
ROOT
ATOM      1  C   UNL d   1      25.733 -16.988  -0.796  0.00  0.00     0.028 A 
ATOM      2  C   UNL d   1      25.398 -18.208  -0.191  0.00  0.00     0.030 A 
ATOM      3  C   UNL d   1      24.067 -18.666  -0.138  0.00  0.00     0.019 A 
ATOM      4  C   UNL d   1      23.018 -17.884  -0.645  0.00  0.00     0.032 A 
ATOM      5  C   UNL d   1      23.346 -16.675  -1.261  0.00  0.00     0.019 A 
ATOM      6  C   UNL d   1      24.682 -16.238  -1.324  0.00  0.00     0.030 A 
ENDROOT
BRANCH   1   7
ATOM      7  N   UNL d   1      27.051 -16.572  -0.821  0.00  0.00    -0.381 N 
ATOM      8  H   UNL d   1      27.764 -17.296  -0.685  0.00  0.00     0.160 HD
BRANCH   7   9
ATOM      9  C   UNL d   1      27.556 -15.326  -1.431  0.00  0.00     0.223 C 
BRANCH   9  10
ATOM     10  C   UNL d   1      28.069 -15.595  -2.876  0.00  0.00     0.243 C 
ATOM     11  N   UNL d   1      27.902 -14.581  -3.826  0.00  0.00    -0.278 N 
ATOM     12  C   UNL d   1      28.332 -14.724  -5.134  0.00  0.00     0.322 C 
ATOM     13  H   UNL d   1      27.472 -13.711  -3.558  0.00  0.00     0.173 HD
ATOM     14  N   UNL d   1      28.112 -13.645  -5.970  0.00  0.00    -0.347 N 
ATOM     15  O   UNL d   1      28.879 -15.730  -5.583  0.00  0.00    -0.247 OA
ATOM     16  C   UNL d   1      28.544 -13.737  -7.361  0.00  0.00     0.151 C 
ATOM     17  H   UNL d   1      27.673 -12.790  -5.667  0.00  0.00     0.163 HD
ATOM     18  O   UNL d   1      28.581 -16.692  -3.122  0.00  0.00    -0.271 OA
ENDBRANCH   9  10
ENDBRANCH   7   9
ENDBRANCH   1   7
BRANCH   4  19
ATOM     19  C   UNL d   1      21.605 -18.357  -0.454  0.00  0.00     0.251 C 
ATOM     20  O   UNL d   1      20.681 -17.674  -0.898  0.00  0.00    -0.268 OA
ATOM     21  N   UNL d   1      21.391 -19.571   0.181  0.00  0.00    -0.353 N 
ATOM     22  H   UNL d   1      22.165 -20.099   0.551  0.00  0.00     0.163 HD
BRANCH  21  23
ATOM     23  C   UNL d   1      20.054 -20.145   0.344  0.00  0.00     0.076 C 
ATOM     24  C   UNL d   1      19.421 -19.724   1.671  0.00  0.00     0.032 C 
ATOM     25  C   UNL d   1      19.129 -19.718  -0.800  0.00  0.00     0.032 C 
ENDBRANCH  21  23
ENDBRANCH   4  19
TORSDOF 5
ENDMDL
MODEL 8
REMARK VINA RESULT:    -7.328      3.408      9.143
REMARK INTER + INTRA:          -9.950
REMARK INTER:                  -8.819
REMARK INTRA:                  -1.130
REMARK CONF_INDEPENDENT:        1.492
REMARK UNBOUND:                -1.130
REMARK  5 active torsions:
REMARK  status: ('A' for Active; 'I' for Inactive)
REMARK       I    between atoms: N_2  and  C_3 
REMARK       I    between atoms: C_3  and  N_5 
REMARK       I    between atoms: N_5  and  C_6 
REMARK    1  A    between atoms: C_6  and  C_8 
REMARK    2  A    between atoms: C_8  and  N_9 
REMARK    3  A    between atoms: N_9  and  C_10 
REMARK    4  A    between atoms: C_13  and  C_14 
REMARK       I    between atoms: C_14  and  N_16 
REMARK    5  A    between atoms: N_16  and  C_17 
ROOT
ATOM      1  C   UNL d   1      25.032 -17.265  -0.783  0.00  0.00     0.028 A 
ATOM      2  C   UNL d   1      25.930 -17.942   0.056  0.00  0.00     0.030 A 
ATOM      3  C   UNL d   1      27.318 -17.708  -0.005  0.00  0.00     0.019 A 
ATOM      4  C   UNL d   1      27.856 -16.821  -0.950  0.00  0.00     0.032 A 
ATOM      5  C   UNL d   1      26.966 -16.134  -1.778  0.00  0.00     0.019 A 
ATOM      6  C   UNL d   1      25.580 -16.363  -1.695  0.00  0.00     0.030 A 
ENDROOT
BRANCH   1   7
ATOM      7  N   UNL d   1      23.678 -17.529  -0.696  0.00  0.00    -0.381 N 
ATOM      8  H   UNL d   1      23.109 -17.286  -1.514  0.00  0.00     0.160 HD
BRANCH   7   9
ATOM      9  C   UNL d   1      23.038 -18.485   0.230  0.00  0.00     0.223 C 
BRANCH   9  10
ATOM     10  C   UNL d   1      21.600 -18.834  -0.254  0.00  0.00     0.243 C 
ATOM     11  N   UNL d   1      20.890 -19.804   0.462  0.00  0.00    -0.278 N 
ATOM     12  C   UNL d   1      19.603 -20.177   0.114  0.00  0.00     0.322 C 
ATOM     13  H   UNL d   1      21.311 -20.239   1.267  0.00  0.00     0.173 HD
ATOM     14  N   UNL d   1      19.012 -21.141   0.907  0.00  0.00    -0.347 N 
ATOM     15  O   UNL d   1      18.976 -19.714  -0.838  0.00  0.00    -0.247 OA
ATOM     16  C   UNL d   1      17.655 -21.575   0.589  0.00  0.00     0.151 C 
ATOM     17  H   UNL d   1      19.466 -21.559   1.704  0.00  0.00     0.163 HD
ATOM     18  O   UNL d   1      21.161 -18.256  -1.253  0.00  0.00    -0.271 OA
ENDBRANCH   9  10
ENDBRANCH   7   9
ENDBRANCH   1   7
BRANCH   4  19
ATOM     19  C   UNL d   1      29.349 -16.699  -1.060  0.00  0.00     0.251 C 
ATOM     20  O   UNL d   1      29.864 -16.658  -2.178  0.00  0.00    -0.268 OA
ATOM     21  N   UNL d   1      30.094 -16.591   0.105  0.00  0.00    -0.353 N 
ATOM     22  H   UNL d   1      29.646 -16.646   1.006  0.00  0.00     0.163 HD
BRANCH  21  23
ATOM     23  C   UNL d   1      31.544 -16.393   0.091  0.00  0.00     0.076 C 
ATOM     24  C   UNL d   1      32.101 -16.226   1.506  0.00  0.00     0.032 C 
ATOM     25  C   UNL d   1      32.254 -17.572  -0.582  0.00  0.00     0.032 C 
ENDBRANCH  21  23
ENDBRANCH   4  19
TORSDOF 5
ENDMDL
MODEL 9
REMARK VINA RESULT:    -7.169      1.397      9.161
REMARK INTER + INTRA:          -9.537
REMARK INTER:                  -8.660
REMARK INTRA:                  -0.877
REMARK CONF_INDEPENDENT:        1.492
REMARK UNBOUND:                -0.877
REMARK  5 active torsions:
REMARK  status: ('A' for Active; 'I' for Inactive)
REMARK       I    between atoms: N_2  and  C_3 
REMARK       I    between atoms: C_3  and  N_5 
REMARK       I    between atoms: N_5  and  C_6 
REMARK    1  A    between atoms: C_6  and  C_8 
REMARK    2  A    between atoms: C_8  and  N_9 
REMARK    3  A    between atoms: N_9  and  C_10 
REMARK    4  A    between atoms: C_13  and  C_14 
REMARK       I    between atoms: C_14  and  N_16 
REMARK    5  A    between atoms: N_16  and  C_17 
ROOT
ATOM      1  C   UNL d   1      25.392 -15.900  -1.719  0.00  0.00     0.028 A 
ATOM      2  C   UNL d   1      26.730 -16.323  -1.705  0.00  0.00     0.030 A 
ATOM      3  C   UNL d   1      27.609 -16.028  -2.765  0.00  0.00     0.019 A 
ATOM      4  C   UNL d   1      27.157 -15.343  -3.904  0.00  0.00     0.032 A 
ATOM      5  C   UNL d   1      25.831 -14.908  -3.918  0.00  0.00     0.019 A 
ATOM      6  C   UNL d   1      24.967 -15.192  -2.844  0.00  0.00     0.030 A 
ENDROOT
BRANCH   1   7
ATOM      7  N   UNL d   1      24.560 -16.216  -0.662  0.00  0.00    -0.381 N 
ATOM      8  H   UNL d   1      23.895 -15.493  -0.369  0.00  0.00     0.160 HD
BRANCH   7   9
ATOM      9  C   UNL d   1      24.224 -17.578  -0.199  0.00  0.00     0.223 C 
BRANCH   9  10
ATOM     10  C   UNL d   1      22.694 -17.836  -0.329  0.00  0.00     0.243 C 
ATOM     11  N   UNL d   1      22.190 -19.036   0.186  0.00  0.00    -0.278 N 
ATOM     12  C   UNL d   1      20.844 -19.353   0.125  0.00  0.00     0.322 C 
ATOM     13  H   UNL d   1      22.814 -19.689   0.632  0.00  0.00     0.173 HD
ATOM     14  N   UNL d   1      20.477 -20.565   0.676  0.00  0.00    -0.347 N 
ATOM     15  O   UNL d   1      19.981 -18.637  -0.384  0.00  0.00    -0.247 OA
ATOM     16  C   UNL d   1      19.071 -20.954   0.641  0.00  0.00     0.151 C 
ATOM     17  H   UNL d   1      21.131 -21.198   1.111  0.00  0.00     0.163 HD
ATOM     18  O   UNL d   1      22.001 -16.984  -0.894  0.00  0.00    -0.271 OA
ENDBRANCH   9  10
ENDBRANCH   7   9
ENDBRANCH   1   7
BRANCH   4  19
ATOM     19  C   UNL d   1      28.098 -15.162  -5.060  0.00  0.00     0.251 C 
ATOM     20  O   UNL d   1      27.650 -15.200  -6.207  0.00  0.00    -0.268 OA
ATOM     21  N   UNL d   1      29.437 -14.914  -4.795  0.00  0.00    -0.353 N 
ATOM     22  H   UNL d   1      29.778 -14.907  -3.847  0.00  0.00     0.163 HD
BRANCH  21  23
ATOM     23  C   UNL d   1      30.410 -14.651  -5.856  0.00  0.00     0.076 C 
ATOM     24  C   UNL d   1      30.561 -15.853  -6.790  0.00  0.00     0.032 C 
ATOM     25  C   UNL d   1      30.001 -13.431  -6.687  0.00  0.00     0.032 C 
ENDBRANCH  21  23
ENDBRANCH   4  19
TORSDOF 5
ENDMDL
