MODEL 1
REMARK VINA RESULT:    -8.541      0.000      0.000
REMARK INTER + INTRA:         -10.237
REMARK INTER:                  -9.734
REMARK INTRA:                  -0.503
REMARK CONF_INDEPENDENT:        1.193
REMARK UNBOUND:                -0.503
REMARK  4 active torsions:
REMARK  status: ('A' for Active; 'I' for Inactive)
REMARK    1  A    between atoms: C_2  and  C_3 
REMARK    2  A    between atoms: C_3  and  C_4 
REMARK       I    between atoms: C_4  and  N_6 
REMARK    3  A    between atoms: N_6  and  N_7 
REMARK       I    between atoms: N_7  and  C_8 
REMARK    4  A    between atoms: C_8  and  C_10 
ROOT
ATOM      1  N   UNL d   1      22.347 -19.400  -0.048  0.00  0.00    -0.267 N 
ATOM      2  C   UNL d   1      22.543 -18.164  -0.646  0.00  0.00     0.240 C 
ATOM      3  O   UNL d   1      21.595 -17.415  -0.895  0.00  0.00    -0.271 OA
ATOM      4  H   UNL d   1      23.097 -20.037   0.218  0.00  0.00     0.190 HD
ENDROOT
BRANCH   1   5
ATOM      5  N   UNL d   1      21.032 -19.785   0.353  0.00  0.00    -0.268 N 
ATOM      6  C   UNL d   1      20.042 -19.900  -0.610  0.00  0.00     0.236 C 
ATOM      7  O   UNL d   1      20.279 -19.700  -1.804  0.00  0.00    -0.272 OA
ATOM      8  H   UNL d   1      20.888 -19.941   1.350  0.00  0.00     0.190 HD
BRANCH   6   9
ATOM      9  C   UNL d   1      18.651 -20.284  -0.093  0.00  0.00     0.104 C 
BRANCH   9  10
ATOM     10  C   UNL d   1      18.732 -21.207   1.136  0.00  0.00     0.005 C 
ATOM     11  C   UNL d   1      18.889 -20.448   2.447  0.00  0.00     0.005 C 
ENDBRANCH   9  10
ENDBRANCH   6   9
ENDBRANCH   1   5
BRANCH   2  12
ATOM     12  C   UNL d   1      23.998 -17.806  -1.020  0.00  0.00     0.079 C 
ATOM     13  C   UNL d   1      24.128 -16.296  -1.298  0.00  0.00     0.014 C 
ATOM     14  C   UNL d   1      25.578 -15.852  -1.531  0.00  0.00     0.001 C 
ATOM     15  C   UNL d   1      26.491 -16.260  -0.380  0.00  0.00     0.000 C 
ATOM     16  C   UNL d   1      26.401 -17.761  -0.133  0.00  0.00     0.001 C 
ATOM     17  C   UNL d   1      24.956 -18.201   0.122  0.00  0.00     0.014 C 
ENDBRANCH   2  12
TORSDOF 4
ENDMDL
MODEL 2
REMARK VINA RESULT:    -8.125      1.004      1.636
REMARK INTER + INTRA:          -9.925
REMARK INTER:                  -9.319
REMARK INTRA:                  -0.607
REMARK CONF_INDEPENDENT:        1.193
REMARK UNBOUND:                -0.607
REMARK  4 active torsions:
REMARK  status: ('A' for Active; 'I' for Inactive)
REMARK    1  A    between atoms: C_2  and  C_3 
REMARK    2  A    between atoms: C_3  and  C_4 
REMARK       I    between atoms: C_4  and  N_6 
REMARK    3  A    between atoms: N_6  and  N_7 
REMARK       I    between atoms: N_7  and  C_8 
REMARK    4  A    between atoms: C_8  and  C_10 
ROOT
ATOM      1  N   UNL d   1      22.124 -18.512   0.565  0.00  0.00    -0.267 N 
ATOM      2  C   UNL d   1      23.104 -18.514  -0.415  0.00  0.00     0.240 C 
ATOM      3  O   UNL d   1      23.080 -19.324  -1.345  0.00  0.00    -0.271 OA
ATOM      4  H   UNL d   1      22.073 -17.839   1.329  0.00  0.00     0.190 HD
ENDROOT
BRANCH   1   5
ATOM      5  N   UNL d   1      21.025 -19.417   0.460  0.00  0.00    -0.268 N 
ATOM      6  C   UNL d   1      19.932 -19.062  -0.313  0.00  0.00     0.236 C 
ATOM      7  O   UNL d   1      19.900 -17.994  -0.930  0.00  0.00    -0.272 OA
ATOM      8  H   UNL d   1      21.101 -20.287   0.986  0.00  0.00     0.190 HD
BRANCH   6   9
ATOM      9  C   UNL d   1      18.781 -20.074  -0.346  0.00  0.00     0.104 C 
BRANCH   9  10
ATOM     10  C   UNL d   1      18.881 -21.091   0.805  0.00  0.00     0.005 C 
ATOM     11  C   UNL d   1      18.778 -20.449   2.182  0.00  0.00     0.005 C 
ENDBRANCH   9  10
ENDBRANCH   6   9
ENDBRANCH   1   5
BRANCH   2  12
ATOM     12  C   UNL d   1      24.243 -17.482  -0.249  0.00  0.00     0.079 C 
ATOM     13  C   UNL d   1      25.544 -18.180   0.190  0.00  0.00     0.014 C 
ATOM     14  C   UNL d   1      26.749 -17.230   0.229  0.00  0.00     0.001 C 
ATOM     15  C   UNL d   1      26.954 -16.513  -1.101  0.00  0.00     0.000 C 
ATOM     16  C   UNL d   1      25.682 -15.783  -1.515  0.00  0.00     0.001 C 
ATOM     17  C   UNL d   1      24.484 -16.735  -1.576  0.00  0.00     0.014 C 
ENDBRANCH   2  12
TORSDOF 4
ENDMDL
MODEL 3
REMARK VINA RESULT:    -7.635      1.593      6.630
REMARK INTER + INTRA:         -10.137
REMARK INTER:                  -8.828
REMARK INTRA:                  -1.309
REMARK CONF_INDEPENDENT:        1.193
REMARK UNBOUND:                -1.309
REMARK  4 active torsions:
REMARK  status: ('A' for Active; 'I' for Inactive)
REMARK    1  A    between atoms: C_2  and  C_3 
REMARK    2  A    between atoms: C_3  and  C_4 
REMARK       I    between atoms: C_4  and  N_6 
REMARK    3  A    between atoms: N_6  and  N_7 
REMARK       I    between atoms: N_7  and  C_8 
REMARK    4  A    between atoms: C_8  and  C_10 
ROOT
ATOM      1  N   UNL d   1      22.706 -18.715  -0.145  0.00  0.00    -0.267 N 
ATOM      2  C   UNL d   1      21.358 -18.780  -0.464  0.00  0.00     0.240 C 
ATOM      3  O   UNL d   1      20.848 -17.983  -1.256  0.00  0.00    -0.271 OA
ATOM      4  H   UNL d   1      23.185 -19.373   0.468  0.00  0.00     0.190 HD
ENDROOT
BRANCH   1   5
ATOM      5  N   UNL d   1      23.536 -17.753  -0.796  0.00  0.00    -0.268 N 
ATOM      6  C   UNL d   1      24.894 -17.740  -0.521  0.00  0.00     0.236 C 
ATOM      7  O   UNL d   1      25.401 -18.554   0.255  0.00  0.00    -0.272 OA
ATOM      8  H   UNL d   1      23.069 -17.105  -1.429  0.00  0.00     0.190 HD
BRANCH   6   9
ATOM      9  C   UNL d   1      25.708 -16.655  -1.236  0.00  0.00     0.104 C 
BRANCH   9  10
ATOM     10  C   UNL d   1      24.806 -15.689  -2.024  0.00  0.00     0.005 C 
ATOM     11  C   UNL d   1      25.529 -14.992  -3.168  0.00  0.00     0.005 C 
ENDBRANCH   9  10
ENDBRANCH   6   9
ENDBRANCH   1   5
BRANCH   2  12
ATOM     12  C   UNL d   1      20.533 -19.868   0.258  0.00  0.00     0.079 C 
ATOM     13  C   UNL d   1      20.293 -19.478   1.729  0.00  0.00     0.014 C 
ATOM     14  C   UNL d   1      19.356 -20.447   2.460  0.00  0.00     0.001 C 
ATOM     15  C   UNL d   1      18.026 -20.613   1.732  0.00  0.00     0.000 C 
ATOM     16  C   UNL d   1      18.258 -21.045   0.290  0.00  0.00     0.001 C 
ATOM     17  C   UNL d   1      19.176 -20.066  -0.448  0.00  0.00     0.014 C 
ENDBRANCH   2  12
TORSDOF 4
ENDMDL
MODEL 4
REMARK VINA RESULT:    -7.396      1.146      1.303
REMARK INTER + INTRA:          -9.942
REMARK INTER:                  -8.589
REMARK INTRA:                  -1.353
REMARK CONF_INDEPENDENT:        1.193
REMARK UNBOUND:                -1.353
REMARK  4 active torsions:
REMARK  status: ('A' for Active; 'I' for Inactive)
REMARK    1  A    between atoms: C_2  and  C_3 
REMARK    2  A    between atoms: C_3  and  C_4 
REMARK       I    between atoms: C_4  and  N_6 
REMARK    3  A    between atoms: N_6  and  N_7 
REMARK       I    between atoms: N_7  and  C_8 
REMARK    4  A    between atoms: C_8  and  C_10 
ROOT
ATOM      1  N   UNL d   1      22.473 -18.757  -0.866  0.00  0.00    -0.267 N 
ATOM      2  C   UNL d   1      23.621 -18.277  -0.254  0.00  0.00     0.240 C 
ATOM      3  O   UNL d   1      23.777 -18.356   0.968  0.00  0.00    -0.271 OA
ATOM      4  H   UNL d   1      22.313 -18.755  -1.872  0.00  0.00     0.190 HD
ENDROOT
BRANCH   1   5
ATOM      5  N   UNL d   1      21.483 -19.419  -0.079  0.00  0.00    -0.268 N 
ATOM      6  C   UNL d   1      20.317 -19.852  -0.691  0.00  0.00     0.236 C 
ATOM      7  O   UNL d   1      20.130 -19.700  -1.900  0.00  0.00    -0.272 OA
ATOM      8  H   UNL d   1      21.686 -19.522   0.914  0.00  0.00     0.190 HD
BRANCH   6   9
ATOM      9  C   UNL d   1      19.292 -20.523   0.231  0.00  0.00     0.104 C 
BRANCH   9  10
ATOM     10  C   UNL d   1      19.042 -19.698   1.505  0.00  0.00     0.005 C 
ATOM     11  C   UNL d   1      19.905 -20.136   2.681  0.00  0.00     0.005 C 
ENDBRANCH   9  10
ENDBRANCH   6   9
ENDBRANCH   1   5
BRANCH   2  12
ATOM     12  C   UNL d   1      24.661 -17.603  -1.176  0.00  0.00     0.079 C 
ATOM     13  C   UNL d   1      24.173 -16.208  -1.611  0.00  0.00     0.014 C 
ATOM     14  C   UNL d   1      25.226 -15.428  -2.409  0.00  0.00     0.001 C 
ATOM     15  C   UNL d   1      26.547 -15.316  -1.655  0.00  0.00     0.000 C 
ATOM     16  C   UNL d   1      27.056 -16.698  -1.264  0.00  0.00     0.001 C 
ATOM     17  C   UNL d   1      26.014 -17.469  -0.448  0.00  0.00     0.014 C 
ENDBRANCH   2  12
TORSDOF 4
ENDMDL
MODEL 5
REMARK VINA RESULT:    -7.204      1.487      2.254
REMARK INTER + INTRA:          -9.697
REMARK INTER:                  -8.398
REMARK INTRA:                  -1.299
REMARK CONF_INDEPENDENT:        1.193
REMARK UNBOUND:                -1.299
REMARK  4 active torsions:
REMARK  status: ('A' for Active; 'I' for Inactive)
REMARK    1  A    between atoms: C_2  and  C_3 
REMARK    2  A    between atoms: C_3  and  C_4 
REMARK       I    between atoms: C_4  and  N_6 
REMARK    3  A    between atoms: N_6  and  N_7 
REMARK       I    between atoms: N_7  and  C_8 
REMARK    4  A    between atoms: C_8  and  C_10 
ROOT
ATOM      1  N   UNL d   1      22.899 -17.809  -0.574  0.00  0.00    -0.267 N 
ATOM      2  C   UNL d   1      24.223 -17.710  -0.176  0.00  0.00     0.240 C 
ATOM      3  O   UNL d   1      24.746 -18.574   0.534  0.00  0.00    -0.271 OA
ATOM      4  H   UNL d   1      22.432 -17.148  -1.193  0.00  0.00     0.190 HD
ENDROOT
BRANCH   1   5
ATOM      5  N   UNL d   1      22.143 -18.967  -0.216  0.00  0.00    -0.268 N 
ATOM      6  C   UNL d   1      20.815 -19.048  -0.601  0.00  0.00     0.236 C 
ATOM      7  O   UNL d   1      20.281 -18.156  -1.264  0.00  0.00    -0.272 OA
ATOM      8  H   UNL d   1      22.630 -19.676   0.330  0.00  0.00     0.190 HD
BRANCH   6   9
ATOM      9  C   UNL d   1      20.066 -20.307  -0.148  0.00  0.00     0.104 C 
BRANCH   9  10
ATOM     10  C   UNL d   1      19.119 -20.018   1.030  0.00  0.00     0.005 C 
ATOM     11  C   UNL d   1      18.194 -21.183   1.355  0.00  0.00     0.005 C 
ENDBRANCH   9  10
ENDBRANCH   6   9
ENDBRANCH   1   5
BRANCH   2  12
ATOM     12  C   UNL d   1      24.984 -16.444  -0.630  0.00  0.00     0.079 C 
ATOM     13  C   UNL d   1      26.497 -16.724  -0.712  0.00  0.00     0.014 C 
ATOM     14  C   UNL d   1      27.291 -15.550  -1.299  0.00  0.00     0.001 C 
ATOM     15  C   UNL d   1      26.756 -15.123  -2.661  0.00  0.00     0.000 C 
ATOM     16  C   UNL d   1      25.270 -14.800  -2.573  0.00  0.00     0.001 C 
ATOM     17  C   UNL d   1      24.473 -15.980  -2.009  0.00  0.00     0.014 C 
ENDBRANCH   2  12
TORSDOF 4
ENDMDL
MODEL 6
REMARK VINA RESULT:    -7.159      1.531      2.061
REMARK INTER + INTRA:          -9.598
REMARK INTER:                  -8.352
REMARK INTRA:                  -1.246
REMARK CONF_INDEPENDENT:        1.193
REMARK UNBOUND:                -1.246
REMARK  4 active torsions:
REMARK  status: ('A' for Active; 'I' for Inactive)
REMARK    1  A    between atoms: C_2  and  C_3 
REMARK    2  A    between atoms: C_3  and  C_4 
REMARK       I    between atoms: C_4  and  N_6 
REMARK    3  A    between atoms: N_6  and  N_7 
REMARK       I    between atoms: N_7  and  C_8 
REMARK    4  A    between atoms: C_8  and  C_10 
ROOT
ATOM      1  N   UNL d   1      23.138 -18.125  -0.876  0.00  0.00    -0.267 N 
ATOM      2  C   UNL d   1      24.484 -17.999  -0.567  0.00  0.00     0.240 C 
ATOM      3  O   UNL d   1      24.974 -18.570   0.411  0.00  0.00    -0.271 OA
ATOM      4  H   UNL d   1      22.694 -17.710  -1.694  0.00  0.00     0.190 HD
ENDROOT
BRANCH   1   5
ATOM      5  N   UNL d   1      22.316 -18.988  -0.091  0.00  0.00    -0.268 N 
ATOM      6  C   UNL d   1      20.942 -18.949  -0.264  0.00  0.00     0.236 C 
ATOM      7  O   UNL d   1      20.419 -18.205  -1.097  0.00  0.00    -0.272 OA
ATOM      8  H   UNL d   1      22.796 -19.585   0.581  0.00  0.00     0.190 HD
BRANCH   6   9
ATOM      9  C   UNL d   1      20.130 -19.882   0.641  0.00  0.00     0.104 C 
BRANCH   9  10
ATOM     10  C   UNL d   1      18.809 -20.314  -0.019  0.00  0.00     0.005 C 
ATOM     11  C   UNL d   1      18.030 -21.331   0.805  0.00  0.00     0.005 C 
ENDBRANCH   9  10
ENDBRANCH   6   9
ENDBRANCH   1   5
BRANCH   2  12
ATOM     12  C   UNL d   1      25.315 -17.073  -1.483  0.00  0.00     0.079 C 
ATOM     13  C   UNL d   1      24.451 -15.907  -2.000  0.00  0.00     0.014 C 
ATOM     14  C   UNL d   1      25.256 -14.872  -2.797  0.00  0.00     0.001 C 
ATOM     15  C   UNL d   1      26.444 -14.340  -2.002  0.00  0.00     0.000 C 
ATOM     16  C   UNL d   1      27.327 -15.488  -1.529  0.00  0.00     0.001 C 
ATOM     17  C   UNL d   1      26.528 -16.510  -0.715  0.00  0.00     0.014 C 
ENDBRANCH   2  12
TORSDOF 4
ENDMDL
MODEL 7
REMARK VINA RESULT:    -5.580      3.607      5.161
REMARK INTER + INTRA:          -8.073
REMARK INTER:                  -6.773
REMARK INTRA:                  -1.300
REMARK CONF_INDEPENDENT:        1.193
REMARK UNBOUND:                -1.300
REMARK  4 active torsions:
REMARK  status: ('A' for Active; 'I' for Inactive)
REMARK    1  A    between atoms: C_2  and  C_3 
REMARK    2  A    between atoms: C_3  and  C_4 
REMARK       I    between atoms: C_4  and  N_6 
REMARK    3  A    between atoms: N_6  and  N_7 
REMARK       I    between atoms: N_7  and  C_8 
REMARK    4  A    between atoms: C_8  and  C_10 
ROOT
ATOM      1  N   UNL d   1      25.424 -16.060  -2.314  0.00  0.00    -0.267 N 
ATOM      2  C   UNL d   1      25.446 -15.036  -3.248  0.00  0.00     0.240 C 
ATOM      3  O   UNL d   1      24.413 -14.450  -3.582  0.00  0.00    -0.271 OA
ATOM      4  H   UNL d   1      26.252 -16.546  -1.972  0.00  0.00     0.190 HD
ENDROOT
BRANCH   1   5
ATOM      5  N   UNL d   1      24.194 -16.400  -1.674  0.00  0.00    -0.268 N 
ATOM      6  C   UNL d   1      24.171 -17.458  -0.780  0.00  0.00     0.236 C 
ATOM      7  O   UNL d   1      25.192 -18.095  -0.510  0.00  0.00    -0.272 OA
ATOM      8  H   UNL d   1      23.380 -15.842  -1.929  0.00  0.00     0.190 HD
BRANCH   6   9
ATOM      9  C   UNL d   1      22.805 -17.778  -0.162  0.00  0.00     0.104 C 
BRANCH   9  10
ATOM     10  C   UNL d   1      22.111 -18.948  -0.881  0.00  0.00     0.005 C 
ATOM     11  C   UNL d   1      20.602 -18.967  -0.677  0.00  0.00     0.005 C 
ENDBRANCH   9  10
ENDBRANCH   6   9
ENDBRANCH   1   5
BRANCH   2  12
ATOM     12  C   UNL d   1      26.820 -14.705  -3.872  0.00  0.00     0.079 C 
ATOM     13  C   UNL d   1      27.924 -15.571  -3.237  0.00  0.00     0.014 C 
ATOM     14  C   UNL d   1      29.288 -15.395  -3.917  0.00  0.00     0.001 C 
ATOM     15  C   UNL d   1      29.214 -15.648  -5.419  0.00  0.00     0.000 C 
ATOM     16  C   UNL d   1      28.155 -14.758  -6.058  0.00  0.00     0.001 C 
ATOM     17  C   UNL d   1      26.788 -14.950  -5.395  0.00  0.00     0.014 C 
ENDBRANCH   2  12
TORSDOF 4
ENDMDL
