MODEL 1
REMARK VINA RESULT:    -7.214      0.000      0.000
REMARK INTER + INTRA:          -8.929
REMARK INTER:                  -8.407
REMARK INTRA:                  -0.522
REMARK CONF_INDEPENDENT:        1.193
REMARK UNBOUND:                -0.522
REMARK  4 active torsions:
REMARK  status: ('A' for Active; 'I' for Inactive)
REMARK       I    between atoms: N_2  and  C_3 
REMARK    1  A    between atoms: C_3  and  C_5 
REMARK    2  A    between atoms: C_9  and  N_10 
REMARK    3  A    between atoms: C_11  and  C_12 
REMARK    4  A    between atoms: C_18  and  O_19 
ROOT
ATOM      1  C   UNL d   1      26.565 -12.629  -5.395  0.00  0.00     0.040 A 
ATOM      2  C   UNL d   1      27.792 -12.933  -5.998  0.00  0.00     0.018 A 
ATOM      3  C   UNL d   1      28.381 -14.193  -5.799  0.00  0.00     0.003 A 
ATOM      4  C   UNL d   1      27.758 -15.161  -4.984  0.00  0.00     0.032 A 
ATOM      5  C   UNL d   1      26.521 -14.919  -4.381  0.00  0.00     0.063 A 
ATOM      6  C   UNL d   1      25.939 -13.672  -4.657  0.00  0.00    -0.018 A 
ATOM      7  C   UNL d   1      24.638 -13.326  -4.106  0.00  0.00     0.052 C 
ENDROOT
BRANCH   5   8
ATOM      8  N   UNL d   1      25.875 -15.955  -3.643  0.00  0.00    -0.260 NA
ATOM      9  C   UNL d   1      26.046 -16.111  -2.365  0.00  0.00     0.131 C 
BRANCH   9  10
ATOM     10  C   UNL d   1      25.401 -17.055  -1.449  0.00  0.00     0.016 A 
ATOM     11  C   UNL d   1      24.034 -17.365  -1.648  0.00  0.00     0.039 A 
ATOM     12  C   UNL d   1      23.363 -18.107  -0.683  0.00  0.00     0.035 A 
ATOM     13 CL   UNL d   1      21.698 -18.501  -0.888  0.00  0.00    -0.084 Cl
ATOM     14  C   UNL d   1      24.042 -18.519   0.461  0.00  0.00     0.026 A 
ATOM     15  C   UNL d   1      25.398 -18.200   0.642  0.00  0.00     0.039 A 
ATOM     16  C   UNL d   1      26.076 -17.465  -0.318  0.00  0.00     0.077 A 
BRANCH  16  17
ATOM     17  O   UNL d   1      27.365 -17.069  -0.148  0.00  0.00    -0.360 OA
ATOM     18  H   UNL d   1      27.900 -17.746   0.282  0.00  0.00     0.217 HD
ENDBRANCH  16  17
ENDBRANCH   9  10
ENDBRANCH   5   8
BRANCH   1  19
ATOM     19  C   UNL d   1      25.902 -11.256  -5.652  0.00  0.00     0.251 C 
ATOM     20  N   UNL d   1      25.529 -10.333  -4.659  0.00  0.00    -0.361 N 
ATOM     21  C   UNL d   1      26.353  -9.592  -3.675  0.00  0.00     0.149 C 
ATOM     22  H   UNL d   1      24.733  -9.789  -4.963  0.00  0.00     0.162 HD
ATOM     23  O   UNL d   1      25.513 -11.005  -6.809  0.00  0.00    -0.268 OA
ENDBRANCH   1  19
TORSDOF 4
ENDMDL
MODEL 2
REMARK VINA RESULT:    -6.809      1.949      2.791
REMARK INTER + INTRA:          -9.068
REMARK INTER:                  -8.002
REMARK INTRA:                  -1.066
REMARK CONF_INDEPENDENT:        1.193
REMARK UNBOUND:                -1.066
REMARK  4 active torsions:
REMARK  status: ('A' for Active; 'I' for Inactive)
REMARK       I    between atoms: N_2  and  C_3 
REMARK    1  A    between atoms: C_3  and  C_5 
REMARK    2  A    between atoms: C_9  and  N_10 
REMARK    3  A    between atoms: C_11  and  C_12 
REMARK    4  A    between atoms: C_18  and  O_19 
ROOT
ATOM      1  C   UNL d   1      27.696 -13.031  -6.166  0.00  0.00     0.040 A 
ATOM      2  C   UNL d   1      26.865 -11.937  -5.895  0.00  0.00     0.018 A 
ATOM      3  C   UNL d   1      25.902 -12.020  -4.874  0.00  0.00     0.003 A 
ATOM      4  C   UNL d   1      25.749 -13.202  -4.120  0.00  0.00     0.032 A 
ATOM      5  C   UNL d   1      26.570 -14.313  -4.332  0.00  0.00     0.063 A 
ATOM      6  C   UNL d   1      27.558 -14.165  -5.317  0.00  0.00    -0.018 A 
ATOM      7  C   UNL d   1      28.488 -15.247  -5.599  0.00  0.00     0.052 C 
ENDROOT
BRANCH   5   8
ATOM      8  N   UNL d   1      26.451 -15.455  -3.486  0.00  0.00    -0.260 NA
ATOM      9  C   UNL d   1      25.514 -15.568  -2.595  0.00  0.00     0.131 C 
BRANCH   9  10
ATOM     10  C   UNL d   1      25.197 -16.697  -1.716  0.00  0.00     0.016 A 
ATOM     11  C   UNL d   1      23.853 -17.131  -1.627  0.00  0.00     0.039 A 
ATOM     12  C   UNL d   1      23.509 -18.072  -0.664  0.00  0.00     0.035 A 
ATOM     13 CL   UNL d   1      21.881 -18.621  -0.523  0.00  0.00    -0.084 Cl
ATOM     14  C   UNL d   1      24.487 -18.557   0.201  0.00  0.00     0.026 A 
ATOM     15  C   UNL d   1      25.816 -18.113   0.099  0.00  0.00     0.039 A 
ATOM     16  C   UNL d   1      26.168 -17.179  -0.863  0.00  0.00     0.077 A 
BRANCH  16  17
ATOM     17  O   UNL d   1      27.424 -16.667  -0.946  0.00  0.00    -0.360 OA
ATOM     18  H   UNL d   1      27.573 -16.200  -1.777  0.00  0.00     0.217 HD
ENDBRANCH  16  17
ENDBRANCH   9  10
ENDBRANCH   5   8
BRANCH   1  19
ATOM     19  C   UNL d   1      28.781 -12.919  -7.263  0.00  0.00     0.251 C 
ATOM     20  N   UNL d   1      28.543 -12.946  -8.648  0.00  0.00    -0.361 N 
ATOM     21  C   UNL d   1      27.775 -12.018  -9.511  0.00  0.00     0.149 C 
ATOM     22  H   UNL d   1      29.338 -13.335  -9.135  0.00  0.00     0.162 HD
ATOM     23  O   UNL d   1      29.973 -12.974  -6.909  0.00  0.00    -0.268 OA
ENDBRANCH   1  19
TORSDOF 4
ENDMDL
MODEL 3
REMARK VINA RESULT:    -6.232     10.425     13.504
REMARK INTER + INTRA:          -7.827
REMARK INTER:                  -7.425
REMARK INTRA:                  -0.402
REMARK CONF_INDEPENDENT:        1.193
REMARK UNBOUND:                -0.402
REMARK  4 active torsions:
REMARK  status: ('A' for Active; 'I' for Inactive)
REMARK       I    between atoms: N_2  and  C_3 
REMARK    1  A    between atoms: C_3  and  C_5 
REMARK    2  A    between atoms: C_9  and  N_10 
REMARK    3  A    between atoms: C_11  and  C_12 
REMARK    4  A    between atoms: C_18  and  O_19 
ROOT
ATOM      1  C   UNL d   1      30.082 -14.687  10.708  0.00  0.00     0.040 A 
ATOM      2  C   UNL d   1      29.109 -14.434  11.683  0.00  0.00     0.018 A 
ATOM      3  C   UNL d   1      28.030 -13.582  11.397  0.00  0.00     0.003 A 
ATOM      4  C   UNL d   1      27.915 -12.960  10.136  0.00  0.00     0.032 A 
ATOM      5  C   UNL d   1      28.843 -13.199   9.119  0.00  0.00     0.063 A 
ATOM      6  C   UNL d   1      29.869 -14.105   9.427  0.00  0.00    -0.018 A 
ATOM      7  C   UNL d   1      30.872 -14.450   8.432  0.00  0.00     0.052 C 
ENDROOT
BRANCH   5   8
ATOM      8  N   UNL d   1      28.642 -12.629   7.827  0.00  0.00    -0.260 NA
ATOM      9  C   UNL d   1      28.530 -13.354   6.755  0.00  0.00     0.131 C 
BRANCH   9  10
ATOM     10  C   UNL d   1      28.235 -12.942   5.380  0.00  0.00     0.016 A 
ATOM     11  C   UNL d   1      27.906 -11.588   5.134  0.00  0.00     0.039 A 
ATOM     12  C   UNL d   1      27.445 -11.223   3.875  0.00  0.00     0.035 A 
ATOM     13 CL   UNL d   1      27.030  -9.585   3.539  0.00  0.00    -0.084 Cl
ATOM     14  C   UNL d   1      27.305 -12.196   2.888  0.00  0.00     0.026 A 
ATOM     15  C   UNL d   1      27.635 -13.535   3.151  0.00  0.00     0.039 A 
ATOM     16  C   UNL d   1      28.101 -13.906   4.403  0.00  0.00     0.077 A 
BRANCH  16  17
ATOM     17  O   UNL d   1      28.359 -15.202   4.722  0.00  0.00    -0.360 OA
ATOM     18  H   UNL d   1      28.822 -15.667   4.016  0.00  0.00     0.217 HD
ENDBRANCH  16  17
ENDBRANCH   9  10
ENDBRANCH   5   8
BRANCH   1  19
ATOM     19  C   UNL d   1      31.245 -15.659  11.016  0.00  0.00     0.251 C 
ATOM     20  N   UNL d   1      32.579 -15.487  10.606  0.00  0.00    -0.361 N 
ATOM     21  C   UNL d   1      33.561 -14.430  10.943  0.00  0.00     0.149 C 
ATOM     22  H   UNL d   1      33.027 -16.384  10.478  0.00  0.00     0.162 HD
ATOM     23  O   UNL d   1      30.963 -16.761  11.522  0.00  0.00    -0.268 OA
ENDBRANCH   1  19
TORSDOF 4
ENDMDL
MODEL 4
REMARK VINA RESULT:    -6.198      4.692      6.010
REMARK INTER + INTRA:          -8.472
REMARK INTER:                  -7.392
REMARK INTRA:                  -1.080
REMARK CONF_INDEPENDENT:        1.193
REMARK UNBOUND:                -1.080
REMARK  4 active torsions:
REMARK  status: ('A' for Active; 'I' for Inactive)
REMARK       I    between atoms: N_2  and  C_3 
REMARK    1  A    between atoms: C_3  and  C_5 
REMARK    2  A    between atoms: C_9  and  N_10 
REMARK    3  A    between atoms: C_11  and  C_12 
REMARK    4  A    between atoms: C_18  and  O_19 
ROOT
ATOM      1  C   UNL d   1      25.742 -15.782  -2.580  0.00  0.00     0.040 A 
ATOM      2  C   UNL d   1      24.780 -16.734  -2.221  0.00  0.00     0.018 A 
ATOM      3  C   UNL d   1      24.834 -17.347  -0.957  0.00  0.00     0.003 A 
ATOM      4  C   UNL d   1      25.857 -17.025  -0.041  0.00  0.00     0.032 A 
ATOM      5  C   UNL d   1      26.826 -16.063  -0.339  0.00  0.00     0.063 A 
ATOM      6  C   UNL d   1      26.698 -15.432  -1.586  0.00  0.00    -0.018 A 
ATOM      7  C   UNL d   1      27.633 -14.393  -1.987  0.00  0.00     0.052 C 
ENDROOT
BRANCH   5   8
ATOM      8  N   UNL d   1      27.787 -15.694   0.648  0.00  0.00    -0.260 NA
ATOM      9  C   UNL d   1      27.521 -14.853   1.600  0.00  0.00     0.131 C 
BRANCH   9  10
ATOM     10  C   UNL d   1      28.352 -14.437   2.732  0.00  0.00     0.016 A 
ATOM     11  C   UNL d   1      27.723 -13.849   3.856  0.00  0.00     0.039 A 
ATOM     12  C   UNL d   1      28.510 -13.282   4.851  0.00  0.00     0.035 A 
ATOM     13 CL   UNL d   1      27.780 -12.554   6.232  0.00  0.00    -0.084 Cl
ATOM     14  C   UNL d   1      29.897 -13.291   4.718  0.00  0.00     0.026 A 
ATOM     15  C   UNL d   1      30.503 -13.877   3.594  0.00  0.00     0.039 A 
ATOM     16  C   UNL d   1      29.725 -14.450   2.600  0.00  0.00     0.077 A 
BRANCH  16  17
ATOM     17  O   UNL d   1      30.268 -14.958   1.462  0.00  0.00    -0.360 OA
ATOM     18  H   UNL d   1      29.905 -15.824   1.241  0.00  0.00     0.217 HD
ENDBRANCH  16  17
ENDBRANCH   9  10
ENDBRANCH   5   8
BRANCH   1  19
ATOM     19  C   UNL d   1      25.653 -15.081  -3.956  0.00  0.00     0.251 C 
ATOM     20  N   UNL d   1      25.086 -13.817  -4.190  0.00  0.00    -0.361 N 
ATOM     21  C   UNL d   1      25.479 -12.478  -3.691  0.00  0.00     0.149 C 
ATOM     22  H   UNL d   1      24.703 -13.768  -5.124  0.00  0.00     0.162 HD
ATOM     23  O   UNL d   1      25.954 -15.744  -4.967  0.00  0.00    -0.268 OA
ENDBRANCH   1  19
TORSDOF 4
ENDMDL
MODEL 5
REMARK VINA RESULT:    -5.906      3.732      5.434
REMARK INTER + INTRA:          -8.160
REMARK INTER:                  -7.099
REMARK INTRA:                  -1.062
REMARK CONF_INDEPENDENT:        1.193
REMARK UNBOUND:                -1.062
REMARK  4 active torsions:
REMARK  status: ('A' for Active; 'I' for Inactive)
REMARK       I    between atoms: N_2  and  C_3 
REMARK    1  A    between atoms: C_3  and  C_5 
REMARK    2  A    between atoms: C_9  and  N_10 
REMARK    3  A    between atoms: C_11  and  C_12 
REMARK    4  A    between atoms: C_18  and  O_19 
ROOT
ATOM      1  C   UNL d   1      30.853 -15.383  -7.008  0.00  0.00     0.040 A 
ATOM      2  C   UNL d   1      30.721 -14.099  -7.550  0.00  0.00     0.018 A 
ATOM      3  C   UNL d   1      29.569 -13.338  -7.286  0.00  0.00     0.003 A 
ATOM      4  C   UNL d   1      28.528 -13.856  -6.487  0.00  0.00     0.032 A 
ATOM      5  C   UNL d   1      28.621 -15.121  -5.900  0.00  0.00     0.063 A 
ATOM      6  C   UNL d   1      29.814 -15.820  -6.139  0.00  0.00    -0.018 A 
ATOM      7  C   UNL d   1      30.031 -17.133  -5.551  0.00  0.00     0.052 C 
ENDROOT
BRANCH   5   8
ATOM      8  N   UNL d   1      27.593 -15.573  -5.021  0.00  0.00    -0.260 NA
ATOM      9  C   UNL d   1      27.676 -15.451  -3.731  0.00  0.00     0.131 C 
BRANCH   9  10
ATOM     10  C   UNL d   1      26.686 -15.775  -2.700  0.00  0.00     0.016 A 
ATOM     11  C   UNL d   1      27.072 -16.619  -1.631  0.00  0.00     0.039 A 
ATOM     12  C   UNL d   1      26.100 -17.085  -0.754  0.00  0.00     0.035 A 
ATOM     13 CL   UNL d   1      26.531 -18.117   0.557  0.00  0.00    -0.084 Cl
ATOM     14  C   UNL d   1      24.769 -16.724  -0.950  0.00  0.00     0.026 A 
ATOM     15  C   UNL d   1      24.405 -15.888  -2.018  0.00  0.00     0.039 A 
ATOM     16  C   UNL d   1      25.369 -15.414  -2.894  0.00  0.00     0.077 A 
BRANCH  16  17
ATOM     17  O   UNL d   1      25.050 -14.666  -3.984  0.00  0.00    -0.360 OA
ATOM     18  H   UNL d   1      25.546 -14.932  -4.766  0.00  0.00     0.217 HD
ENDBRANCH  16  17
ENDBRANCH   9  10
ENDBRANCH   5   8
BRANCH   1  19
ATOM     19  C   UNL d   1      32.141 -16.198  -7.268  0.00  0.00     0.251 C 
ATOM     20  N   UNL d   1      32.207 -17.596  -7.401  0.00  0.00    -0.361 N 
ATOM     21  C   UNL d   1      31.602 -18.497  -8.409  0.00  0.00     0.149 C 
ATOM     22  H   UNL d   1      33.103 -17.939  -7.085  0.00  0.00     0.162 HD
ATOM     23  O   UNL d   1      33.232 -15.602  -7.194  0.00  0.00    -0.268 OA
ENDBRANCH   1  19
TORSDOF 4
ENDMDL
MODEL 6
REMARK VINA RESULT:    -5.867      5.228      6.430
REMARK INTER + INTRA:          -8.121
REMARK INTER:                  -7.061
REMARK INTRA:                  -1.060
REMARK CONF_INDEPENDENT:        1.193
REMARK UNBOUND:                -1.060
REMARK  4 active torsions:
REMARK  status: ('A' for Active; 'I' for Inactive)
REMARK       I    between atoms: N_2  and  C_3 
REMARK    1  A    between atoms: C_3  and  C_5 
REMARK    2  A    between atoms: C_9  and  N_10 
REMARK    3  A    between atoms: C_11  and  C_12 
REMARK    4  A    between atoms: C_18  and  O_19 
ROOT
ATOM      1  C   UNL d   1      25.900 -15.338  -2.143  0.00  0.00     0.040 A 
ATOM      2  C   UNL d   1      25.476 -16.666  -2.018  0.00  0.00     0.018 A 
ATOM      3  C   UNL d   1      25.739 -17.381  -0.836  0.00  0.00     0.003 A 
ATOM      4  C   UNL d   1      26.441 -16.781   0.230  0.00  0.00     0.032 A 
ATOM      5  C   UNL d   1      26.863 -15.450   0.167  0.00  0.00     0.063 A 
ATOM      6  C   UNL d   1      26.525 -14.756  -1.005  0.00  0.00    -0.018 A 
ATOM      7  C   UNL d   1      26.888 -13.356  -1.164  0.00  0.00     0.052 C 
ENDROOT
BRANCH   5   8
ATOM      8  N   UNL d   1      27.485 -14.848   1.301  0.00  0.00    -0.260 NA
ATOM      9  C   UNL d   1      26.992 -13.803   1.892  0.00  0.00     0.131 C 
BRANCH   9  10
ATOM     10  C   UNL d   1      27.448 -13.120   3.105  0.00  0.00     0.016 A 
ATOM     11  C   UNL d   1      27.405 -11.706   3.145  0.00  0.00     0.039 A 
ATOM     12  C   UNL d   1      28.004 -11.041   4.208  0.00  0.00     0.035 A 
ATOM     13 CL   UNL d   1      27.975  -9.319   4.288  0.00  0.00    -0.084 Cl
ATOM     14  C   UNL d   1      28.644 -11.775   5.203  0.00  0.00     0.026 A 
ATOM     15  C   UNL d   1      28.679 -13.178   5.146  0.00  0.00     0.039 A 
ATOM     16  C   UNL d   1      28.079 -13.849   4.092  0.00  0.00     0.077 A 
BRANCH  16  17
ATOM     17  O   UNL d   1      28.155 -15.200   3.959  0.00  0.00    -0.360 OA
ATOM     18  H   UNL d   1      28.539 -15.461   3.114  0.00  0.00     0.217 HD
ENDBRANCH  16  17
ENDBRANCH   9  10
ENDBRANCH   5   8
BRANCH   1  19
ATOM     19  C   UNL d   1      25.571 -14.544  -3.429  0.00  0.00     0.251 C 
ATOM     20  N   UNL d   1      26.513 -14.081  -4.363  0.00  0.00    -0.361 N 
ATOM     21  C   UNL d   1      27.452 -14.827  -5.234  0.00  0.00     0.149 C 
ATOM     22  H   UNL d   1      26.183 -13.236  -4.810  0.00  0.00     0.162 HD
ATOM     23  O   UNL d   1      24.404 -14.134  -3.577  0.00  0.00    -0.268 OA
ENDBRANCH   1  19
TORSDOF 4
ENDMDL
MODEL 7
REMARK VINA RESULT:    -5.756      5.005      5.938
REMARK INTER + INTRA:          -7.893
REMARK INTER:                  -6.949
REMARK INTRA:                  -0.943
REMARK CONF_INDEPENDENT:        1.193
REMARK UNBOUND:                -0.943
REMARK  4 active torsions:
REMARK  status: ('A' for Active; 'I' for Inactive)
REMARK       I    between atoms: N_2  and  C_3 
REMARK    1  A    between atoms: C_3  and  C_5 
REMARK    2  A    between atoms: C_9  and  N_10 
REMARK    3  A    between atoms: C_11  and  C_12 
REMARK    4  A    between atoms: C_18  and  O_19 
ROOT
ATOM      1  C   UNL d   1      27.311 -10.292   1.877  0.00  0.00     0.040 A 
ATOM      2  C   UNL d   1      27.493  -9.521   0.722  0.00  0.00     0.018 A 
ATOM      3  C   UNL d   1      27.709 -10.150  -0.517  0.00  0.00     0.003 A 
ATOM      4  C   UNL d   1      27.760 -11.556  -0.615  0.00  0.00     0.032 A 
ATOM      5  C   UNL d   1      27.558 -12.371   0.502  0.00  0.00     0.063 A 
ATOM      6  C   UNL d   1      27.283 -11.704   1.706  0.00  0.00    -0.018 A 
ATOM      7  C   UNL d   1      27.027 -12.456   2.924  0.00  0.00     0.052 C 
ENDROOT
BRANCH   5   8
ATOM      8  N   UNL d   1      27.520 -13.789   0.348  0.00  0.00    -0.260 NA
ATOM      9  C   UNL d   1      26.408 -14.446   0.217  0.00  0.00     0.131 C 
BRANCH   9  10
ATOM     10  C   UNL d   1      26.196 -15.873  -0.037  0.00  0.00     0.016 A 
ATOM     11  C   UNL d   1      24.892 -16.319  -0.357  0.00  0.00     0.039 A 
ATOM     12  C   UNL d   1      24.639 -17.684  -0.415  0.00  0.00     0.035 A 
ATOM     13 CL   UNL d   1      23.062 -18.265  -0.798  0.00  0.00    -0.084 Cl
ATOM     14  C   UNL d   1      25.668 -18.584  -0.147  0.00  0.00     0.026 A 
ATOM     15  C   UNL d   1      26.956 -18.123   0.172  0.00  0.00     0.039 A 
ATOM     16  C   UNL d   1      27.218 -16.763   0.226  0.00  0.00     0.077 A 
BRANCH  16  17
ATOM     17  O   UNL d   1      28.429 -16.275   0.604  0.00  0.00    -0.360 OA
ATOM     18  H   UNL d   1      28.351 -15.589   1.278  0.00  0.00     0.217 HD
ENDBRANCH  16  17
ENDBRANCH   9  10
ENDBRANCH   5   8
BRANCH   1  19
ATOM     19  C   UNL d   1      27.031  -9.595   3.229  0.00  0.00     0.251 C 
ATOM     20  N   UNL d   1      27.377 -10.104   4.493  0.00  0.00    -0.361 N 
ATOM     21  C   UNL d   1      28.704 -10.401   5.082  0.00  0.00     0.149 C 
ATOM     22  H   UNL d   1      26.723  -9.784   5.194  0.00  0.00     0.162 HD
ATOM     23  O   UNL d   1      26.301  -8.587   3.224  0.00  0.00    -0.268 OA
ENDBRANCH   1  19
TORSDOF 4
ENDMDL
MODEL 8
REMARK VINA RESULT:    -5.679      3.000      4.025
REMARK INTER + INTRA:          -8.002
REMARK INTER:                  -6.872
REMARK INTRA:                  -1.130
REMARK CONF_INDEPENDENT:        1.193
REMARK UNBOUND:                -1.130
REMARK  4 active torsions:
REMARK  status: ('A' for Active; 'I' for Inactive)
REMARK       I    between atoms: N_2  and  C_3 
REMARK    1  A    between atoms: C_3  and  C_5 
REMARK    2  A    between atoms: C_9  and  N_10 
REMARK    3  A    between atoms: C_11  and  C_12 
REMARK    4  A    between atoms: C_18  and  O_19 
ROOT
ATOM      1  C   UNL d   1      29.926 -13.662  -7.367  0.00  0.00     0.040 A 
ATOM      2  C   UNL d   1      30.942 -14.612  -7.536  0.00  0.00     0.018 A 
ATOM      3  C   UNL d   1      30.891 -15.828  -6.834  0.00  0.00     0.003 A 
ATOM      4  C   UNL d   1      29.833 -16.106  -5.944  0.00  0.00     0.032 A 
ATOM      5  C   UNL d   1      28.781 -15.205  -5.760  0.00  0.00     0.063 A 
ATOM      6  C   UNL d   1      28.839 -14.031  -6.527  0.00  0.00    -0.018 A 
ATOM      7  C   UNL d   1      27.781 -13.037  -6.437  0.00  0.00     0.052 C 
ENDROOT
BRANCH   5   8
ATOM      8  N   UNL d   1      27.679 -15.561  -4.927  0.00  0.00    -0.260 NA
ATOM      9  C   UNL d   1      27.761 -15.573  -3.631  0.00  0.00     0.131 C 
BRANCH   9  10
ATOM     10  C   UNL d   1      26.716 -15.825  -2.636  0.00  0.00     0.016 A 
ATOM     11  C   UNL d   1      26.999 -16.699  -1.560  0.00  0.00     0.039 A 
ATOM     12  C   UNL d   1      25.966 -17.092  -0.718  0.00  0.00     0.035 A 
ATOM     13 CL   UNL d   1      26.272 -18.159   0.601  0.00  0.00    -0.084 Cl
ATOM     14  C   UNL d   1      24.674 -16.628  -0.955  0.00  0.00     0.026 A 
ATOM     15  C   UNL d   1      24.411 -15.763  -2.030  0.00  0.00     0.039 A 
ATOM     16  C   UNL d   1      25.437 -15.362  -2.871  0.00  0.00     0.077 A 
BRANCH  16  17
ATOM     17  O   UNL d   1      25.213 -14.588  -3.965  0.00  0.00    -0.360 OA
ATOM     18  H   UNL d   1      26.021 -14.420  -4.464  0.00  0.00     0.217 HD
ENDBRANCH  16  17
ENDBRANCH   9  10
ENDBRANCH   5   8
BRANCH   1  19
ATOM     19  C   UNL d   1      29.966 -12.343  -8.174  0.00  0.00     0.251 C 
ATOM     20  N   UNL d   1      29.556 -12.194  -9.510  0.00  0.00    -0.361 N 
ATOM     21  C   UNL d   1      28.223 -12.371 -10.134  0.00  0.00     0.149 C 
ATOM     22  H   UNL d   1      30.084 -11.461  -9.963  0.00  0.00     0.162 HD
ATOM     23  O   UNL d   1      30.555 -11.369  -7.669  0.00  0.00    -0.268 OA
ENDBRANCH   1  19
TORSDOF 4
ENDMDL
MODEL 9
REMARK VINA RESULT:    -5.469      4.843      6.160
REMARK INTER + INTRA:          -7.824
REMARK INTER:                  -6.663
REMARK INTRA:                  -1.161
REMARK CONF_INDEPENDENT:        1.193
REMARK UNBOUND:                -1.161
REMARK  4 active torsions:
REMARK  status: ('A' for Active; 'I' for Inactive)
REMARK       I    between atoms: N_2  and  C_3 
REMARK    1  A    between atoms: C_3  and  C_5 
REMARK    2  A    between atoms: C_9  and  N_10 
REMARK    3  A    between atoms: C_11  and  C_12 
REMARK    4  A    between atoms: C_18  and  O_19 
ROOT
ATOM      1  C   UNL d   1      25.846 -15.496  -2.801  0.00  0.00     0.040 A 
ATOM      2  C   UNL d   1      25.173 -16.700  -2.560  0.00  0.00     0.018 A 
ATOM      3  C   UNL d   1      24.907 -17.106  -1.241  0.00  0.00     0.003 A 
ATOM      4  C   UNL d   1      25.321 -16.320  -0.145  0.00  0.00     0.032 A 
ATOM      5  C   UNL d   1      25.971 -15.097  -0.331  0.00  0.00     0.063 A 
ATOM      6  C   UNL d   1      26.160 -14.701  -1.664  0.00  0.00    -0.018 A 
ATOM      7  C   UNL d   1      26.799 -13.431  -1.972  0.00  0.00     0.052 C 
ENDROOT
BRANCH   5   8
ATOM      8  N   UNL d   1      26.288 -14.283   0.797  0.00  0.00    -0.260 NA
ATOM      9  C   UNL d   1      27.331 -14.498   1.539  0.00  0.00     0.131 C 
BRANCH   9  10
ATOM     10  C   UNL d   1      27.847 -13.716   2.666  0.00  0.00     0.016 A 
ATOM     11  C   UNL d   1      28.184 -14.393   3.863  0.00  0.00     0.039 A 
ATOM     12  C   UNL d   1      28.494 -13.649   4.995  0.00  0.00     0.035 A 
ATOM     13 CL   UNL d   1      28.905 -14.437   6.472  0.00  0.00    -0.084 Cl
ATOM     14  C   UNL d   1      28.456 -12.258   4.934  0.00  0.00     0.026 A 
ATOM     15  C   UNL d   1      28.117 -11.604   3.738  0.00  0.00     0.039 A 
ATOM     16  C   UNL d   1      27.812 -12.339   2.602  0.00  0.00     0.077 A 
BRANCH  16  17
ATOM     17  O   UNL d   1      27.405 -11.748   1.448  0.00  0.00    -0.360 OA
ATOM     18  H   UNL d   1      26.667 -12.214   1.040  0.00  0.00     0.217 HD
ENDBRANCH  16  17
ENDBRANCH   9  10
ENDBRANCH   5   8
BRANCH   1  19
ATOM     19  C   UNL d   1      26.098 -15.035  -4.255  0.00  0.00     0.251 C 
ATOM     20  N   UNL d   1      27.355 -14.723  -4.803  0.00  0.00    -0.361 N 
ATOM     21  C   UNL d   1      28.551 -15.573  -5.014  0.00  0.00     0.149 C 
ATOM     22  H   UNL d   1      27.261 -14.026  -5.529  0.00  0.00     0.162 HD
ATOM     23  O   UNL d   1      25.108 -14.756  -4.957  0.00  0.00    -0.268 OA
ENDBRANCH   1  19
TORSDOF 4
ENDMDL
