MODEL 1
REMARK VINA RESULT:    -9.965      0.000      0.000
REMARK INTER + INTRA:         -14.643
REMARK INTER:                 -12.948
REMARK INTRA:                  -1.695
REMARK CONF_INDEPENDENT:        2.983
REMARK UNBOUND:                -1.695
REMARK  10 active torsions:
REMARK  status: ('A' for Active; 'I' for Inactive)
REMARK    1  A    between atoms: O_2  and  C_3 
REMARK    2  A    between atoms: C_5  and  C_6 
REMARK    3  A    between atoms: C_6  and  O_8 
REMARK    4  A    between atoms: O_8  and  C_9 
REMARK    5  A    between atoms: C_9  and  C_11 
REMARK    6  A    between atoms: C_11  and  C_13 
REMARK    7  A    between atoms: C_24  and  O_25 
REMARK    8  A    between atoms: O_25  and  C_26 
REMARK    9  A    between atoms: C_26  and  C_27 
REMARK       I    between atoms: C_27  and  N_29 
REMARK   10  A    between atoms: N_29  and  C_30 
ROOT
ATOM      1  C   UNL d   1      25.555 -15.344  -2.801  0.00  0.00     0.102 A 
ATOM      2  C   UNL d   1      26.951 -15.220  -2.994  0.00  0.00     0.057 A 
ATOM      3  C   UNL d   1      27.895 -15.942  -2.229  0.00  0.00     0.042 A 
ATOM      4  C   UNL d   1      27.445 -16.706  -1.156  0.00  0.00     0.020 A 
ATOM      5  C   UNL d   1      26.067 -16.843  -0.954  0.00  0.00     0.040 A 
ATOM      6  C   UNL d   1      25.110 -16.211  -1.782  0.00  0.00     0.102 A 
ENDROOT
BRANCH   3   7
ATOM      7  C   UNL d   1      29.315 -15.963  -2.686  0.00  0.00     0.294 C 
ATOM      8  O   UNL d   1      30.094 -15.034  -2.446  0.00  0.00    -0.259 OA
BRANCH   7   9
ATOM      9  O   UNL d   1      29.651 -17.047  -3.422  0.00  0.00    -0.304 OA
BRANCH   9  10
ATOM     10  C   UNL d   1      30.313 -16.803  -4.703  0.00  0.00     0.202 C 
ATOM     11  C   UNL d   1      30.397 -18.103  -5.481  0.00  0.00     0.048 C 
BRANCH  10  12
ATOM     12  C   UNL d   1      29.427 -15.840  -5.487  0.00  0.00     0.187 C 
ATOM     13  O   UNL d   1      28.204 -15.944  -5.356  0.00  0.00    -0.290 OA
BRANCH  12  14
ATOM     14  C   UNL d   1      29.969 -14.792  -6.424  0.00  0.00     0.020 A 
ATOM     15  C   UNL d   1      29.235 -13.693  -6.653  0.00  0.00     0.002 A 
ATOM     16  C   UNL d   1      27.988 -13.234  -6.143  0.00  0.00     0.014 A 
ATOM     17  C   UNL d   1      29.949 -12.902  -7.674  0.00  0.00     0.039 A 
ATOM     18  C   UNL d   1      27.417 -12.145  -6.657  0.00  0.00     0.001 A 
ATOM     19  C   UNL d   1      28.102 -11.333  -7.637  0.00  0.00     0.002 A 
ATOM     20  C   UNL d   1      29.304 -11.653  -8.157  0.00  0.00     0.030 A 
ATOM     21  N   UNL d   1      31.062 -13.445  -7.990  0.00  0.00    -0.385 N 
ATOM     22  C   UNL d   1      31.238 -14.733  -7.233  0.00  0.00     0.163 A 
ATOM     23  H   UNL d   1      31.699 -13.023  -8.671  0.00  0.00     0.160 HD
ENDBRANCH  12  14
ENDBRANCH  10  12
ENDBRANCH   9  10
ENDBRANCH   7   9
ENDBRANCH   3   7
BRANCH   1  24
ATOM     24  O   UNL d   1      24.826 -14.783  -3.828  0.00  0.00    -0.353 OA
ATOM     25  C   UNL d   1      24.637 -13.371  -3.904  0.00  0.00     0.210 C 
ENDBRANCH   1  24
BRANCH   6  26
ATOM     26  O   UNL d   1      23.847 -16.649  -1.458  0.00  0.00    -0.339 OA
BRANCH  26  27
ATOM     27  C   UNL d   1      23.763 -17.892  -0.817  0.00  0.00     0.278 C 
BRANCH  27  28
ATOM     28  C   UNL d   1      22.449 -18.650  -0.758  0.00  0.00     0.246 C 
ATOM     29  O   UNL d   1      22.073 -19.312  -1.721  0.00  0.00    -0.271 OA
ATOM     30  N   UNL d   1      21.757 -18.549   0.463  0.00  0.00    -0.325 N 
ATOM     31  H   UNL d   1      21.978 -17.831   1.146  0.00  0.00     0.169 HD
BRANCH  30  32
ATOM     32  C   UNL d   1      20.574 -19.295   0.665  0.00  0.00     0.035 A 
ATOM     33  C   UNL d   1      19.719 -19.623  -0.391  0.00  0.00     0.032 A 
ATOM     34  C   UNL d   1      18.586 -20.412  -0.138  0.00  0.00     0.044 A 
ATOM     35  C   UNL d   1      18.336 -20.877   1.151  0.00  0.00     0.116 A 
ATOM     36  F   UNL d   1      17.298 -21.691   1.378  0.00  0.00    -0.206 F 
ATOM     37  C   UNL d   1      19.158 -20.522   2.207  0.00  0.00     0.044 A 
ATOM     38  C   UNL d   1      20.266 -19.723   1.962  0.00  0.00     0.032 A 
ENDBRANCH  30  32
ENDBRANCH  27  28
ENDBRANCH  26  27
ENDBRANCH   6  26
TORSDOF 10
ENDMDL
MODEL 2
REMARK VINA RESULT:    -9.947      2.554      3.892
REMARK INTER + INTRA:         -14.230
REMARK INTER:                 -12.930
REMARK INTRA:                  -1.300
REMARK CONF_INDEPENDENT:        2.983
REMARK UNBOUND:                -1.300
REMARK  10 active torsions:
REMARK  status: ('A' for Active; 'I' for Inactive)
REMARK    1  A    between atoms: O_2  and  C_3 
REMARK    2  A    between atoms: C_5  and  C_6 
REMARK    3  A    between atoms: C_6  and  O_8 
REMARK    4  A    between atoms: O_8  and  C_9 
REMARK    5  A    between atoms: C_9  and  C_11 
REMARK    6  A    between atoms: C_11  and  C_13 
REMARK    7  A    between atoms: C_24  and  O_25 
REMARK    8  A    between atoms: O_25  and  C_26 
REMARK    9  A    between atoms: C_26  and  C_27 
REMARK       I    between atoms: C_27  and  N_29 
REMARK   10  A    between atoms: N_29  and  C_30 
ROOT
ATOM      1  C   UNL d   1      25.653 -15.427  -2.622  0.00  0.00     0.102 A 
ATOM      2  C   UNL d   1      27.065 -15.485  -2.708  0.00  0.00     0.057 A 
ATOM      3  C   UNL d   1      27.847 -16.309  -1.866  0.00  0.00     0.042 A 
ATOM      4  C   UNL d   1      27.222 -16.991  -0.827  0.00  0.00     0.020 A 
ATOM      5  C   UNL d   1      25.827 -16.948  -0.732  0.00  0.00     0.040 A 
ATOM      6  C   UNL d   1      25.024 -16.213  -1.635  0.00  0.00     0.102 A 
ENDROOT
BRANCH   3   7
ATOM      7  C   UNL d   1      29.283 -16.518  -2.212  0.00  0.00     0.294 C 
ATOM      8  O   UNL d   1      30.195 -15.986  -1.570  0.00  0.00    -0.259 OA
BRANCH   7   9
ATOM      9  O   UNL d   1      29.490 -17.285  -3.306  0.00  0.00    -0.304 OA
BRANCH   9  10
ATOM     10  C   UNL d   1      30.748 -17.092  -4.027  0.00  0.00     0.202 C 
ATOM     11  C   UNL d   1      31.814 -17.989  -3.426  0.00  0.00     0.048 C 
BRANCH  10  12
ATOM     12  C   UNL d   1      30.511 -17.539  -5.465  0.00  0.00     0.187 C 
ATOM     13  O   UNL d   1      30.030 -16.719  -6.253  0.00  0.00    -0.290 OA
BRANCH  12  14
ATOM     14  C   UNL d   1      30.813 -18.929  -5.961  0.00  0.00     0.020 A 
ATOM     15  C   UNL d   1      31.353 -19.074  -7.180  0.00  0.00     0.002 A 
ATOM     16  C   UNL d   1      31.778 -18.145  -8.171  0.00  0.00     0.014 A 
ATOM     17  C   UNL d   1      31.441 -20.524  -7.443  0.00  0.00     0.039 A 
ATOM     18  C   UNL d   1      32.162 -18.579  -9.372  0.00  0.00     0.001 A 
ATOM     19  C   UNL d   1      32.286 -19.992  -9.652  0.00  0.00     0.002 A 
ATOM     20  C   UNL d   1      31.950 -20.956  -8.771  0.00  0.00     0.030 A 
ATOM     21  N   UNL d   1      31.048 -21.206  -6.436  0.00  0.00    -0.385 N 
ATOM     22  C   UNL d   1      30.591 -20.283  -5.339  0.00  0.00     0.163 A 
ATOM     23  H   UNL d   1      31.058 -22.228  -6.434  0.00  0.00     0.160 HD
ENDBRANCH  12  14
ENDBRANCH  10  12
ENDBRANCH   9  10
ENDBRANCH   7   9
ENDBRANCH   3   7
BRANCH   1  24
ATOM     24  O   UNL d   1      25.083 -14.794  -3.707  0.00  0.00    -0.353 OA
ATOM     25  C   UNL d   1      25.653 -14.918  -5.008  0.00  0.00     0.210 C 
ENDBRANCH   1  24
BRANCH   6  26
ATOM     26  O   UNL d   1      23.694 -16.481  -1.408  0.00  0.00    -0.339 OA
BRANCH  26  27
ATOM     27  C   UNL d   1      23.392 -17.751  -0.900  0.00  0.00     0.278 C 
BRANCH  27  28
ATOM     28  C   UNL d   1      21.968 -18.121  -0.527  0.00  0.00     0.246 C 
ATOM     29  O   UNL d   1      21.027 -17.437  -0.919  0.00  0.00    -0.271 OA
ATOM     30  N   UNL d   1      21.840 -19.289   0.248  0.00  0.00    -0.325 N 
ATOM     31  H   UNL d   1      22.632 -19.700   0.733  0.00  0.00     0.169 HD
BRANCH  30  32
ATOM     32  C   UNL d   1      20.555 -19.783   0.568  0.00  0.00     0.035 A 
ATOM     33  C   UNL d   1      19.610 -20.077  -0.420  0.00  0.00     0.032 A 
ATOM     34  C   UNL d   1      18.370 -20.617  -0.045  0.00  0.00     0.044 A 
ATOM     35  C   UNL d   1      18.101 -20.874   1.298  0.00  0.00     0.116 A 
ATOM     36  F   UNL d   1      16.948 -21.459   1.648  0.00  0.00    -0.206 F 
ATOM     37  C   UNL d   1      19.018 -20.549   2.283  0.00  0.00     0.044 A 
ATOM     38  C   UNL d   1      20.236 -19.994   1.915  0.00  0.00     0.032 A 
ENDBRANCH  30  32
ENDBRANCH  27  28
ENDBRANCH  26  27
ENDBRANCH   6  26
TORSDOF 10
ENDMDL
MODEL 3
REMARK VINA RESULT:    -9.830      3.845      6.483
REMARK INTER + INTRA:         -14.622
REMARK INTER:                 -12.813
REMARK INTRA:                  -1.810
REMARK CONF_INDEPENDENT:        2.983
REMARK UNBOUND:                -1.810
REMARK  10 active torsions:
REMARK  status: ('A' for Active; 'I' for Inactive)
REMARK    1  A    between atoms: O_2  and  C_3 
REMARK    2  A    between atoms: C_5  and  C_6 
REMARK    3  A    between atoms: C_6  and  O_8 
REMARK    4  A    between atoms: O_8  and  C_9 
REMARK    5  A    between atoms: C_9  and  C_11 
REMARK    6  A    between atoms: C_11  and  C_13 
REMARK    7  A    between atoms: C_24  and  O_25 
REMARK    8  A    between atoms: O_25  and  C_26 
REMARK    9  A    between atoms: C_26  and  C_27 
REMARK       I    between atoms: C_27  and  N_29 
REMARK   10  A    between atoms: N_29  and  C_30 
ROOT
ATOM      1  C   UNL d   1      26.148 -16.602  -1.440  0.00  0.00     0.102 A 
ATOM      2  C   UNL d   1      27.261 -15.777  -1.727  0.00  0.00     0.057 A 
ATOM      3  C   UNL d   1      27.137 -14.530  -2.383  0.00  0.00     0.042 A 
ATOM      4  C   UNL d   1      25.895 -14.157  -2.885  0.00  0.00     0.020 A 
ATOM      5  C   UNL d   1      24.783 -14.960  -2.605  0.00  0.00     0.040 A 
ATOM      6  C   UNL d   1      24.877 -16.156  -1.855  0.00  0.00     0.102 A 
ENDROOT
BRANCH   3   7
ATOM      7  C   UNL d   1      28.312 -13.611  -2.390  0.00  0.00     0.294 C 
ATOM      8  O   UNL d   1      28.568 -12.883  -3.354  0.00  0.00    -0.259 OA
BRANCH   7   9
ATOM      9  O   UNL d   1      29.089 -13.687  -1.286  0.00  0.00    -0.304 OA
BRANCH   9  10
ATOM     10  C   UNL d   1      28.723 -12.835  -0.153  0.00  0.00     0.202 C 
ATOM     11  C   UNL d   1      27.496 -12.020  -0.514  0.00  0.00     0.048 C 
BRANCH  10  12
ATOM     12  C   UNL d   1      28.353 -13.762   1.000  0.00  0.00     0.187 C 
ATOM     13  O   UNL d   1      27.210 -14.229   1.022  0.00  0.00    -0.290 OA
BRANCH  12  14
ATOM     14  C   UNL d   1      29.301 -14.114   2.117  0.00  0.00     0.020 A 
ATOM     15  C   UNL d   1      28.839 -14.114   3.376  0.00  0.00     0.002 A 
ATOM     16  C   UNL d   1      27.552 -13.882   3.939  0.00  0.00     0.014 A 
ATOM     17  C   UNL d   1      29.990 -14.386   4.258  0.00  0.00     0.039 A 
ATOM     18  C   UNL d   1      27.405 -13.813   5.262  0.00  0.00     0.001 A 
ATOM     19  C   UNL d   1      28.506 -14.103   6.153  0.00  0.00     0.002 A 
ATOM     20  C   UNL d   1      29.756 -14.374   5.726  0.00  0.00     0.030 A 
ATOM     21  N   UNL d   1      31.054 -14.601   3.583  0.00  0.00    -0.385 N 
ATOM     22  C   UNL d   1      30.766 -14.461   2.113  0.00  0.00     0.163 A 
ATOM     23  H   UNL d   1      31.946 -14.826   4.031  0.00  0.00     0.160 HD
ENDBRANCH  12  14
ENDBRANCH  10  12
ENDBRANCH   9  10
ENDBRANCH   7   9
ENDBRANCH   3   7
BRANCH   1  24
ATOM     24  O   UNL d   1      26.454 -17.614  -0.554  0.00  0.00    -0.353 OA
ATOM     25  C   UNL d   1      27.469 -17.440   0.433  0.00  0.00     0.210 C 
ENDBRANCH   1  24
BRANCH   6  26
ATOM     26  O   UNL d   1      23.620 -16.648  -1.596  0.00  0.00    -0.339 OA
BRANCH  26  27
ATOM     27  C   UNL d   1      23.555 -17.851  -0.879  0.00  0.00     0.278 C 
BRANCH  27  28
ATOM     28  C   UNL d   1      22.264 -18.645  -0.807  0.00  0.00     0.246 C 
ATOM     29  O   UNL d   1      21.901 -19.325  -1.763  0.00  0.00    -0.271 OA
ATOM     30  N   UNL d   1      21.577 -18.556   0.418  0.00  0.00    -0.325 N 
ATOM     31  H   UNL d   1      21.781 -17.826   1.095  0.00  0.00     0.169 HD
BRANCH  30  32
ATOM     32  C   UNL d   1      20.417 -19.333   0.632  0.00  0.00     0.035 A 
ATOM     33  C   UNL d   1      19.524 -19.629  -0.403  0.00  0.00     0.032 A 
ATOM     34  C   UNL d   1      18.418 -20.452  -0.142  0.00  0.00     0.044 A 
ATOM     35  C   UNL d   1      18.230 -20.981   1.133  0.00  0.00     0.116 A 
ATOM     36  F   UNL d   1      17.217 -21.825   1.363  0.00  0.00    -0.206 F 
ATOM     37  C   UNL d   1      19.088 -20.659   2.171  0.00  0.00     0.044 A 
ATOM     38  C   UNL d   1      20.171 -19.827   1.919  0.00  0.00     0.032 A 
ENDBRANCH  30  32
ENDBRANCH  27  28
ENDBRANCH  26  27
ENDBRANCH   6  26
TORSDOF 10
ENDMDL
MODEL 4
REMARK VINA RESULT:    -9.819      1.214      1.854
REMARK INTER + INTRA:         -14.576
REMARK INTER:                 -12.802
REMARK INTRA:                  -1.774
REMARK CONF_INDEPENDENT:        2.983
REMARK UNBOUND:                -1.774
REMARK  10 active torsions:
REMARK  status: ('A' for Active; 'I' for Inactive)
REMARK    1  A    between atoms: O_2  and  C_3 
REMARK    2  A    between atoms: C_5  and  C_6 
REMARK    3  A    between atoms: C_6  and  O_8 
REMARK    4  A    between atoms: O_8  and  C_9 
REMARK    5  A    between atoms: C_9  and  C_11 
REMARK    6  A    between atoms: C_11  and  C_13 
REMARK    7  A    between atoms: C_24  and  O_25 
REMARK    8  A    between atoms: O_25  and  C_26 
REMARK    9  A    between atoms: C_26  and  C_27 
REMARK       I    between atoms: C_27  and  N_29 
REMARK   10  A    between atoms: N_29  and  C_30 
ROOT
ATOM      1  C   UNL d   1      25.131 -14.978  -2.571  0.00  0.00     0.102 A 
ATOM      2  C   UNL d   1      26.508 -14.757  -2.813  0.00  0.00     0.057 A 
ATOM      3  C   UNL d   1      27.524 -15.512  -2.182  0.00  0.00     0.042 A 
ATOM      4  C   UNL d   1      27.168 -16.417  -1.187  0.00  0.00     0.020 A 
ATOM      5  C   UNL d   1      25.810 -16.650  -0.940  0.00  0.00     0.040 A 
ATOM      6  C   UNL d   1      24.782 -15.978  -1.642  0.00  0.00     0.102 A 
ENDROOT
BRANCH   3   7
ATOM      7  C   UNL d   1      28.917 -15.404  -2.703  0.00  0.00     0.294 C 
ATOM      8  O   UNL d   1      29.769 -14.695  -2.154  0.00  0.00    -0.259 OA
BRANCH   7   9
ATOM      9  O   UNL d   1      29.145 -16.095  -3.842  0.00  0.00    -0.304 OA
BRANCH   9  10
ATOM     10  C   UNL d   1      29.481 -15.320  -5.037  0.00  0.00     0.202 C 
ATOM     11  C   UNL d   1      29.922 -16.264  -6.141  0.00  0.00     0.048 C 
BRANCH  10  12
ATOM     12  C   UNL d   1      28.202 -14.626  -5.492  0.00  0.00     0.187 C 
ATOM     13  O   UNL d   1      27.233 -15.333  -5.785  0.00  0.00    -0.290 OA
BRANCH  12  14
ATOM     14  C   UNL d   1      28.073 -13.130  -5.623  0.00  0.00     0.020 A 
ATOM     15  C   UNL d   1      28.261 -12.572  -6.828  0.00  0.00     0.002 A 
ATOM     16  C   UNL d   1      28.532 -13.111  -8.117  0.00  0.00     0.014 A 
ATOM     17  C   UNL d   1      28.179 -11.110  -6.643  0.00  0.00     0.039 A 
ATOM     18  C   UNL d   1      28.810 -12.297  -9.136  0.00  0.00     0.001 A 
ATOM     19  C   UNL d   1      28.711 -10.862  -8.995  0.00  0.00     0.002 A 
ATOM     20  C   UNL d   1      28.421 -10.248  -7.830  0.00  0.00     0.030 A 
ATOM     21  N   UNL d   1      27.898 -10.807  -5.434  0.00  0.00    -0.385 N 
ATOM     22  C   UNL d   1      27.786 -12.058  -4.605  0.00  0.00     0.163 A 
ATOM     23  H   UNL d   1      27.783  -9.838  -5.128  0.00  0.00     0.160 HD
ENDBRANCH  12  14
ENDBRANCH  10  12
ENDBRANCH   9  10
ENDBRANCH   7   9
ENDBRANCH   3   7
BRANCH   1  24
ATOM     24  O   UNL d   1      24.324 -14.341  -3.490  0.00  0.00    -0.353 OA
ATOM     25  C   UNL d   1      24.871 -13.409  -4.422  0.00  0.00     0.210 C 
ENDBRANCH   1  24
BRANCH   6  26
ATOM     26  O   UNL d   1      23.560 -16.518  -1.315  0.00  0.00    -0.339 OA
BRANCH  26  27
ATOM     27  C   UNL d   1      23.577 -17.788  -0.723  0.00  0.00     0.278 C 
BRANCH  27  28
ATOM     28  C   UNL d   1      22.318 -18.634  -0.661  0.00  0.00     0.246 C 
ATOM     29  O   UNL d   1      21.988 -19.325  -1.621  0.00  0.00    -0.271 OA
ATOM     30  N   UNL d   1      21.620 -18.575   0.559  0.00  0.00    -0.325 N 
ATOM     31  H   UNL d   1      21.791 -17.839   1.239  0.00  0.00     0.169 HD
BRANCH  30  32
ATOM     32  C   UNL d   1      20.490 -19.399   0.765  0.00  0.00     0.035 A 
ATOM     33  C   UNL d   1      20.159 -19.895   2.030  0.00  0.00     0.032 A 
ATOM     34  C   UNL d   1      18.995 -20.663   2.182  0.00  0.00     0.044 A 
ATOM     35  C   UNL d   1      18.173 -20.906   1.084  0.00  0.00     0.116 A 
ATOM     36  F   UNL d   1      17.024 -21.575   1.245  0.00  0.00    -0.206 F 
ATOM     37  C   UNL d   1      18.517 -20.451  -0.177  0.00  0.00     0.044 A 
ATOM     38  C   UNL d   1      19.680 -19.710  -0.333  0.00  0.00     0.032 A 
ENDBRANCH  30  32
ENDBRANCH  27  28
ENDBRANCH  26  27
ENDBRANCH   6  26
TORSDOF 10
ENDMDL
MODEL 5
REMARK VINA RESULT:    -9.790      1.917      3.203
REMARK INTER + INTRA:         -14.883
REMARK INTER:                 -12.773
REMARK INTRA:                  -2.110
REMARK CONF_INDEPENDENT:        2.983
REMARK UNBOUND:                -2.110
REMARK  10 active torsions:
REMARK  status: ('A' for Active; 'I' for Inactive)
REMARK    1  A    between atoms: O_2  and  C_3 
REMARK    2  A    between atoms: C_5  and  C_6 
REMARK    3  A    between atoms: C_6  and  O_8 
REMARK    4  A    between atoms: O_8  and  C_9 
REMARK    5  A    between atoms: C_9  and  C_11 
REMARK    6  A    between atoms: C_11  and  C_13 
REMARK    7  A    between atoms: C_24  and  O_25 
REMARK    8  A    between atoms: O_25  and  C_26 
REMARK    9  A    between atoms: C_26  and  C_27 
REMARK       I    between atoms: C_27  and  N_29 
REMARK   10  A    between atoms: N_29  and  C_30 
ROOT
ATOM      1  C   UNL d   1      25.794 -16.380  -1.590  0.00  0.00     0.102 A 
ATOM      2  C   UNL d   1      27.158 -16.029  -1.727  0.00  0.00     0.057 A 
ATOM      3  C   UNL d   1      28.180 -16.625  -0.953  0.00  0.00     0.042 A 
ATOM      4  C   UNL d   1      27.825 -17.493   0.074  0.00  0.00     0.020 A 
ATOM      5  C   UNL d   1      26.480 -17.854   0.220  0.00  0.00     0.040 A 
ATOM      6  C   UNL d   1      25.461 -17.347  -0.620  0.00  0.00     0.102 A 
ENDROOT
BRANCH   3   7
ATOM      7  C   UNL d   1      29.599 -16.402  -1.358  0.00  0.00     0.294 C 
ATOM      8  O   UNL d   1      30.441 -15.951  -0.574  0.00  0.00    -0.259 OA
BRANCH   7   9
ATOM      9  O   UNL d   1      29.862 -16.683  -2.655  0.00  0.00    -0.304 OA
BRANCH   9  10
ATOM     10  C   UNL d   1      30.029 -15.547  -3.562  0.00  0.00     0.202 C 
ATOM     11  C   UNL d   1      31.508 -15.318  -3.813  0.00  0.00     0.048 C 
BRANCH  10  12
ATOM     12  C   UNL d   1      29.380 -15.934  -4.885  0.00  0.00     0.187 C 
ATOM     13  O   UNL d   1      28.147 -15.920  -4.950  0.00  0.00    -0.290 OA
BRANCH  12  14
ATOM     14  C   UNL d   1      30.165 -16.351  -6.102  0.00  0.00     0.020 A 
ATOM     15  C   UNL d   1      30.434 -17.653  -6.279  0.00  0.00     0.002 A 
ATOM     16  C   UNL d   1      30.086 -18.825  -5.549  0.00  0.00     0.014 A 
ATOM     17  C   UNL d   1      31.291 -17.759  -7.475  0.00  0.00     0.039 A 
ATOM     18  C   UNL d   1      30.613 -20.002  -5.886  0.00  0.00     0.001 A 
ATOM     19  C   UNL d   1      31.433 -20.144  -7.067  0.00  0.00     0.002 A 
ATOM     20  C   UNL d   1      31.790 -19.107  -7.853  0.00  0.00     0.030 A 
ATOM     21  N   UNL d   1      31.473 -16.617  -8.021  0.00  0.00    -0.385 N 
ATOM     22  C   UNL d   1      30.775 -15.550  -7.222  0.00  0.00     0.163 A 
ATOM     23  H   UNL d   1      32.028 -16.504  -8.873  0.00  0.00     0.160 HD
ENDBRANCH  12  14
ENDBRANCH  10  12
ENDBRANCH   9  10
ENDBRANCH   7   9
ENDBRANCH   3   7
BRANCH   1  24
ATOM     24  O   UNL d   1      25.017 -15.900  -2.623  0.00  0.00    -0.353 OA
ATOM     25  C   UNL d   1      25.412 -14.742  -3.357  0.00  0.00     0.210 C 
ENDBRANCH   1  24
BRANCH   6  26
ATOM     26  O   UNL d   1      24.274 -17.991  -0.359  0.00  0.00    -0.339 OA
BRANCH  26  27
ATOM     27  C   UNL d   1      23.153 -17.547  -1.073  0.00  0.00     0.278 C 
BRANCH  27  28
ATOM     28  C   UNL d   1      21.760 -18.032  -0.714  0.00  0.00     0.246 C 
ATOM     29  O   UNL d   1      20.775 -17.553  -1.268  0.00  0.00    -0.271 OA
ATOM     30  N   UNL d   1      21.716 -19.059   0.247  0.00  0.00    -0.325 N 
ATOM     31  H   UNL d   1      22.515 -19.275   0.838  0.00  0.00     0.169 HD
BRANCH  30  32
ATOM     32  C   UNL d   1      20.481 -19.656   0.584  0.00  0.00     0.035 A 
ATOM     33  C   UNL d   1      19.587 -20.104  -0.394  0.00  0.00     0.032 A 
ATOM     34  C   UNL d   1      18.399 -20.738   0.000  0.00  0.00     0.044 A 
ATOM     35  C   UNL d   1      18.132 -20.935   1.353  0.00  0.00     0.116 A 
ATOM     36  F   UNL d   1      17.035 -21.607   1.727  0.00  0.00    -0.206 F 
ATOM     37  C   UNL d   1      18.995 -20.460   2.326  0.00  0.00     0.044 A 
ATOM     38  C   UNL d   1      20.159 -19.812   1.937  0.00  0.00     0.032 A 
ENDBRANCH  30  32
ENDBRANCH  27  28
ENDBRANCH  26  27
ENDBRANCH   6  26
TORSDOF 10
ENDMDL
MODEL 6
REMARK VINA RESULT:    -9.720      3.294      5.996
REMARK INTER + INTRA:         -14.544
REMARK INTER:                 -12.703
REMARK INTRA:                  -1.841
REMARK CONF_INDEPENDENT:        2.983
REMARK UNBOUND:                -1.841
REMARK  10 active torsions:
REMARK  status: ('A' for Active; 'I' for Inactive)
REMARK    1  A    between atoms: O_2  and  C_3 
REMARK    2  A    between atoms: C_5  and  C_6 
REMARK    3  A    between atoms: C_6  and  O_8 
REMARK    4  A    between atoms: O_8  and  C_9 
REMARK    5  A    between atoms: C_9  and  C_11 
REMARK    6  A    between atoms: C_11  and  C_13 
REMARK    7  A    between atoms: C_24  and  O_25 
REMARK    8  A    between atoms: O_25  and  C_26 
REMARK    9  A    between atoms: C_26  and  C_27 
REMARK       I    between atoms: C_27  and  N_29 
REMARK   10  A    between atoms: N_29  and  C_30 
ROOT
ATOM      1  C   UNL d   1      25.744 -15.585  -2.307  0.00  0.00     0.102 A 
ATOM      2  C   UNL d   1      27.153 -15.670  -2.413  0.00  0.00     0.057 A 
ATOM      3  C   UNL d   1      27.949 -16.357  -1.468  0.00  0.00     0.042 A 
ATOM      4  C   UNL d   1      27.345 -16.857  -0.319  0.00  0.00     0.020 A 
ATOM      5  C   UNL d   1      25.952 -16.785  -0.201  0.00  0.00     0.040 A 
ATOM      6  C   UNL d   1      25.133 -16.196  -1.193  0.00  0.00     0.102 A 
ENDROOT
BRANCH   3   7
ATOM      7  C   UNL d   1      29.375 -16.632  -1.807  0.00  0.00     0.294 C 
ATOM      8  O   UNL d   1      29.704 -17.570  -2.543  0.00  0.00    -0.259 OA
BRANCH   7   9
ATOM      9  O   UNL d   1      30.264 -15.811  -1.204  0.00  0.00    -0.304 OA
BRANCH   9  10
ATOM     10  C   UNL d   1      30.204 -15.722   0.256  0.00  0.00     0.202 C 
ATOM     11  C   UNL d   1      31.575 -16.017   0.834  0.00  0.00     0.048 C 
BRANCH  10  12
ATOM     12  C   UNL d   1      29.847 -14.280   0.600  0.00  0.00     0.187 C 
ATOM     13  O   UNL d   1      30.558 -13.383   0.137  0.00  0.00    -0.290 OA
BRANCH  12  14
ATOM     14  C   UNL d   1      28.690 -13.902   1.489  0.00  0.00     0.020 A 
ATOM     15  C   UNL d   1      28.829 -14.038   2.816  0.00  0.00     0.002 A 
ATOM     16  C   UNL d   1      29.912 -14.447   3.643  0.00  0.00     0.014 A 
ATOM     17  C   UNL d   1      27.526 -13.700   3.422  0.00  0.00     0.039 A 
ATOM     18  C   UNL d   1      29.724 -14.622   4.951  0.00  0.00     0.001 A 
ATOM     19  C   UNL d   1      28.470 -14.274   5.580  0.00  0.00     0.002 A 
ATOM     20  C   UNL d   1      27.393 -13.837   4.896  0.00  0.00     0.030 A 
ATOM     21  N   UNL d   1      26.683 -13.324   2.538  0.00  0.00    -0.385 N 
ATOM     22  C   UNL d   1      27.308 -13.396   1.171  0.00  0.00     0.163 A 
ATOM     23  H   UNL d   1      25.733 -13.034   2.781  0.00  0.00     0.160 HD
ENDBRANCH  12  14
ENDBRANCH  10  12
ENDBRANCH   9  10
ENDBRANCH   7   9
ENDBRANCH   3   7
BRANCH   1  24
ATOM     24  O   UNL d   1      25.152 -15.129  -3.466  0.00  0.00    -0.353 OA
ATOM     25  C   UNL d   1      25.869 -14.294  -4.373  0.00  0.00     0.210 C 
ENDBRANCH   1  24
BRANCH   6  26
ATOM     26  O   UNL d   1      23.808 -16.411  -0.896  0.00  0.00    -0.339 OA
BRANCH  26  27
ATOM     27  C   UNL d   1      23.316 -17.701  -1.137  0.00  0.00     0.278 C 
BRANCH  27  28
ATOM     28  C   UNL d   1      21.910 -18.088  -0.715  0.00  0.00     0.246 C 
ATOM     29  O   UNL d   1      20.943 -17.450  -1.122  0.00  0.00    -0.271 OA
ATOM     30  N   UNL d   1      21.828 -19.218   0.120  0.00  0.00    -0.325 N 
ATOM     31  H   UNL d   1      22.641 -19.583   0.608  0.00  0.00     0.169 HD
BRANCH  30  32
ATOM     32  C   UNL d   1      20.564 -19.729   0.492  0.00  0.00     0.035 A 
ATOM     33  C   UNL d   1      19.606 -20.092  -0.460  0.00  0.00     0.032 A 
ATOM     34  C   UNL d   1      18.389 -20.644  -0.032  0.00  0.00     0.044 A 
ATOM     35  C   UNL d   1      18.156 -20.846   1.326  0.00  0.00     0.116 A 
ATOM     36  F   UNL d   1      17.026 -21.442   1.729  0.00  0.00    -0.206 F 
ATOM     37  C   UNL d   1      19.085 -20.452   2.274  0.00  0.00     0.044 A 
ATOM     38  C   UNL d   1      20.280 -19.884   1.854  0.00  0.00     0.032 A 
ENDBRANCH  30  32
ENDBRANCH  27  28
ENDBRANCH  26  27
ENDBRANCH   6  26
TORSDOF 10
ENDMDL
MODEL 7
REMARK VINA RESULT:    -9.049      1.527      1.907
REMARK INTER + INTRA:         -14.546
REMARK INTER:                 -12.032
REMARK INTRA:                  -2.514
REMARK CONF_INDEPENDENT:        2.983
REMARK UNBOUND:                -2.514
REMARK  10 active torsions:
REMARK  status: ('A' for Active; 'I' for Inactive)
REMARK    1  A    between atoms: O_2  and  C_3 
REMARK    2  A    between atoms: C_5  and  C_6 
REMARK    3  A    between atoms: C_6  and  O_8 
REMARK    4  A    between atoms: O_8  and  C_9 
REMARK    5  A    between atoms: C_9  and  C_11 
REMARK    6  A    between atoms: C_11  and  C_13 
REMARK    7  A    between atoms: C_24  and  O_25 
REMARK    8  A    between atoms: O_25  and  C_26 
REMARK    9  A    between atoms: C_26  and  C_27 
REMARK       I    between atoms: C_27  and  N_29 
REMARK   10  A    between atoms: N_29  and  C_30 
ROOT
ATOM      1  C   UNL d   1      25.803 -16.511  -1.575  0.00  0.00     0.102 A 
ATOM      2  C   UNL d   1      27.180 -16.329  -1.843  0.00  0.00     0.057 A 
ATOM      3  C   UNL d   1      28.191 -17.037  -1.153  0.00  0.00     0.042 A 
ATOM      4  C   UNL d   1      27.831 -17.846  -0.081  0.00  0.00     0.020 A 
ATOM      5  C   UNL d   1      26.473 -18.041   0.194  0.00  0.00     0.040 A 
ATOM      6  C   UNL d   1      25.448 -17.422  -0.560  0.00  0.00     0.102 A 
ENDROOT
BRANCH   3   7
ATOM      7  C   UNL d   1      29.582 -16.991  -1.690  0.00  0.00     0.294 C 
ATOM      8  O   UNL d   1      30.524 -16.537  -1.031  0.00  0.00    -0.259 OA
BRANCH   7   9
ATOM      9  O   UNL d   1      29.707 -17.434  -2.961  0.00  0.00    -0.304 OA
BRANCH   9  10
ATOM     10  C   UNL d   1      31.038 -17.361  -3.565  0.00  0.00     0.202 C 
ATOM     11  C   UNL d   1      31.127 -18.354  -4.708  0.00  0.00     0.048 C 
BRANCH  10  12
ATOM     12  C   UNL d   1      31.188 -15.959  -4.145  0.00  0.00     0.187 C 
ATOM     13  O   UNL d   1      32.079 -15.236  -3.688  0.00  0.00    -0.290 OA
BRANCH  12  14
ATOM     14  C   UNL d   1      30.293 -15.409  -5.225  0.00  0.00     0.020 A 
ATOM     15  C   UNL d   1      29.357 -14.508  -4.889  0.00  0.00     0.002 A 
ATOM     16  C   UNL d   1      29.018 -13.872  -3.662  0.00  0.00     0.014 A 
ATOM     17  C   UNL d   1      28.571 -14.228  -6.106  0.00  0.00     0.039 A 
ATOM     18  C   UNL d   1      27.933 -13.101  -3.588  0.00  0.00     0.001 A 
ATOM     19  C   UNL d   1      27.158 -12.785  -4.766  0.00  0.00     0.002 A 
ATOM     20  C   UNL d   1      27.416 -13.300  -5.985  0.00  0.00     0.030 A 
ATOM     21  N   UNL d   1      29.035 -14.859  -7.117  0.00  0.00    -0.385 N 
ATOM     22  C   UNL d   1      30.207 -15.704  -6.700  0.00  0.00     0.163 A 
ATOM     23  H   UNL d   1      28.624 -14.768  -8.049  0.00  0.00     0.160 HD
ENDBRANCH  12  14
ENDBRANCH  10  12
ENDBRANCH   9  10
ENDBRANCH   7   9
ENDBRANCH   3   7
BRANCH   1  24
ATOM     24  O   UNL d   1      24.996 -15.949  -2.543  0.00  0.00    -0.353 OA
ATOM     25  C   UNL d   1      25.542 -15.516  -3.788  0.00  0.00     0.210 C 
ENDBRANCH   1  24
BRANCH   6  26
ATOM     26  O   UNL d   1      24.222 -17.916  -0.179  0.00  0.00    -0.339 OA
BRANCH  26  27
ATOM     27  C   UNL d   1      23.111 -17.445  -0.893  0.00  0.00     0.278 C 
BRANCH  27  28
ATOM     28  C   UNL d   1      21.720 -17.984  -0.611  0.00  0.00     0.246 C 
ATOM     29  O   UNL d   1      20.760 -17.597  -1.270  0.00  0.00    -0.271 OA
ATOM     30  N   UNL d   1      21.652 -18.951   0.409  0.00  0.00    -0.325 N 
ATOM     31  H   UNL d   1      22.410 -19.085   1.073  0.00  0.00     0.169 HD
BRANCH  30  32
ATOM     32  C   UNL d   1      20.425 -19.595   0.688  0.00  0.00     0.035 A 
ATOM     33  C   UNL d   1      19.596 -20.077  -0.331  0.00  0.00     0.032 A 
ATOM     34  C   UNL d   1      18.416 -20.756   0.008  0.00  0.00     0.044 A 
ATOM     35  C   UNL d   1      18.093 -20.963   1.347  0.00  0.00     0.116 A 
ATOM     36  F   UNL d   1      17.006 -21.677   1.669  0.00  0.00    -0.206 F 
ATOM     37  C   UNL d   1      18.890 -20.455   2.359  0.00  0.00     0.044 A 
ATOM     38  C   UNL d   1      20.046 -19.763   2.025  0.00  0.00     0.032 A 
ENDBRANCH  30  32
ENDBRANCH  27  28
ENDBRANCH  26  27
ENDBRANCH   6  26
TORSDOF 10
ENDMDL
MODEL 8
REMARK VINA RESULT:    -9.038      1.626      3.656
REMARK INTER + INTRA:         -14.253
REMARK INTER:                 -12.021
REMARK INTRA:                  -2.232
REMARK CONF_INDEPENDENT:        2.983
REMARK UNBOUND:                -2.232
REMARK  10 active torsions:
REMARK  status: ('A' for Active; 'I' for Inactive)
REMARK    1  A    between atoms: O_2  and  C_3 
REMARK    2  A    between atoms: C_5  and  C_6 
REMARK    3  A    between atoms: C_6  and  O_8 
REMARK    4  A    between atoms: O_8  and  C_9 
REMARK    5  A    between atoms: C_9  and  C_11 
REMARK    6  A    between atoms: C_11  and  C_13 
REMARK    7  A    between atoms: C_24  and  O_25 
REMARK    8  A    between atoms: O_25  and  C_26 
REMARK    9  A    between atoms: C_26  and  C_27 
REMARK       I    between atoms: C_27  and  N_29 
REMARK   10  A    between atoms: N_29  and  C_30 
ROOT
ATOM      1  C   UNL d   1      26.317 -15.436  -0.956  0.00  0.00     0.102 A 
ATOM      2  C   UNL d   1      27.177 -14.534  -1.627  0.00  0.00     0.057 A 
ATOM      3  C   UNL d   1      26.768 -13.784  -2.753  0.00  0.00     0.042 A 
ATOM      4  C   UNL d   1      25.517 -14.035  -3.307  0.00  0.00     0.020 A 
ATOM      5  C   UNL d   1      24.652 -14.921  -2.653  0.00  0.00     0.040 A 
ATOM      6  C   UNL d   1      25.012 -15.596  -1.463  0.00  0.00     0.102 A 
ENDROOT
BRANCH   3   7
ATOM      7  C   UNL d   1      27.638 -12.664  -3.215  0.00  0.00     0.294 C 
ATOM      8  O   UNL d   1      27.606 -11.548  -2.684  0.00  0.00    -0.259 OA
BRANCH   7   9
ATOM      9  O   UNL d   1      28.411 -12.959  -4.284  0.00  0.00    -0.304 OA
BRANCH   9  10
ATOM     10  C   UNL d   1      27.723 -13.282  -5.535  0.00  0.00     0.202 C 
ATOM     11  C   UNL d   1      28.470 -12.652  -6.696  0.00  0.00     0.048 C 
BRANCH  10  12
ATOM     12  C   UNL d   1      27.784 -14.796  -5.700  0.00  0.00     0.187 C 
ATOM     13  O   UNL d   1      26.717 -15.414  -5.760  0.00  0.00    -0.290 OA
BRANCH  12  14
ATOM     14  C   UNL d   1      29.075 -15.570  -5.768  0.00  0.00     0.020 A 
ATOM     15  C   UNL d   1      29.509 -16.197  -4.664  0.00  0.00     0.002 A 
ATOM     16  C   UNL d   1      28.968 -16.346  -3.356  0.00  0.00     0.014 A 
ATOM     17  C   UNL d   1      30.827 -16.777  -4.987  0.00  0.00     0.039 A 
ATOM     18  C   UNL d   1      29.693 -16.920  -2.396  0.00  0.00     0.001 A 
ATOM     19  C   UNL d   1      30.974 -17.523  -2.686  0.00  0.00     0.002 A 
ATOM     20  C   UNL d   1      31.560 -17.476  -3.900  0.00  0.00     0.030 A 
ATOM     21  N   UNL d   1      31.139 -16.575  -6.210  0.00  0.00    -0.385 N 
ATOM     22  C   UNL d   1      30.060 -15.776  -6.889  0.00  0.00     0.163 A 
ATOM     23  H   UNL d   1      32.011 -16.925  -6.614  0.00  0.00     0.160 HD
ENDBRANCH  12  14
ENDBRANCH  10  12
ENDBRANCH   9  10
ENDBRANCH   7   9
ENDBRANCH   3   7
BRANCH   1  24
ATOM     24  O   UNL d   1      26.817 -15.835   0.266  0.00  0.00    -0.353 OA
ATOM     25  C   UNL d   1      27.097 -17.210   0.527  0.00  0.00     0.210 C 
ENDBRANCH   1  24
BRANCH   6  26
ATOM     26  O   UNL d   1      23.923 -16.266  -0.956  0.00  0.00    -0.339 OA
BRANCH  26  27
ATOM     27  C   UNL d   1      23.999 -17.665  -0.950  0.00  0.00     0.278 C 
BRANCH  27  28
ATOM     28  C   UNL d   1      22.740 -18.512  -0.904  0.00  0.00     0.246 C 
ATOM     29  O   UNL d   1      22.498 -19.311  -1.805  0.00  0.00    -0.271 OA
ATOM     30  N   UNL d   1      21.935 -18.322   0.234  0.00  0.00    -0.325 N 
ATOM     31  H   UNL d   1      22.044 -17.513   0.838  0.00  0.00     0.169 HD
BRANCH  30  32
ATOM     32  C   UNL d   1      20.792 -19.129   0.431  0.00  0.00     0.035 A 
ATOM     33  C   UNL d   1      20.481 -19.678   1.679  0.00  0.00     0.032 A 
ATOM     34  C   UNL d   1      19.303 -20.427   1.826  0.00  0.00     0.044 A 
ATOM     35  C   UNL d   1      18.448 -20.598   0.740  0.00  0.00     0.116 A 
ATOM     36  F   UNL d   1      17.288 -21.248   0.899  0.00  0.00    -0.206 F 
ATOM     37  C   UNL d   1      18.770 -20.090  -0.507  0.00  0.00     0.044 A 
ATOM     38  C   UNL d   1      19.946 -19.369  -0.659  0.00  0.00     0.032 A 
ENDBRANCH  30  32
ENDBRANCH  27  28
ENDBRANCH  26  27
ENDBRANCH   6  26
TORSDOF 10
ENDMDL
