MODEL 1
REMARK VINA RESULT:   -10.824      0.000      0.000
REMARK INTER + INTRA:         -14.856
REMARK INTER:                 -13.807
REMARK INTRA:                  -1.049
REMARK CONF_INDEPENDENT:        2.983
REMARK UNBOUND:                -1.049
REMARK  10 active torsions:
REMARK  status: ('A' for Active; 'I' for Inactive)
REMARK    1  A    between atoms: O_2  and  C_3 
REMARK    2  A    between atoms: C_6  and  C_7 
REMARK    3  A    between atoms: C_7  and  C_8 
REMARK    4  A    between atoms: C_7  and  N_28 
REMARK    5  A    between atoms: C_8  and  N_9 
REMARK       I    between atoms: N_9  and  C_10 
REMARK    6  A    between atoms: C_10  and  C_12 
REMARK    7  A    between atoms: C_15  and  S_16 
REMARK    8  A    between atoms: S_16  and  C_17 
REMARK    9  A    between atoms: C_17  and  C_18 
REMARK   10  A    between atoms: C_32  and  O_33 
ROOT
ATOM      1  N   UNL d   1      28.945 -15.466   1.017  0.00  0.00    -0.354 N 
ATOM      2  C   UNL d   1      28.290 -15.486  -0.192  0.00  0.00     0.256 C 
ATOM      3  O   UNL d   1      28.698 -14.860  -1.174  0.00  0.00    -0.268 OA
ATOM      4  H   UNL d   1      28.619 -16.109   1.725  0.00  0.00     0.162 HD
ENDROOT
BRANCH   1   5
ATOM      5  C   UNL d   1      30.091 -14.597   1.298  0.00  0.00     0.161 C 
BRANCH   5   6
ATOM      6  C   UNL d   1      30.773 -14.808   2.704  0.00  0.00     0.237 C 
BRANCH   6   7
ATOM      7  C   UNL d   1      29.888 -14.216   3.799  0.00  0.00    -0.023 C 
ATOM      8  C   UNL d   1      29.956 -14.651   5.115  0.00  0.00     0.012 C 
ATOM      9  C   UNL d   1      29.020 -14.224   6.068  0.00  0.00     0.040 C 
ATOM     10  C   UNL d   1      28.139 -13.163   5.824  0.00  0.00     0.101 C 
ATOM     11  C   UNL d   1      28.151 -12.625   4.535  0.00  0.00     0.102 C 
ATOM     12  C   UNL d   1      28.943 -13.222   3.545  0.00  0.00     0.049 C 
BRANCH  10  13
ATOM     13  O   UNL d   1      27.601 -12.675   6.984  0.00  0.00    -0.353 OA
ATOM     14  C   UNL d   1      28.406 -12.332   8.104  0.00  0.00     0.210 C 
ENDBRANCH  10  13
BRANCH  11  15
ATOM     15  O   UNL d   1      27.584 -11.510   3.974  0.00  0.00    -0.353 OA
ATOM     16  C   UNL d   1      27.813 -10.335   4.690  0.00  0.00     0.210 C 
ENDBRANCH  11  15
ENDBRANCH   6   7
BRANCH   6  17
ATOM     17  N   UNL d   1      32.205 -14.221   2.730  0.00  0.00    -0.069 N 
ATOM     18  C   UNL d   1      33.200 -15.059   1.934  0.00  0.00     0.270 C 
ATOM     19  C   UNL d   1      32.311 -12.805   2.241  0.00  0.00     0.270 C 
ATOM     20  H   UNL d   1      32.491 -14.212   3.720  0.00  0.00     0.279 HD
ENDBRANCH   6  17
ENDBRANCH   5   6
ENDBRANCH   1   5
BRANCH   2  21
ATOM     21  C   UNL d   1      27.094 -16.344  -0.295  0.00  0.00     0.090 A 
ATOM     22  C   UNL d   1      26.989 -17.522   0.409  0.00  0.00     0.139 A 
ATOM     23  N   UNL d   1      25.920 -18.363   0.338  0.00  0.00    -0.234 NA
ATOM     24  C   UNL d   1      24.924 -18.005  -0.488  0.00  0.00     0.189 A 
ATOM     25  N   UNL d   1      24.929 -16.881  -1.204  0.00  0.00    -0.210 NA
ATOM     26  C   UNL d   1      26.019 -16.109  -1.115  0.00  0.00     0.146 A 
ATOM     27 CL   UNL d   1      25.934 -14.849  -2.261  0.00  0.00    -0.061 Cl
BRANCH  24  28
ATOM     28  S   UNL d   1      23.509 -19.010  -0.789  0.00  0.00    -0.086 SA
BRANCH  28  29
ATOM     29  C   UNL d   1      22.143 -18.055  -0.072  0.00  0.00     0.121 C 
BRANCH  29  30
ATOM     30  C   UNL d   1      20.949 -18.950   0.221  0.00  0.00    -0.048 A 
ATOM     31  C   UNL d   1      20.075 -19.358  -0.806  0.00  0.00     0.011 A 
ATOM     32  C   UNL d   1      18.924 -20.092  -0.518  0.00  0.00     0.043 A 
ATOM     33  C   UNL d   1      18.673 -20.480   0.790  0.00  0.00     0.116 A 
ATOM     34  F   UNL d   1      17.603 -21.238   1.058  0.00  0.00    -0.206 F 
ATOM     35  C   UNL d   1      19.526 -20.103   1.821  0.00  0.00     0.043 A 
ATOM     36  C   UNL d   1      20.656 -19.331   1.541  0.00  0.00     0.011 A 
ENDBRANCH  29  30
ENDBRANCH  28  29
ENDBRANCH  24  28
ENDBRANCH   2  21
TORSDOF 10
ENDMDL
MODEL 2
REMARK VINA RESULT:   -10.483      1.485      2.718
REMARK INTER + INTRA:         -14.343
REMARK INTER:                 -13.466
REMARK INTRA:                  -0.877
REMARK CONF_INDEPENDENT:        2.983
REMARK UNBOUND:                -0.877
REMARK  10 active torsions:
REMARK  status: ('A' for Active; 'I' for Inactive)
REMARK    1  A    between atoms: O_2  and  C_3 
REMARK    2  A    between atoms: C_6  and  C_7 
REMARK    3  A    between atoms: C_7  and  C_8 
REMARK    4  A    between atoms: C_7  and  N_28 
REMARK    5  A    between atoms: C_8  and  N_9 
REMARK       I    between atoms: N_9  and  C_10 
REMARK    6  A    between atoms: C_10  and  C_12 
REMARK    7  A    between atoms: C_15  and  S_16 
REMARK    8  A    between atoms: S_16  and  C_17 
REMARK    9  A    between atoms: C_17  and  C_18 
REMARK   10  A    between atoms: C_32  and  O_33 
ROOT
ATOM      1  N   UNL d   1      27.779 -15.625   1.251  0.00  0.00    -0.354 N 
ATOM      2  C   UNL d   1      27.209 -15.477   0.009  0.00  0.00     0.256 C 
ATOM      3  O   UNL d   1      27.636 -14.670  -0.821  0.00  0.00    -0.268 OA
ATOM      4  H   UNL d   1      27.454 -16.397   1.816  0.00  0.00     0.162 HD
ENDROOT
BRANCH   1   5
ATOM      5  C   UNL d   1      28.839 -14.750   1.761  0.00  0.00     0.161 C 
BRANCH   5   6
ATOM      6  C   UNL d   1      28.679 -14.297   3.263  0.00  0.00     0.237 C 
BRANCH   6   7
ATOM      7  C   UNL d   1      28.168 -12.859   3.316  0.00  0.00    -0.023 C 
ATOM      8  C   UNL d   1      27.352 -12.332   2.325  0.00  0.00     0.012 C 
ATOM      9  C   UNL d   1      27.036 -10.966   2.298  0.00  0.00     0.040 C 
ATOM     10  C   UNL d   1      27.304 -10.118   3.379  0.00  0.00     0.101 C 
ATOM     11  C   UNL d   1      28.014 -10.672   4.447  0.00  0.00     0.102 C 
ATOM     12  C   UNL d   1      28.505 -11.980   4.344  0.00  0.00     0.049 C 
BRANCH  10  13
ATOM     13  O   UNL d   1      26.588  -8.954   3.300  0.00  0.00    -0.353 OA
ATOM     14  C   UNL d   1      25.929  -8.554   2.106  0.00  0.00     0.210 C 
ENDBRANCH  10  13
BRANCH  11  15
ATOM     15  O   UNL d   1      28.308 -10.233   5.712  0.00  0.00    -0.353 OA
ATOM     16  C   UNL d   1      28.879  -8.962   5.754  0.00  0.00     0.210 C 
ENDBRANCH  11  15
ENDBRANCH   6   7
BRANCH   6  17
ATOM     17  N   UNL d   1      29.999 -14.478   4.050  0.00  0.00    -0.069 N 
ATOM     18  C   UNL d   1      31.089 -13.507   3.605  0.00  0.00     0.270 C 
ATOM     19  C   UNL d   1      29.863 -14.352   5.540  0.00  0.00     0.270 C 
ATOM     20  H   UNL d   1      30.312 -15.442   3.864  0.00  0.00     0.279 HD
ENDBRANCH   6  17
ENDBRANCH   5   6
ENDBRANCH   1   5
BRANCH   2  21
ATOM     21  C   UNL d   1      26.087 -16.374  -0.328  0.00  0.00     0.090 A 
ATOM     22  C   UNL d   1      25.923 -17.589   0.297  0.00  0.00     0.139 A 
ATOM     23  N   UNL d   1      24.919 -18.467   0.014  0.00  0.00    -0.234 NA
ATOM     24  C   UNL d   1      24.056 -18.106  -0.949  0.00  0.00     0.189 A 
ATOM     25  N   UNL d   1      24.127 -16.948  -1.605  0.00  0.00    -0.210 NA
ATOM     26  C   UNL d   1      25.151 -16.140  -1.304  0.00  0.00     0.146 A 
ATOM     27 CL   UNL d   1      25.197 -14.828  -2.392  0.00  0.00    -0.061 Cl
BRANCH  24  28
ATOM     28  S   UNL d   1      22.758 -19.148  -1.524  0.00  0.00    -0.086 SA
BRANCH  28  29
ATOM     29  C   UNL d   1      21.250 -18.253  -1.056  0.00  0.00     0.121 C 
BRANCH  29  30
ATOM     30  C   UNL d   1      20.304 -19.154  -0.278  0.00  0.00    -0.048 A 
ATOM     31  C   UNL d   1      20.589 -19.541   1.046  0.00  0.00     0.011 A 
ATOM     32  C   UNL d   1      19.773 -20.450   1.719  0.00  0.00     0.043 A 
ATOM     33  C   UNL d   1      18.628 -20.928   1.097  0.00  0.00     0.116 A 
ATOM     34  F   UNL d   1      17.811 -21.751   1.766  0.00  0.00    -0.206 F 
ATOM     35  C   UNL d   1      18.315 -20.553  -0.204  0.00  0.00     0.043 A 
ATOM     36  C   UNL d   1      19.155 -19.676  -0.895  0.00  0.00     0.011 A 
ENDBRANCH  29  30
ENDBRANCH  28  29
ENDBRANCH  24  28
ENDBRANCH   2  21
TORSDOF 10
ENDMDL
MODEL 3
REMARK VINA RESULT:    -9.774      3.759      6.291
REMARK INTER + INTRA:         -14.079
REMARK INTER:                 -12.757
REMARK INTRA:                  -1.322
REMARK CONF_INDEPENDENT:        2.983
REMARK UNBOUND:                -1.322
REMARK  10 active torsions:
REMARK  status: ('A' for Active; 'I' for Inactive)
REMARK    1  A    between atoms: O_2  and  C_3 
REMARK    2  A    between atoms: C_6  and  C_7 
REMARK    3  A    between atoms: C_7  and  C_8 
REMARK    4  A    between atoms: C_7  and  N_28 
REMARK    5  A    between atoms: C_8  and  N_9 
REMARK       I    between atoms: N_9  and  C_10 
REMARK    6  A    between atoms: C_10  and  C_12 
REMARK    7  A    between atoms: C_15  and  S_16 
REMARK    8  A    between atoms: S_16  and  C_17 
REMARK    9  A    between atoms: C_17  and  C_18 
REMARK   10  A    between atoms: C_32  and  O_33 
ROOT
ATOM      1  N   UNL d   1      29.227 -16.730  -0.011  0.00  0.00    -0.354 N 
ATOM      2  C   UNL d   1      28.185 -16.108  -0.659  0.00  0.00     0.256 C 
ATOM      3  O   UNL d   1      28.321 -15.030  -1.243  0.00  0.00    -0.268 OA
ATOM      4  H   UNL d   1      29.062 -17.669   0.325  0.00  0.00     0.162 HD
ENDROOT
BRANCH   1   5
ATOM      5  C   UNL d   1      30.543 -16.113   0.174  0.00  0.00     0.161 C 
BRANCH   5   6
ATOM      6  C   UNL d   1      31.777 -17.049  -0.122  0.00  0.00     0.237 C 
BRANCH   6   7
ATOM      7  C   UNL d   1      31.506 -17.877  -1.377  0.00  0.00    -0.023 C 
ATOM      8  C   UNL d   1      31.320 -19.251  -1.325  0.00  0.00     0.012 C 
ATOM      9  C   UNL d   1      31.246 -20.016  -2.498  0.00  0.00     0.040 C 
ATOM     10  C   UNL d   1      31.101 -19.430  -3.761  0.00  0.00     0.101 C 
ATOM     11  C   UNL d   1      31.155 -18.036  -3.814  0.00  0.00     0.102 C 
ATOM     12  C   UNL d   1      31.450 -17.313  -2.651  0.00  0.00     0.049 C 
BRANCH  10  13
ATOM     13  O   UNL d   1      30.673 -20.337  -4.693  0.00  0.00    -0.353 OA
ATOM     14  C   UNL d   1      30.515 -19.993  -6.064  0.00  0.00     0.210 C 
ENDBRANCH  10  13
BRANCH  11  15
ATOM     15  O   UNL d   1      30.891 -17.119  -4.799  0.00  0.00    -0.353 OA
ATOM     16  C   UNL d   1      29.654 -16.489  -4.672  0.00  0.00     0.210 C 
ENDBRANCH  11  15
ENDBRANCH   6   7
BRANCH   6  17
ATOM     17  N   UNL d   1      32.119 -17.935   1.100  0.00  0.00    -0.069 N 
ATOM     18  C   UNL d   1      33.380 -18.768   0.891  0.00  0.00     0.270 C 
ATOM     19  C   UNL d   1      32.280 -17.186   2.391  0.00  0.00     0.270 C 
ATOM     20  H   UNL d   1      31.316 -18.568   1.226  0.00  0.00     0.279 HD
ENDBRANCH   6  17
ENDBRANCH   5   6
ENDBRANCH   1   5
BRANCH   2  21
ATOM     21  C   UNL d   1      26.890 -16.816  -0.684  0.00  0.00     0.090 A 
ATOM     22  C   UNL d   1      26.617 -17.850   0.183  0.00  0.00     0.139 A 
ATOM     23  N   UNL d   1      25.449 -18.552   0.192  0.00  0.00    -0.234 NA
ATOM     24  C   UNL d   1      24.527 -18.203  -0.719  0.00  0.00     0.189 A 
ATOM     25  N   UNL d   1      24.695 -17.212  -1.594  0.00  0.00    -0.210 NA
ATOM     26  C   UNL d   1      25.874 -16.577  -1.575  0.00  0.00     0.146 A 
ATOM     27 CL   UNL d   1      25.981 -15.507  -2.898  0.00  0.00    -0.061 Cl
BRANCH  24  28
ATOM     28  S   UNL d   1      23.002 -19.058  -0.928  0.00  0.00    -0.086 SA
BRANCH  28  29
ATOM     29  C   UNL d   1      21.990 -18.475   0.461  0.00  0.00     0.121 C 
BRANCH  29  30
ATOM     30  C   UNL d   1      20.696 -19.268   0.561  0.00  0.00    -0.048 A 
ATOM     31  C   UNL d   1      20.279 -19.832   1.783  0.00  0.00     0.011 A 
ATOM     32  C   UNL d   1      19.148 -20.646   1.848  0.00  0.00     0.043 A 
ATOM     33  C   UNL d   1      18.388 -20.848   0.705  0.00  0.00     0.116 A 
ATOM     34  F   UNL d   1      17.267 -21.577   0.781  0.00  0.00    -0.206 F 
ATOM     35  C   UNL d   1      18.768 -20.293  -0.512  0.00  0.00     0.043 A 
ATOM     36  C   UNL d   1      19.925 -19.514  -0.587  0.00  0.00     0.011 A 
ENDBRANCH  29  30
ENDBRANCH  28  29
ENDBRANCH  24  28
ENDBRANCH   2  21
TORSDOF 10
ENDMDL
MODEL 4
REMARK VINA RESULT:    -9.230      4.628      9.429
REMARK INTER + INTRA:         -13.753
REMARK INTER:                 -12.213
REMARK INTRA:                  -1.540
REMARK CONF_INDEPENDENT:        2.983
REMARK UNBOUND:                -1.540
REMARK  10 active torsions:
REMARK  status: ('A' for Active; 'I' for Inactive)
REMARK    1  A    between atoms: O_2  and  C_3 
REMARK    2  A    between atoms: C_6  and  C_7 
REMARK    3  A    between atoms: C_7  and  C_8 
REMARK    4  A    between atoms: C_7  and  N_28 
REMARK    5  A    between atoms: C_8  and  N_9 
REMARK       I    between atoms: N_9  and  C_10 
REMARK    6  A    between atoms: C_10  and  C_12 
REMARK    7  A    between atoms: C_15  and  S_16 
REMARK    8  A    between atoms: S_16  and  C_17 
REMARK    9  A    between atoms: C_17  and  C_18 
REMARK   10  A    between atoms: C_32  and  O_33 
ROOT
ATOM      1  N   UNL d   1      28.938 -14.506   0.812  0.00  0.00    -0.354 N 
ATOM      2  C   UNL d   1      27.773 -14.277   1.507  0.00  0.00     0.256 C 
ATOM      3  O   UNL d   1      26.660 -14.467   1.009  0.00  0.00    -0.268 OA
ATOM      4  H   UNL d   1      29.801 -14.453   1.335  0.00  0.00     0.162 HD
ENDROOT
BRANCH   1   5
ATOM      5  C   UNL d   1      28.972 -14.849  -0.612  0.00  0.00     0.161 C 
BRANCH   5   6
ATOM      6  C   UNL d   1      28.825 -16.385  -0.942  0.00  0.00     0.237 C 
BRANCH   6   7
ATOM      7  C   UNL d   1      27.382 -16.826  -0.709  0.00  0.00    -0.023 C 
ATOM      8  C   UNL d   1      27.040 -17.723   0.293  0.00  0.00     0.012 C 
ATOM      9  C   UNL d   1      25.744 -18.250   0.382  0.00  0.00     0.040 C 
ATOM     10  C   UNL d   1      24.675 -17.724  -0.353  0.00  0.00     0.101 C 
ATOM     11  C   UNL d   1      24.983 -16.723  -1.277  0.00  0.00     0.102 C 
ATOM     12  C   UNL d   1      26.323 -16.376  -1.496  0.00  0.00     0.049 C 
BRANCH  10  13
ATOM     13  O   UNL d   1      23.467 -18.117   0.158  0.00  0.00    -0.353 OA
ATOM     14  C   UNL d   1      22.358 -18.424  -0.676  0.00  0.00     0.210 C 
ENDBRANCH  10  13
BRANCH  11  15
ATOM     15  O   UNL d   1      24.220 -15.870  -2.032  0.00  0.00    -0.353 OA
ATOM     16  C   UNL d   1      24.955 -14.890  -2.698  0.00  0.00     0.210 C 
ENDBRANCH  11  15
ENDBRANCH   6   7
BRANCH   6  17
ATOM     17  N   UNL d   1      29.834 -17.234  -0.132  0.00  0.00    -0.069 N 
ATOM     18  C   UNL d   1      30.352 -18.439  -0.911  0.00  0.00     0.270 C 
ATOM     19  C   UNL d   1      31.028 -16.475   0.373  0.00  0.00     0.270 C 
ATOM     20  H   UNL d   1      29.324 -17.565   0.699  0.00  0.00     0.279 HD
ENDBRANCH   6  17
ENDBRANCH   5   6
ENDBRANCH   1   5
BRANCH   2  21
ATOM     21  C   UNL d   1      27.901 -13.847   2.912  0.00  0.00     0.090 A 
ATOM     22  C   UNL d   1      28.197 -14.741   3.916  0.00  0.00     0.139 A 
ATOM     23  N   UNL d   1      28.308 -14.405   5.232  0.00  0.00    -0.234 NA
ATOM     24  C   UNL d   1      28.098 -13.117   5.546  0.00  0.00     0.189 A 
ATOM     25  N   UNL d   1      27.814 -12.176   4.646  0.00  0.00    -0.210 NA
ATOM     26  C   UNL d   1      27.690 -12.571   3.372  0.00  0.00     0.146 A 
ATOM     27 CL   UNL d   1      27.111 -11.283   2.418  0.00  0.00    -0.061 Cl
BRANCH  24  28
ATOM     28  S   UNL d   1      28.097 -12.513   7.201  0.00  0.00    -0.086 SA
BRANCH  28  29
ATOM     29  C   UNL d   1      29.836 -12.639   7.704  0.00  0.00     0.121 C 
BRANCH  29  30
ATOM     30  C   UNL d   1      30.018 -13.716   8.762  0.00  0.00    -0.048 A 
ATOM     31  C   UNL d   1      28.984 -14.033   9.665  0.00  0.00     0.011 A 
ATOM     32  C   UNL d   1      29.191 -14.947  10.699  0.00  0.00     0.043 A 
ATOM     33  C   UNL d   1      30.411 -15.600  10.798  0.00  0.00     0.116 A 
ATOM     34  F   UNL d   1      30.588 -16.523  11.751  0.00  0.00    -0.206 F 
ATOM     35  C   UNL d   1      31.444 -15.316   9.913  0.00  0.00     0.043 A 
ATOM     36  C   UNL d   1      31.254 -14.370   8.903  0.00  0.00     0.011 A 
ENDBRANCH  29  30
ENDBRANCH  28  29
ENDBRANCH  24  28
ENDBRANCH   2  21
TORSDOF 10
ENDMDL
MODEL 5
REMARK VINA RESULT:    -9.208      1.442      1.980
REMARK INTER + INTRA:         -14.034
REMARK INTER:                 -12.191
REMARK INTRA:                  -1.843
REMARK CONF_INDEPENDENT:        2.983
REMARK UNBOUND:                -1.843
REMARK  10 active torsions:
REMARK  status: ('A' for Active; 'I' for Inactive)
REMARK    1  A    between atoms: O_2  and  C_3 
REMARK    2  A    between atoms: C_6  and  C_7 
REMARK    3  A    between atoms: C_7  and  C_8 
REMARK    4  A    between atoms: C_7  and  N_28 
REMARK    5  A    between atoms: C_8  and  N_9 
REMARK       I    between atoms: N_9  and  C_10 
REMARK    6  A    between atoms: C_10  and  C_12 
REMARK    7  A    between atoms: C_15  and  S_16 
REMARK    8  A    between atoms: S_16  and  C_17 
REMARK    9  A    between atoms: C_17  and  C_18 
REMARK   10  A    between atoms: C_32  and  O_33 
ROOT
ATOM      1  N   UNL d   1      28.498 -15.501   1.020  0.00  0.00    -0.354 N 
ATOM      2  C   UNL d   1      27.835 -15.600  -0.181  0.00  0.00     0.256 C 
ATOM      3  O   UNL d   1      28.219 -15.013  -1.196  0.00  0.00    -0.268 OA
ATOM      4  H   UNL d   1      28.196 -16.117   1.762  0.00  0.00     0.162 HD
ENDROOT
BRANCH   1   5
ATOM      5  C   UNL d   1      29.620 -14.586   1.248  0.00  0.00     0.161 C 
BRANCH   5   6
ATOM      6  C   UNL d   1      29.223 -13.125   1.691  0.00  0.00     0.237 C 
BRANCH   6   7
ATOM      7  C   UNL d   1      28.923 -13.105   3.188  0.00  0.00    -0.023 C 
ATOM      8  C   UNL d   1      28.708 -14.270   3.911  0.00  0.00     0.012 C 
ATOM      9  C   UNL d   1      28.265 -14.226   5.240  0.00  0.00     0.040 C 
ATOM     10  C   UNL d   1      28.258 -13.040   5.984  0.00  0.00     0.101 C 
ATOM     11  C   UNL d   1      28.601 -11.871   5.301  0.00  0.00     0.102 C 
ATOM     12  C   UNL d   1      28.825 -11.921   3.918  0.00  0.00     0.049 C 
BRANCH  10  13
ATOM     13  O   UNL d   1      28.160 -13.285   7.327  0.00  0.00    -0.353 OA
ATOM     14  C   UNL d   1      29.136 -14.045   8.029  0.00  0.00     0.210 C 
ENDBRANCH  10  13
BRANCH  11  15
ATOM     15  O   UNL d   1      28.869 -10.588   5.703  0.00  0.00    -0.353 OA
ATOM     16  C   UNL d   1      29.021 -10.445   7.081  0.00  0.00     0.210 C 
ENDBRANCH  11  15
ENDBRANCH   6   7
BRANCH   6  17
ATOM     17  N   UNL d   1      28.040 -12.584   0.851  0.00  0.00    -0.069 N 
ATOM     18  C   UNL d   1      26.817 -12.252   1.700  0.00  0.00     0.270 C 
ATOM     19  C   UNL d   1      28.362 -11.371   0.026  0.00  0.00     0.270 C 
ATOM     20  H   UNL d   1      27.796 -13.333   0.188  0.00  0.00     0.279 HD
ENDBRANCH   6  17
ENDBRANCH   5   6
ENDBRANCH   1   5
BRANCH   2  21
ATOM     21  C   UNL d   1      26.664 -16.496  -0.231  0.00  0.00     0.090 A 
ATOM     22  C   UNL d   1      26.605 -17.648   0.520  0.00  0.00     0.139 A 
ATOM     23  N   UNL d   1      25.560 -18.523   0.499  0.00  0.00    -0.234 NA
ATOM     24  C   UNL d   1      24.542 -18.227  -0.324  0.00  0.00     0.189 A 
ATOM     25  N   UNL d   1      24.503 -17.133  -1.084  0.00  0.00    -0.210 NA
ATOM     26  C   UNL d   1      25.571 -16.325  -1.043  0.00  0.00     0.146 A 
ATOM     27 CL   UNL d   1      25.432 -15.115  -2.236  0.00  0.00    -0.061 Cl
BRANCH  24  28
ATOM     28  S   UNL d   1      23.154 -19.284  -0.564  0.00  0.00    -0.086 SA
BRANCH  28  29
ATOM     29  C   UNL d   1      21.784 -18.374   0.203  0.00  0.00     0.121 C 
BRANCH  29  30
ATOM     30  C   UNL d   1      20.597 -19.291   0.455  0.00  0.00    -0.048 A 
ATOM     31  C   UNL d   1      19.753 -19.696  -0.597  0.00  0.00     0.011 A 
ATOM     32  C   UNL d   1      18.607 -20.451  -0.346  0.00  0.00     0.043 A 
ATOM     33  C   UNL d   1      18.332 -20.862   0.951  0.00  0.00     0.116 A 
ATOM     34  F   UNL d   1      17.267 -21.640   1.183  0.00  0.00    -0.206 F 
ATOM     35  C   UNL d   1      19.155 -20.487   2.007  0.00  0.00     0.043 A 
ATOM     36  C   UNL d   1      20.280 -19.695   1.763  0.00  0.00     0.011 A 
ENDBRANCH  29  30
ENDBRANCH  28  29
ENDBRANCH  24  28
ENDBRANCH   2  21
TORSDOF 10
ENDMDL
MODEL 6
REMARK VINA RESULT:    -9.054      5.050     10.220
REMARK INTER + INTRA:         -13.560
REMARK INTER:                 -12.037
REMARK INTRA:                  -1.523
REMARK CONF_INDEPENDENT:        2.983
REMARK UNBOUND:                -1.523
REMARK  10 active torsions:
REMARK  status: ('A' for Active; 'I' for Inactive)
REMARK    1  A    between atoms: O_2  and  C_3 
REMARK    2  A    between atoms: C_6  and  C_7 
REMARK    3  A    between atoms: C_7  and  C_8 
REMARK    4  A    between atoms: C_7  and  N_28 
REMARK    5  A    between atoms: C_8  and  N_9 
REMARK       I    between atoms: N_9  and  C_10 
REMARK    6  A    between atoms: C_10  and  C_12 
REMARK    7  A    between atoms: C_15  and  S_16 
REMARK    8  A    between atoms: S_16  and  C_17 
REMARK    9  A    between atoms: C_17  and  C_18 
REMARK   10  A    between atoms: C_32  and  O_33 
ROOT
ATOM      1  N   UNL d   1      28.742 -14.457   1.850  0.00  0.00    -0.354 N 
ATOM      2  C   UNL d   1      27.884 -13.818   2.714  0.00  0.00     0.256 C 
ATOM      3  O   UNL d   1      26.857 -13.254   2.327  0.00  0.00    -0.268 OA
ATOM      4  H   UNL d   1      29.484 -15.005   2.263  0.00  0.00     0.162 HD
ENDROOT
BRANCH   1   5
ATOM      5  C   UNL d   1      28.603 -14.405   0.392  0.00  0.00     0.161 C 
BRANCH   5   6
ATOM      6  C   UNL d   1      28.663 -15.799  -0.344  0.00  0.00     0.237 C 
BRANCH   6   7
ATOM      7  C   UNL d   1      27.297 -16.477  -0.274  0.00  0.00    -0.023 C 
ATOM      8  C   UNL d   1      27.020 -17.479   0.646  0.00  0.00     0.012 C 
ATOM      9  C   UNL d   1      25.825 -18.209   0.583  0.00  0.00     0.040 C 
ATOM     10  C   UNL d   1      24.753 -17.814  -0.227  0.00  0.00     0.101 C 
ATOM     11  C   UNL d   1      24.973 -16.721  -1.067  0.00  0.00     0.102 C 
ATOM     12  C   UNL d   1      26.252 -16.152  -1.138  0.00  0.00     0.049 C 
BRANCH  10  13
ATOM     13  O   UNL d   1      23.585 -18.425   0.145  0.00  0.00    -0.353 OA
ATOM     14  C   UNL d   1      22.365 -18.209  -0.552  0.00  0.00     0.210 C 
ENDBRANCH  10  13
BRANCH  11  15
ATOM     15  O   UNL d   1      24.151 -15.954  -1.852  0.00  0.00    -0.353 OA
ATOM     16  C   UNL d   1      24.818 -14.979  -2.591  0.00  0.00     0.210 C 
ENDBRANCH  11  15
ENDBRANCH   6   7
BRANCH   6  17
ATOM     17  N   UNL d   1      29.789 -16.691   0.230  0.00  0.00    -0.069 N 
ATOM     18  C   UNL d   1      30.105 -17.889  -0.659  0.00  0.00     0.270 C 
ATOM     19  C   UNL d   1      31.082 -15.974   0.499  0.00  0.00     0.270 C 
ATOM     20  H   UNL d   1      29.447 -17.031   1.141  0.00  0.00     0.279 HD
ENDBRANCH   6  17
ENDBRANCH   5   6
ENDBRANCH   1   5
BRANCH   2  21
ATOM     21  C   UNL d   1      28.206 -13.882   4.153  0.00  0.00     0.090 A 
ATOM     22  C   UNL d   1      28.258 -15.081   4.826  0.00  0.00     0.139 A 
ATOM     23  N   UNL d   1      28.530 -15.201   6.157  0.00  0.00    -0.234 NA
ATOM     24  C   UNL d   1      28.745 -14.061   6.833  0.00  0.00     0.189 A 
ATOM     25  N   UNL d   1      28.723 -12.854   6.269  0.00  0.00    -0.210 NA
ATOM     26  C   UNL d   1      28.422 -12.798   4.965  0.00  0.00     0.146 A 
ATOM     27 CL   UNL d   1      28.226 -11.175   4.483  0.00  0.00    -0.061 Cl
BRANCH  24  28
ATOM     28  S   UNL d   1      29.010 -14.006   8.574  0.00  0.00    -0.086 SA
BRANCH  28  29
ATOM     29  C   UNL d   1      28.157 -12.489   9.089  0.00  0.00     0.121 C 
BRANCH  29  30
ATOM     30  C   UNL d   1      29.098 -11.295   9.046  0.00  0.00    -0.048 A 
ATOM     31  C   UNL d   1      30.074 -11.100  10.043  0.00  0.00     0.011 A 
ATOM     32  C   UNL d   1      30.865  -9.951  10.057  0.00  0.00     0.043 A 
ATOM     33  C   UNL d   1      30.732  -9.020   9.037  0.00  0.00     0.116 A 
ATOM     34  F   UNL d   1      31.534  -7.949   9.015  0.00  0.00    -0.206 F 
ATOM     35  C   UNL d   1      29.786  -9.193   8.033  0.00  0.00     0.043 A 
ATOM     36  C   UNL d   1      28.963 -10.322   8.042  0.00  0.00     0.011 A 
ENDBRANCH  29  30
ENDBRANCH  28  29
ENDBRANCH  24  28
ENDBRANCH   2  21
TORSDOF 10
ENDMDL
MODEL 7
REMARK VINA RESULT:    -8.937      4.622      9.304
REMARK INTER + INTRA:         -13.837
REMARK INTER:                 -11.920
REMARK INTRA:                  -1.917
REMARK CONF_INDEPENDENT:        2.983
REMARK UNBOUND:                -1.917
REMARK  10 active torsions:
REMARK  status: ('A' for Active; 'I' for Inactive)
REMARK    1  A    between atoms: O_2  and  C_3 
REMARK    2  A    between atoms: C_6  and  C_7 
REMARK    3  A    between atoms: C_7  and  C_8 
REMARK    4  A    between atoms: C_7  and  N_28 
REMARK    5  A    between atoms: C_8  and  N_9 
REMARK       I    between atoms: N_9  and  C_10 
REMARK    6  A    between atoms: C_10  and  C_12 
REMARK    7  A    between atoms: C_15  and  S_16 
REMARK    8  A    between atoms: S_16  and  C_17 
REMARK    9  A    between atoms: C_17  and  C_18 
REMARK   10  A    between atoms: C_32  and  O_33 
ROOT
ATOM      1  N   UNL d   1      29.446 -14.956   1.313  0.00  0.00    -0.354 N 
ATOM      2  C   UNL d   1      28.601 -14.201   2.092  0.00  0.00     0.256 C 
ATOM      3  O   UNL d   1      27.653 -13.571   1.615  0.00  0.00    -0.268 OA
ATOM      4  H   UNL d   1      30.112 -15.544   1.797  0.00  0.00     0.162 HD
ENDROOT
BRANCH   1   5
ATOM      5  C   UNL d   1      29.397 -14.969  -0.151  0.00  0.00     0.161 C 
BRANCH   5   6
ATOM      6  C   UNL d   1      29.161 -16.383  -0.809  0.00  0.00     0.237 C 
BRANCH   6   7
ATOM      7  C   UNL d   1      27.697 -16.787  -0.649  0.00  0.00    -0.023 C 
ATOM      8  C   UNL d   1      27.281 -17.673   0.334  0.00  0.00     0.012 C 
ATOM      9  C   UNL d   1      25.969 -18.166   0.357  0.00  0.00     0.040 C 
ATOM     10  C   UNL d   1      24.952 -17.614  -0.431  0.00  0.00     0.101 C 
ATOM     11  C   UNL d   1      25.333 -16.622  -1.338  0.00  0.00     0.102 C 
ATOM     12  C   UNL d   1      26.691 -16.310  -1.489  0.00  0.00     0.049 C 
BRANCH  10  13
ATOM     13  O   UNL d   1      23.710 -17.975   0.018  0.00  0.00    -0.353 OA
ATOM     14  C   UNL d   1      22.918 -18.946  -0.653  0.00  0.00     0.210 C 
ENDBRANCH  10  13
BRANCH  11  15
ATOM     15  O   UNL d   1      24.632 -15.751  -2.132  0.00  0.00    -0.353 OA
ATOM     16  C   UNL d   1      25.436 -14.916  -2.906  0.00  0.00     0.210 C 
ENDBRANCH  11  15
ENDBRANCH   6   7
BRANCH   6  17
ATOM     17  N   UNL d   1      30.126 -17.444  -0.226  0.00  0.00    -0.069 N 
ATOM     18  C   UNL d   1      30.409 -18.583  -1.201  0.00  0.00     0.270 C 
ATOM     19  C   UNL d   1      31.450 -16.901   0.232  0.00  0.00     0.270 C 
ATOM     20  H   UNL d   1      29.660 -17.825   0.609  0.00  0.00     0.279 HD
ENDBRANCH   6  17
ENDBRANCH   5   6
ENDBRANCH   1   5
BRANCH   2  21
ATOM     21  C   UNL d   1      28.833 -14.217   3.549  0.00  0.00     0.090 A 
ATOM     22  C   UNL d   1      27.950 -14.824   4.412  0.00  0.00     0.139 A 
ATOM     23  N   UNL d   1      28.102 -14.853   5.767  0.00  0.00    -0.234 NA
ATOM     24  C   UNL d   1      29.182 -14.232   6.266  0.00  0.00     0.189 A 
ATOM     25  N   UNL d   1      30.096 -13.624   5.512  0.00  0.00    -0.210 NA
ATOM     26  C   UNL d   1      29.879 -13.603   4.191  0.00  0.00     0.146 A 
ATOM     27 CL   UNL d   1      31.026 -12.599   3.428  0.00  0.00    -0.061 Cl
BRANCH  24  28
ATOM     28  S   UNL d   1      29.494 -14.075   7.993  0.00  0.00    -0.086 SA
BRANCH  28  29
ATOM     29  C   UNL d   1      28.578 -12.580   8.460  0.00  0.00     0.121 C 
BRANCH  29  30
ATOM     30  C   UNL d   1      28.643 -11.537   7.356  0.00  0.00    -0.048 A 
ATOM     31  C   UNL d   1      27.774 -11.594   6.247  0.00  0.00     0.011 A 
ATOM     32  C   UNL d   1      27.906 -10.698   5.186  0.00  0.00     0.043 A 
ATOM     33  C   UNL d   1      28.863  -9.696   5.256  0.00  0.00     0.116 A 
ATOM     34  F   UNL d   1      28.947  -8.797   4.267  0.00  0.00    -0.206 F 
ATOM     35  C   UNL d   1      29.725  -9.608   6.343  0.00  0.00     0.043 A 
ATOM     36  C   UNL d   1      29.623 -10.531   7.386  0.00  0.00     0.011 A 
ENDBRANCH  29  30
ENDBRANCH  28  29
ENDBRANCH  24  28
ENDBRANCH   2  21
TORSDOF 10
ENDMDL
MODEL 8
REMARK VINA RESULT:    -8.910      3.910      6.384
REMARK INTER + INTRA:         -13.539
REMARK INTER:                 -11.893
REMARK INTRA:                  -1.646
REMARK CONF_INDEPENDENT:        2.983
REMARK UNBOUND:                -1.646
REMARK  10 active torsions:
REMARK  status: ('A' for Active; 'I' for Inactive)
REMARK    1  A    between atoms: O_2  and  C_3 
REMARK    2  A    between atoms: C_6  and  C_7 
REMARK    3  A    between atoms: C_7  and  C_8 
REMARK    4  A    between atoms: C_7  and  N_28 
REMARK    5  A    between atoms: C_8  and  N_9 
REMARK       I    between atoms: N_9  and  C_10 
REMARK    6  A    between atoms: C_10  and  C_12 
REMARK    7  A    between atoms: C_15  and  S_16 
REMARK    8  A    between atoms: S_16  and  C_17 
REMARK    9  A    between atoms: C_17  and  C_18 
REMARK   10  A    between atoms: C_32  and  O_33 
ROOT
ATOM      1  N   UNL d   1      29.141 -16.747  -0.161  0.00  0.00    -0.354 N 
ATOM      2  C   UNL d   1      27.988 -16.066  -0.477  0.00  0.00     0.256 C 
ATOM      3  O   UNL d   1      27.992 -14.872  -0.786  0.00  0.00    -0.268 OA
ATOM      4  H   UNL d   1      29.066 -17.748  -0.050  0.00  0.00     0.162 HD
ENDROOT
BRANCH   1   5
ATOM      5  C   UNL d   1      30.446 -16.096  -0.015  0.00  0.00     0.161 C 
BRANCH   5   6
ATOM      6  C   UNL d   1      31.423 -16.256  -1.243  0.00  0.00     0.237 C 
BRANCH   6   7
ATOM      7  C   UNL d   1      30.636 -16.132  -2.546  0.00  0.00    -0.023 C 
ATOM      8  C   UNL d   1      29.970 -14.966  -2.895  0.00  0.00     0.012 C 
ATOM      9  C   UNL d   1      29.112 -14.926  -4.004  0.00  0.00     0.040 C 
ATOM     10  C   UNL d   1      29.074 -15.955  -4.953  0.00  0.00     0.101 C 
ATOM     11  C   UNL d   1      29.845 -17.087  -4.680  0.00  0.00     0.102 C 
ATOM     12  C   UNL d   1      30.518 -17.184  -3.455  0.00  0.00     0.049 C 
BRANCH  10  13
ATOM     13  O   UNL d   1      28.476 -15.549  -6.116  0.00  0.00    -0.353 OA
ATOM     14  C   UNL d   1      28.713 -14.265  -6.678  0.00  0.00     0.210 C 
ENDBRANCH  10  13
BRANCH  11  15
ATOM     15  O   UNL d   1      30.195 -18.189  -5.417  0.00  0.00    -0.353 OA
ATOM     16  C   UNL d   1      31.144 -17.933  -6.406  0.00  0.00     0.210 C 
ENDBRANCH  11  15
ENDBRANCH   6   7
BRANCH   6  17
ATOM     17  N   UNL d   1      32.215 -17.583  -1.163  0.00  0.00    -0.069 N 
ATOM     18  C   UNL d   1      33.276 -17.572  -0.068  0.00  0.00     0.270 C 
ATOM     19  C   UNL d   1      31.369 -18.807  -0.961  0.00  0.00     0.270 C 
ATOM     20  H   UNL d   1      32.678 -17.694  -2.077  0.00  0.00     0.279 HD
ENDBRANCH   6  17
ENDBRANCH   5   6
ENDBRANCH   1   5
BRANCH   2  21
ATOM     21  C   UNL d   1      26.733 -16.841  -0.494  0.00  0.00     0.090 A 
ATOM     22  C   UNL d   1      26.479 -17.823   0.436  0.00  0.00     0.139 A 
ATOM     23  N   UNL d   1      25.348 -18.584   0.457  0.00  0.00    -0.234 NA
ATOM     24  C   UNL d   1      24.446 -18.351  -0.509  0.00  0.00     0.189 A 
ATOM     25  N   UNL d   1      24.597 -17.418  -1.449  0.00  0.00    -0.210 NA
ATOM     26  C   UNL d   1      25.741 -16.722  -1.436  0.00  0.00     0.146 A 
ATOM     27 CL   UNL d   1      25.845 -15.746  -2.830  0.00  0.00    -0.061 Cl
BRANCH  24  28
ATOM     28  S   UNL d   1      22.974 -19.298  -0.707  0.00  0.00    -0.086 SA
BRANCH  28  29
ATOM     29  C   UNL d   1      21.729 -18.354   0.216  0.00  0.00     0.121 C 
BRANCH  29  30
ATOM     30  C   UNL d   1      20.533 -19.226   0.563  0.00  0.00    -0.048 A 
ATOM     31  C   UNL d   1      20.249 -19.575   1.898  0.00  0.00     0.011 A 
ATOM     32  C   UNL d   1      19.215 -20.460   2.203  0.00  0.00     0.043 A 
ATOM     33  C   UNL d   1      18.415 -20.951   1.181  0.00  0.00     0.116 A 
ATOM     34  F   UNL d   1      17.382 -21.750   1.480  0.00  0.00    -0.206 F 
ATOM     35  C   UNL d   1      18.664 -20.614  -0.144  0.00  0.00     0.043 A 
ATOM     36  C   UNL d   1      19.727 -19.762  -0.455  0.00  0.00     0.011 A 
ENDBRANCH  29  30
ENDBRANCH  28  29
ENDBRANCH  24  28
ENDBRANCH   2  21
TORSDOF 10
ENDMDL
MODEL 9
REMARK VINA RESULT:    -8.602      3.235      5.983
REMARK INTER + INTRA:         -13.782
REMARK INTER:                 -11.585
REMARK INTRA:                  -2.198
REMARK CONF_INDEPENDENT:        2.983
REMARK UNBOUND:                -2.198
REMARK  10 active torsions:
REMARK  status: ('A' for Active; 'I' for Inactive)
REMARK    1  A    between atoms: O_2  and  C_3 
REMARK    2  A    between atoms: C_6  and  C_7 
REMARK    3  A    between atoms: C_7  and  C_8 
REMARK    4  A    between atoms: C_7  and  N_28 
REMARK    5  A    between atoms: C_8  and  N_9 
REMARK       I    between atoms: N_9  and  C_10 
REMARK    6  A    between atoms: C_10  and  C_12 
REMARK    7  A    between atoms: C_15  and  S_16 
REMARK    8  A    between atoms: S_16  and  C_17 
REMARK    9  A    between atoms: C_17  and  C_18 
REMARK   10  A    between atoms: C_32  and  O_33 
ROOT
ATOM      1  N   UNL d   1      29.132 -15.638  -0.872  0.00  0.00    -0.354 N 
ATOM      2  C   UNL d   1      28.287 -15.850   0.193  0.00  0.00     0.256 C 
ATOM      3  O   UNL d   1      28.510 -15.386   1.314  0.00  0.00    -0.268 OA
ATOM      4  H   UNL d   1      28.808 -15.940  -1.780  0.00  0.00     0.162 HD
ENDROOT
BRANCH   1   5
ATOM      5  C   UNL d   1      30.434 -14.977  -0.747  0.00  0.00     0.161 C 
BRANCH   5   6
ATOM      6  C   UNL d   1      31.593 -15.870  -0.158  0.00  0.00     0.237 C 
BRANCH   6   7
ATOM      7  C   UNL d   1      31.682 -17.178  -0.940  0.00  0.00    -0.023 C 
ATOM      8  C   UNL d   1      32.380 -17.275  -2.136  0.00  0.00     0.012 C 
ATOM      9  C   UNL d   1      32.306 -18.431  -2.926  0.00  0.00     0.040 C 
ATOM     10  C   UNL d   1      31.749 -19.624  -2.450  0.00  0.00     0.101 C 
ATOM     11  C   UNL d   1      31.156 -19.577  -1.186  0.00  0.00     0.102 C 
ATOM     12  C   UNL d   1      31.053 -18.350  -0.518  0.00  0.00     0.049 C 
BRANCH  10  13
ATOM     13  O   UNL d   1      32.119 -20.697  -3.216  0.00  0.00    -0.353 OA
ATOM     14  C   UNL d   1      31.356 -21.123  -4.337  0.00  0.00     0.210 C 
ENDBRANCH  10  13
BRANCH  11  15
ATOM     15  O   UNL d   1      30.675 -20.538  -0.334  0.00  0.00    -0.353 OA
ATOM     16  C   UNL d   1      31.476 -21.676  -0.252  0.00  0.00     0.210 C 
ENDBRANCH  11  15
ENDBRANCH   6   7
BRANCH   6  17
ATOM     17  N   UNL d   1      31.405 -16.108   1.359  0.00  0.00    -0.069 N 
ATOM     18  C   UNL d   1      32.368 -17.152   1.917  0.00  0.00     0.270 C 
ATOM     19  C   UNL d   1      31.535 -14.875   2.207  0.00  0.00     0.270 C 
ATOM     20  H   UNL d   1      30.439 -16.445   1.477  0.00  0.00     0.279 HD
ENDBRANCH   6  17
ENDBRANCH   5   6
ENDBRANCH   1   5
BRANCH   2  21
ATOM     21  C   UNL d   1      27.053 -16.614  -0.070  0.00  0.00     0.090 A 
ATOM     22  C   UNL d   1      26.839 -17.853   0.491  0.00  0.00     0.139 A 
ATOM     23  N   UNL d   1      25.729 -18.613   0.268  0.00  0.00    -0.234 NA
ATOM     24  C   UNL d   1      24.807 -18.104  -0.565  0.00  0.00     0.189 A 
ATOM     25  N   UNL d   1      24.920 -16.912  -1.149  0.00  0.00    -0.210 NA
ATOM     26  C   UNL d   1      26.045 -16.224  -0.916  0.00  0.00     0.146 A 
ATOM     27 CL   UNL d   1      26.102 -14.845  -1.916  0.00  0.00    -0.061 Cl
BRANCH  24  28
ATOM     28  S   UNL d   1      23.358 -18.980  -1.053  0.00  0.00    -0.086 SA
BRANCH  28  29
ATOM     29  C   UNL d   1      22.009 -18.037  -0.287  0.00  0.00     0.121 C 
BRANCH  29  30
ATOM     30  C   UNL d   1      20.851 -18.950   0.081  0.00  0.00    -0.048 A 
ATOM     31  C   UNL d   1      19.904 -19.351  -0.882  0.00  0.00     0.011 A 
ATOM     32  C   UNL d   1      18.786 -20.102  -0.519  0.00  0.00     0.043 A 
ATOM     33  C   UNL d   1      18.640 -20.514   0.798  0.00  0.00     0.116 A 
ATOM     34  F   UNL d   1      17.601 -21.288   1.134  0.00  0.00    -0.206 F 
ATOM     35  C   UNL d   1      19.565 -20.144   1.767  0.00  0.00     0.043 A 
ATOM     36  C   UNL d   1      20.663 -19.355   1.413  0.00  0.00     0.011 A 
ENDBRANCH  29  30
ENDBRANCH  28  29
ENDBRANCH  24  28
ENDBRANCH   2  21
TORSDOF 10
ENDMDL
