MODEL 1
REMARK VINA RESULT:    -7.922      0.000      0.000
REMARK INTER + INTRA:         -15.417
REMARK INTER:                 -11.800
REMARK INTRA:                  -3.617
REMARK CONF_INDEPENDENT:        3.878
REMARK UNBOUND:                -3.617
REMARK  13 active torsions:
REMARK  status: ('A' for Active; 'I' for Inactive)
REMARK    1  A    between atoms: C_2  and  C_3 
REMARK    2  A    between atoms: C_3  and  C_4 
REMARK    3  A    between atoms: C_4  and  N_5 
REMARK       I    between atoms: N_5  and  C_6 
REMARK    4  A    between atoms: C_6  and  C_8 
REMARK    5  A    between atoms: C_8  and  C_9 
REMARK    6  A    between atoms: C_8  and  N_18 
REMARK    7  A    between atoms: C_10  and  O_11 
REMARK    8  A    between atoms: C_13  and  O_14 
REMARK    9  A    between atoms: C_16  and  O_17 
REMARK       I    between atoms: N_18  and  C_20 
REMARK   10  A    between atoms: C_20  and  C_22 
REMARK   11  A    between atoms: C_22  and  O_23 
REMARK   12  A    between atoms: C_22  and  C_24 
REMARK   13  A    between atoms: C_22  and  C_30 
ROOT
ATOM      1  C   UNL d   1      25.364 -15.657  -0.558  0.00  0.00     0.217 C 
ENDROOT
BRANCH   1   2
ATOM      2  C   UNL d   1      24.732 -17.032  -0.115  0.00  0.00     0.245 C 
ATOM      3  N   UNL d   1      23.467 -17.361  -0.528  0.00  0.00    -0.359 N 
ATOM      4  H   UNL d   1      22.878 -16.698  -1.016  0.00  0.00     0.162 HD
ATOM      5  O   UNL d   1      25.303 -17.908   0.551  0.00  0.00    -0.271 OA
BRANCH   3   6
ATOM      6  C   UNL d   1      22.949 -18.600   0.019  0.00  0.00     0.122 C 
BRANCH   6   7
ATOM      7  C   UNL d   1      21.637 -18.990  -0.599  0.00  0.00     0.019 C 
BRANCH   7   8
ATOM      8  C   UNL d   1      20.645 -19.412   0.477  0.00  0.00    -0.003 C 
ATOM      9  C   UNL d   1      19.389 -19.946  -0.178  0.00  0.00     0.005 C 
ENDBRANCH   7   8
ENDBRANCH   6   7
ENDBRANCH   3   6
ENDBRANCH   1   2
BRANCH   1  10
ATOM     10  C   UNL d   1      26.749 -15.474   0.074  0.00  0.00     0.040 A 
ATOM     11  C   UNL d   1      27.140 -14.375   0.865  0.00  0.00     0.080 A 
ATOM     12  C   UNL d   1      28.463 -14.236   1.310  0.00  0.00     0.073 A 
ATOM     13  C   UNL d   1      29.401 -15.210   0.988  0.00  0.00     0.071 A 
ATOM     14  C   UNL d   1      29.044 -16.309   0.223  0.00  0.00     0.073 A 
ATOM     15  C   UNL d   1      27.735 -16.428  -0.230  0.00  0.00     0.080 A 
BRANCH  11  16
ATOM     16  O   UNL d   1      26.294 -13.378   1.274  0.00  0.00    -0.360 OA
ATOM     17  H   UNL d   1      25.914 -12.922   0.506  0.00  0.00     0.217 HD
ENDBRANCH  11  16
BRANCH  13  18
ATOM     18  O   UNL d   1      30.696 -15.140   1.408  0.00  0.00    -0.361 OA
ATOM     19  H   UNL d   1      30.820 -15.752   2.151  0.00  0.00     0.217 HD
ENDBRANCH  13  18
BRANCH  15  20
ATOM     20  O   UNL d   1      27.393 -17.499  -1.009  0.00  0.00    -0.360 OA
ATOM     21  H   UNL d   1      26.714 -18.021  -0.554  0.00  0.00     0.217 HD
ENDBRANCH  15  20
ENDBRANCH   1  10
BRANCH   1  22
ATOM     22  N   UNL d   1      25.447 -15.398  -2.037  0.00  0.00    -0.336 N 
ATOM     23  C   UNL d   1      25.155 -16.465  -2.981  0.00  0.00     0.154 C 
ATOM     24  C   UNL d   1      25.831 -14.110  -2.480  0.00  0.00     0.264 C 
ATOM     25  O   UNL d   1      25.972 -13.191  -1.662  0.00  0.00    -0.269 OA
BRANCH  24  26
ATOM     26  C   UNL d   1      25.974 -13.848  -4.073  0.00  0.00     0.194 C 
BRANCH  26  27
ATOM     27  O   UNL d   1      24.870 -14.376  -4.820  0.00  0.00    -0.371 OA
ATOM     28  H   UNL d   1      24.345 -13.655  -5.174  0.00  0.00     0.212 HD
ENDBRANCH  26  27
BRANCH  26  29
ATOM     29  C   UNL d   1      26.123 -12.328  -4.277  0.00  0.00    -0.010 C 
ATOM     30  C   UNL d   1      26.883 -11.500  -3.438  0.00  0.00     0.011 C 
ATOM     31  C   UNL d   1      26.958 -10.130  -3.699  0.00  0.00     0.001 C 
ATOM     32  C   UNL d   1      26.269  -9.571  -4.779  0.00  0.00     0.000 C 
ATOM     33  C   UNL d   1      25.535 -10.378  -5.633  0.00  0.00     0.001 C 
ATOM     34  C   UNL d   1      25.534 -11.744  -5.423  0.00  0.00     0.011 C 
ENDBRANCH  26  29
BRANCH  26  35
ATOM     35  C   UNL d   1      27.209 -14.613  -4.626  0.00  0.00    -0.010 A 
ATOM     36  C   UNL d   1      28.047 -15.348  -3.772  0.00  0.00     0.011 A 
ATOM     37  C   UNL d   1      29.270 -15.844  -4.232  0.00  0.00     0.001 A 
ATOM     38  C   UNL d   1      29.650 -15.679  -5.562  0.00  0.00     0.000 A 
ATOM     39  C   UNL d   1      28.813 -15.016  -6.438  0.00  0.00     0.001 A 
ATOM     40  C   UNL d   1      27.611 -14.509  -5.972  0.00  0.00     0.011 A 
ENDBRANCH  26  35
ENDBRANCH  24  26
ENDBRANCH   1  22
TORSDOF 13
ENDMDL
MODEL 2
REMARK VINA RESULT:    -7.365      2.517      5.668
REMARK INTER + INTRA:         -14.672
REMARK INTER:                 -11.243
REMARK INTRA:                  -3.429
REMARK CONF_INDEPENDENT:        3.878
REMARK UNBOUND:                -3.429
REMARK  13 active torsions:
REMARK  status: ('A' for Active; 'I' for Inactive)
REMARK    1  A    between atoms: C_2  and  C_3 
REMARK    2  A    between atoms: C_3  and  C_4 
REMARK    3  A    between atoms: C_4  and  N_5 
REMARK       I    between atoms: N_5  and  C_6 
REMARK    4  A    between atoms: C_6  and  C_8 
REMARK    5  A    between atoms: C_8  and  C_9 
REMARK    6  A    between atoms: C_8  and  N_18 
REMARK    7  A    between atoms: C_10  and  O_11 
REMARK    8  A    between atoms: C_13  and  O_14 
REMARK    9  A    between atoms: C_16  and  O_17 
REMARK       I    between atoms: N_18  and  C_20 
REMARK   10  A    between atoms: C_20  and  C_22 
REMARK   11  A    between atoms: C_22  and  O_23 
REMARK   12  A    between atoms: C_22  and  C_24 
REMARK   13  A    between atoms: C_22  and  C_30 
ROOT
ATOM      1  C   UNL d   1      27.092 -15.919  -3.061  0.00  0.00     0.217 C 
ENDROOT
BRANCH   1   2
ATOM      2  C   UNL d   1      26.785 -16.446  -1.607  0.00  0.00     0.245 C 
ATOM      3  N   UNL d   1      25.602 -17.090  -1.355  0.00  0.00    -0.359 N 
ATOM      4  H   UNL d   1      24.866 -17.139  -2.048  0.00  0.00     0.162 HD
ATOM      5  O   UNL d   1      27.557 -16.383  -0.638  0.00  0.00    -0.271 OA
BRANCH   3   6
ATOM      6  C   UNL d   1      25.382 -17.442   0.035  0.00  0.00     0.122 C 
BRANCH   6   7
ATOM      7  C   UNL d   1      24.109 -18.212   0.232  0.00  0.00     0.019 C 
BRANCH   7   8
ATOM      8  C   UNL d   1      22.962 -17.550  -0.521  0.00  0.00    -0.003 C 
ATOM      9  C   UNL d   1      21.930 -18.595  -0.887  0.00  0.00     0.005 C 
ENDBRANCH   7   8
ENDBRANCH   6   7
ENDBRANCH   3   6
ENDBRANCH   1   2
BRANCH   1  10
ATOM     10  C   UNL d   1      26.686 -14.446  -3.195  0.00  0.00     0.040 A 
ATOM     11  C   UNL d   1      27.177 -13.395  -2.394  0.00  0.00     0.080 A 
ATOM     12  C   UNL d   1      26.666 -12.093  -2.512  0.00  0.00     0.073 A 
ATOM     13  C   UNL d   1      25.677 -11.828  -3.452  0.00  0.00     0.071 A 
ATOM     14  C   UNL d   1      25.185 -12.837  -4.263  0.00  0.00     0.073 A 
ATOM     15  C   UNL d   1      25.683 -14.128  -4.125  0.00  0.00     0.080 A 
BRANCH  11  16
ATOM     16  O   UNL d   1      28.174 -13.532  -1.464  0.00  0.00    -0.360 OA
ATOM     17  H   UNL d   1      28.048 -14.347  -0.953  0.00  0.00     0.217 HD
ENDBRANCH  11  16
BRANCH  13  18
ATOM     18  O   UNL d   1      25.156 -10.580  -3.628  0.00  0.00    -0.361 OA
ATOM     19  H   UNL d   1      24.693 -10.549  -4.480  0.00  0.00     0.217 HD
ENDBRANCH  13  18
BRANCH  15  20
ATOM     20  O   UNL d   1      25.173 -15.128  -4.907  0.00  0.00    -0.360 OA
ATOM     21  H   UNL d   1      25.717 -15.217  -5.706  0.00  0.00     0.217 HD
ENDBRANCH  15  20
ENDBRANCH   1  10
BRANCH   1  22
ATOM     22  N   UNL d   1      28.498 -16.101  -3.562  0.00  0.00    -0.336 N 
ATOM     23  C   UNL d   1      29.547 -16.526  -2.648  0.00  0.00     0.154 C 
ATOM     24  C   UNL d   1      28.773 -15.832  -4.924  0.00  0.00     0.264 C 
ATOM     25  O   UNL d   1      27.846 -15.575  -5.703  0.00  0.00    -0.269 OA
BRANCH  24  26
ATOM     26  C   UNL d   1      30.300 -15.976  -5.449  0.00  0.00     0.194 C 
BRANCH  26  27
ATOM     27  O   UNL d   1      31.264 -15.662  -4.436  0.00  0.00    -0.371 OA
ATOM     28  H   UNL d   1      30.990 -14.873  -3.962  0.00  0.00     0.212 HD
ENDBRANCH  26  27
BRANCH  26  29
ATOM     29  C   UNL d   1      30.472 -17.417  -5.971  0.00  0.00    -0.010 C 
ATOM     30  C   UNL d   1      30.789 -17.731  -7.300  0.00  0.00     0.011 C 
ATOM     31  C   UNL d   1      30.923 -19.067  -7.684  0.00  0.00     0.001 C 
ATOM     32  C   UNL d   1      30.726 -20.097  -6.760  0.00  0.00     0.000 C 
ATOM     33  C   UNL d   1      30.438 -19.803  -5.437  0.00  0.00     0.001 C 
ATOM     34  C   UNL d   1      30.394 -18.480  -5.041  0.00  0.00     0.011 C 
ENDBRANCH  26  29
BRANCH  26  35
ATOM     35  C   UNL d   1      30.573 -14.936  -6.571  0.00  0.00    -0.010 A 
ATOM     36  C   UNL d   1      31.881 -14.664  -7.003  0.00  0.00     0.011 A 
ATOM     37  C   UNL d   1      32.138 -13.578  -7.845  0.00  0.00     0.001 A 
ATOM     38  C   UNL d   1      31.097 -12.788  -8.327  0.00  0.00     0.000 A 
ATOM     39  C   UNL d   1      29.795 -13.075  -7.968  0.00  0.00     0.001 A 
ATOM     40  C   UNL d   1      29.547 -14.140  -7.118  0.00  0.00     0.011 A 
ENDBRANCH  26  35
ENDBRANCH  24  26
ENDBRANCH   1  22
TORSDOF 13
ENDMDL
MODEL 3
REMARK VINA RESULT:    -7.260      2.585      6.081
REMARK INTER + INTRA:         -15.437
REMARK INTER:                 -11.138
REMARK INTRA:                  -4.299
REMARK CONF_INDEPENDENT:        3.878
REMARK UNBOUND:                -4.299
REMARK  13 active torsions:
REMARK  status: ('A' for Active; 'I' for Inactive)
REMARK    1  A    between atoms: C_2  and  C_3 
REMARK    2  A    between atoms: C_3  and  C_4 
REMARK    3  A    between atoms: C_4  and  N_5 
REMARK       I    between atoms: N_5  and  C_6 
REMARK    4  A    between atoms: C_6  and  C_8 
REMARK    5  A    between atoms: C_8  and  C_9 
REMARK    6  A    between atoms: C_8  and  N_18 
REMARK    7  A    between atoms: C_10  and  O_11 
REMARK    8  A    between atoms: C_13  and  O_14 
REMARK    9  A    between atoms: C_16  and  O_17 
REMARK       I    between atoms: N_18  and  C_20 
REMARK   10  A    between atoms: C_20  and  C_22 
REMARK   11  A    between atoms: C_22  and  O_23 
REMARK   12  A    between atoms: C_22  and  C_24 
REMARK   13  A    between atoms: C_22  and  C_30 
ROOT
ATOM      1  C   UNL d   1      29.539 -13.717   1.443  0.00  0.00     0.217 C 
ENDROOT
BRANCH   1   2
ATOM      2  C   UNL d   1      28.767 -12.443   0.925  0.00  0.00     0.245 C 
ATOM      3  N   UNL d   1      28.292 -12.414  -0.360  0.00  0.00    -0.359 N 
ATOM      4  H   UNL d   1      28.520 -13.140  -1.028  0.00  0.00     0.162 HD
ATOM      5  O   UNL d   1      28.485 -11.444   1.604  0.00  0.00    -0.271 OA
BRANCH   3   6
ATOM      6  C   UNL d   1      27.687 -11.158  -0.759  0.00  0.00     0.122 C 
BRANCH   6   7
ATOM      7  C   UNL d   1      27.006 -11.253  -2.093  0.00  0.00     0.019 C 
BRANCH   7   8
ATOM      8  C   UNL d   1      26.333 -12.610  -2.253  0.00  0.00    -0.003 C 
ATOM      9  C   UNL d   1      25.617 -12.663  -3.587  0.00  0.00     0.005 C 
ENDBRANCH   7   8
ENDBRANCH   6   7
ENDBRANCH   3   6
ENDBRANCH   1   2
BRANCH   1  10
ATOM     10  C   UNL d   1      29.160 -14.021   2.897  0.00  0.00     0.040 A 
ATOM     11  C   UNL d   1      27.879 -13.836   3.456  0.00  0.00     0.080 A 
ATOM     12  C   UNL d   1      27.650 -14.034   4.826  0.00  0.00     0.073 A 
ATOM     13  C   UNL d   1      28.696 -14.444   5.643  0.00  0.00     0.071 A 
ATOM     14  C   UNL d   1      29.963 -14.648   5.121  0.00  0.00     0.073 A 
ATOM     15  C   UNL d   1      30.185 -14.430   3.766  0.00  0.00     0.080 A 
BRANCH  11  16
ATOM     16  O   UNL d   1      26.770 -13.469   2.740  0.00  0.00    -0.360 OA
ATOM     17  H   UNL d   1      27.030 -13.059   1.901  0.00  0.00     0.217 HD
ENDBRANCH  11  16
BRANCH  13  18
ATOM     18  O   UNL d   1      28.530 -14.673   6.977  0.00  0.00    -0.361 OA
ATOM     19  H   UNL d   1      28.515 -15.631   7.134  0.00  0.00     0.217 HD
ENDBRANCH  13  18
BRANCH  15  20
ATOM     20  O   UNL d   1      31.444 -14.604   3.259  0.00  0.00    -0.360 OA
ATOM     21  H   UNL d   1      32.090 -14.536   3.980  0.00  0.00     0.217 HD
ENDBRANCH  15  20
ENDBRANCH   1  10
BRANCH   1  22
ATOM     22  N   UNL d   1      29.408 -14.967   0.617  0.00  0.00    -0.336 N 
ATOM     23  C   UNL d   1      30.584 -15.765   0.312  0.00  0.00     0.154 C 
ATOM     24  C   UNL d   1      28.127 -15.329   0.134  0.00  0.00     0.264 C 
ATOM     25  O   UNL d   1      27.128 -14.693   0.494  0.00  0.00    -0.269 OA
BRANCH  24  26
ATOM     26  C   UNL d   1      27.996 -16.646  -0.801  0.00  0.00     0.194 C 
BRANCH  26  27
ATOM     27  O   UNL d   1      28.812 -17.733  -0.343  0.00  0.00    -0.371 OA
ATOM     28  H   UNL d   1      28.948 -17.656   0.604  0.00  0.00     0.212 HD
ENDBRANCH  26  27
BRANCH  26  29
ATOM     29  C   UNL d   1      26.505 -17.033  -0.843  0.00  0.00    -0.010 C 
ATOM     30  C   UNL d   1      25.542 -16.344  -1.595  0.00  0.00     0.011 C 
ATOM     31  C   UNL d   1      24.210 -16.766  -1.569  0.00  0.00     0.001 C 
ATOM     32  C   UNL d   1      23.823 -17.857  -0.787  0.00  0.00     0.000 C 
ATOM     33  C   UNL d   1      24.766 -18.565  -0.059  0.00  0.00     0.001 C 
ATOM     34  C   UNL d   1      26.095 -18.200  -0.156  0.00  0.00     0.011 C 
ENDBRANCH  26  29
BRANCH  26  35
ATOM     35  C   UNL d   1      28.536 -16.339  -2.225  0.00  0.00    -0.010 A 
ATOM     36  C   UNL d   1      27.912 -15.386  -3.046  0.00  0.00     0.011 A 
ATOM     37  C   UNL d   1      28.261 -15.274  -4.395  0.00  0.00     0.001 A 
ATOM     38  C   UNL d   1      29.280 -16.056  -4.935  0.00  0.00     0.000 A 
ATOM     39  C   UNL d   1      29.953 -16.955  -4.132  0.00  0.00     0.001 A 
ATOM     40  C   UNL d   1      29.591 -17.075  -2.800  0.00  0.00     0.011 A 
ENDBRANCH  26  35
ENDBRANCH  24  26
ENDBRANCH   1  22
TORSDOF 13
ENDMDL
MODEL 4
REMARK VINA RESULT:    -7.255      2.379      7.352
REMARK INTER + INTRA:         -14.765
REMARK INTER:                 -11.133
REMARK INTRA:                  -3.632
REMARK CONF_INDEPENDENT:        3.878
REMARK UNBOUND:                -3.632
REMARK  13 active torsions:
REMARK  status: ('A' for Active; 'I' for Inactive)
REMARK    1  A    between atoms: C_2  and  C_3 
REMARK    2  A    between atoms: C_3  and  C_4 
REMARK    3  A    between atoms: C_4  and  N_5 
REMARK       I    between atoms: N_5  and  C_6 
REMARK    4  A    between atoms: C_6  and  C_8 
REMARK    5  A    between atoms: C_8  and  C_9 
REMARK    6  A    between atoms: C_8  and  N_18 
REMARK    7  A    between atoms: C_10  and  O_11 
REMARK    8  A    between atoms: C_13  and  O_14 
REMARK    9  A    between atoms: C_16  and  O_17 
REMARK       I    between atoms: N_18  and  C_20 
REMARK   10  A    between atoms: C_20  and  C_22 
REMARK   11  A    between atoms: C_22  and  O_23 
REMARK   12  A    between atoms: C_22  and  C_24 
REMARK   13  A    between atoms: C_22  and  C_30 
ROOT
ATOM      1  C   UNL d   1      26.445 -12.819  -3.992  0.00  0.00     0.217 C 
ENDROOT
BRANCH   1   2
ATOM      2  C   UNL d   1      26.257 -11.254  -3.947  0.00  0.00     0.245 C 
ATOM      3  N   UNL d   1      25.368 -10.653  -4.799  0.00  0.00    -0.359 N 
ATOM      4  H   UNL d   1      24.908 -11.170  -5.539  0.00  0.00     0.162 HD
ATOM      5  O   UNL d   1      26.814 -10.482  -3.152  0.00  0.00    -0.271 OA
BRANCH   3   6
ATOM      6  C   UNL d   1      25.350  -9.205  -4.742  0.00  0.00     0.122 C 
BRANCH   6   7
ATOM      7  C   UNL d   1      24.694  -8.595  -5.946  0.00  0.00     0.019 C 
BRANCH   7   8
ATOM      8  C   UNL d   1      24.145  -7.214  -5.614  0.00  0.00    -0.003 C 
ATOM      9  C   UNL d   1      22.649  -7.306  -5.395  0.00  0.00     0.005 C 
ENDBRANCH   7   8
ENDBRANCH   6   7
ENDBRANCH   3   6
ENDBRANCH   1   2
BRANCH   1  10
ATOM     10  C   UNL d   1      27.627 -13.192  -4.896  0.00  0.00     0.040 A 
ATOM     11  C   UNL d   1      28.749 -12.375  -5.141  0.00  0.00     0.080 A 
ATOM     12  C   UNL d   1      29.730 -12.749  -6.071  0.00  0.00     0.073 A 
ATOM     13  C   UNL d   1      29.609 -13.958  -6.745  0.00  0.00     0.071 A 
ATOM     14  C   UNL d   1      28.525 -14.790  -6.516  0.00  0.00     0.073 A 
ATOM     15  C   UNL d   1      27.548 -14.401  -5.607  0.00  0.00     0.080 A 
BRANCH  11  16
ATOM     16  O   UNL d   1      28.989 -11.183  -4.509  0.00  0.00    -0.360 OA
ATOM     17  H   UNL d   1      28.257 -10.565  -4.663  0.00  0.00     0.217 HD
ENDBRANCH  11  16
BRANCH  13  18
ATOM     18  O   UNL d   1      30.540 -14.386  -7.645  0.00  0.00    -0.361 OA
ATOM     19  H   UNL d   1      30.294 -14.068  -8.529  0.00  0.00     0.217 HD
ENDBRANCH  13  18
BRANCH  15  20
ATOM     20  O   UNL d   1      26.463 -15.211  -5.405  0.00  0.00    -0.360 OA
ATOM     21  H   UNL d   1      26.417 -15.453  -4.466  0.00  0.00     0.217 HD
ENDBRANCH  15  20
ENDBRANCH   1  10
BRANCH   1  22
ATOM     22  N   UNL d   1      26.583 -13.520  -2.669  0.00  0.00    -0.336 N 
ATOM     23  C   UNL d   1      27.604 -13.096  -1.723  0.00  0.00     0.154 C 
ATOM     24  C   UNL d   1      25.717 -14.602  -2.381  0.00  0.00     0.264 C 
ATOM     25  O   UNL d   1      24.791 -14.875  -3.155  0.00  0.00    -0.269 OA
BRANCH  24  26
ATOM     26  C   UNL d   1      25.903 -15.391  -0.977  0.00  0.00     0.194 C 
BRANCH  26  27
ATOM     27  O   UNL d   1      25.944 -14.508   0.151  0.00  0.00    -0.371 OA
ATOM     28  H   UNL d   1      26.116 -13.612  -0.146  0.00  0.00     0.212 HD
ENDBRANCH  26  27
BRANCH  26  29
ATOM     29  C   UNL d   1      24.748 -16.405  -0.864  0.00  0.00    -0.010 C 
ATOM     30  C   UNL d   1      23.394 -16.059  -0.979  0.00  0.00     0.011 C 
ATOM     31  C   UNL d   1      22.414 -17.047  -0.859  0.00  0.00     0.001 C 
ATOM     32  C   UNL d   1      22.767 -18.375  -0.608  0.00  0.00     0.000 C 
ATOM     33  C   UNL d   1      24.101 -18.738  -0.518  0.00  0.00     0.001 C 
ATOM     34  C   UNL d   1      25.070 -17.775  -0.724  0.00  0.00     0.011 C 
ENDBRANCH  26  29
BRANCH  26  35
ATOM     35  C   UNL d   1      27.283 -16.106  -0.952  0.00  0.00    -0.010 A 
ATOM     36  C   UNL d   1      28.001 -16.253   0.245  0.00  0.00     0.011 A 
ATOM     37  C   UNL d   1      29.328 -16.691   0.228  0.00  0.00     0.001 A 
ATOM     38  C   UNL d   1      29.941 -17.058  -0.968  0.00  0.00     0.000 A 
ATOM     39  C   UNL d   1      29.235 -16.985  -2.152  0.00  0.00     0.001 A 
ATOM     40  C   UNL d   1      27.926 -16.531  -2.131  0.00  0.00     0.011 A 
ENDBRANCH  26  35
ENDBRANCH  24  26
ENDBRANCH   1  22
TORSDOF 13
ENDMDL
MODEL 5
REMARK VINA RESULT:    -7.238      2.998      6.525
REMARK INTER + INTRA:         -15.177
REMARK INTER:                 -11.116
REMARK INTRA:                  -4.061
REMARK CONF_INDEPENDENT:        3.878
REMARK UNBOUND:                -4.061
REMARK  13 active torsions:
REMARK  status: ('A' for Active; 'I' for Inactive)
REMARK    1  A    between atoms: C_2  and  C_3 
REMARK    2  A    between atoms: C_3  and  C_4 
REMARK    3  A    between atoms: C_4  and  N_5 
REMARK       I    between atoms: N_5  and  C_6 
REMARK    4  A    between atoms: C_6  and  C_8 
REMARK    5  A    between atoms: C_8  and  C_9 
REMARK    6  A    between atoms: C_8  and  N_18 
REMARK    7  A    between atoms: C_10  and  O_11 
REMARK    8  A    between atoms: C_13  and  O_14 
REMARK    9  A    between atoms: C_16  and  O_17 
REMARK       I    between atoms: N_18  and  C_20 
REMARK   10  A    between atoms: C_20  and  C_22 
REMARK   11  A    between atoms: C_22  and  O_23 
REMARK   12  A    between atoms: C_22  and  C_24 
REMARK   13  A    between atoms: C_22  and  C_30 
ROOT
ATOM      1  C   UNL d   1      29.275 -13.496   1.547  0.00  0.00     0.217 C 
ENDROOT
BRANCH   1   2
ATOM      2  C   UNL d   1      28.429 -12.234   1.124  0.00  0.00     0.245 C 
ATOM      3  N   UNL d   1      28.864 -10.981   1.467  0.00  0.00    -0.359 N 
ATOM      4  H   UNL d   1      29.655 -10.843   2.084  0.00  0.00     0.162 HD
ATOM      5  O   UNL d   1      27.396 -12.254   0.439  0.00  0.00    -0.271 OA
BRANCH   3   6
ATOM      6  C   UNL d   1      27.960  -9.903   1.115  0.00  0.00     0.122 C 
BRANCH   6   7
ATOM      7  C   UNL d   1      27.527  -9.110   2.314  0.00  0.00     0.019 C 
BRANCH   7   8
ATOM      8  C   UNL d   1      26.642  -9.955   3.222  0.00  0.00    -0.003 C 
ATOM      9  C   UNL d   1      27.402 -10.302   4.485  0.00  0.00     0.005 C 
ENDBRANCH   7   8
ENDBRANCH   6   7
ENDBRANCH   3   6
ENDBRANCH   1   2
BRANCH   1  10
ATOM     10  C   UNL d   1      28.965 -13.888   2.998  0.00  0.00     0.040 A 
ATOM     11  C   UNL d   1      27.712 -13.744   3.625  0.00  0.00     0.080 A 
ATOM     12  C   UNL d   1      27.547 -14.024   4.990  0.00  0.00     0.073 A 
ATOM     13  C   UNL d   1      28.632 -14.476   5.732  0.00  0.00     0.071 A 
ATOM     14  C   UNL d   1      29.873 -14.641   5.140  0.00  0.00     0.073 A 
ATOM     15  C   UNL d   1      30.031 -14.342   3.792  0.00  0.00     0.080 A 
BRANCH  11  16
ATOM     16  O   UNL d   1      26.568 -13.342   2.985  0.00  0.00    -0.360 OA
ATOM     17  H   UNL d   1      26.639 -13.509   2.032  0.00  0.00     0.217 HD
ENDBRANCH  11  16
BRANCH  13  18
ATOM     18  O   UNL d   1      28.530 -14.784   7.056  0.00  0.00    -0.361 OA
ATOM     19  H   UNL d   1      28.329 -15.730   7.146  0.00  0.00     0.217 HD
ENDBRANCH  13  18
BRANCH  15  20
ATOM     20  O   UNL d   1      31.266 -14.477   3.217  0.00  0.00    -0.360 OA
ATOM     21  H   UNL d   1      31.930 -14.603   3.914  0.00  0.00     0.217 HD
ENDBRANCH  15  20
ENDBRANCH   1  10
BRANCH   1  22
ATOM     22  N   UNL d   1      29.165 -14.708   0.664  0.00  0.00    -0.336 N 
ATOM     23  C   UNL d   1      30.365 -15.320   0.115  0.00  0.00     0.154 C 
ATOM     24  C   UNL d   1      27.878 -15.219   0.370  0.00  0.00     0.264 C 
ATOM     25  O   UNL d   1      26.882 -14.746   0.933  0.00  0.00    -0.269 OA
BRANCH  24  26
ATOM     26  C   UNL d   1      27.759 -16.492  -0.626  0.00  0.00     0.194 C 
BRANCH  26  27
ATOM     27  O   UNL d   1      28.712 -17.520  -0.325  0.00  0.00    -0.371 OA
ATOM     28  H   UNL d   1      28.907 -17.515   0.615  0.00  0.00     0.212 HD
ENDBRANCH  26  27
BRANCH  26  29
ATOM     29  C   UNL d   1      26.312 -17.015  -0.531  0.00  0.00    -0.010 C 
ATOM     30  C   UNL d   1      25.941 -18.153   0.199  0.00  0.00     0.011 C 
ATOM     31  C   UNL d   1      24.603 -18.554   0.225  0.00  0.00     0.001 C 
ATOM     32  C   UNL d   1      23.631 -17.843  -0.485  0.00  0.00     0.000 C 
ATOM     33  C   UNL d   1      23.977 -16.702  -1.190  0.00  0.00     0.001 C 
ATOM     34  C   UNL d   1      25.285 -16.258  -1.142  0.00  0.00     0.011 C 
ENDBRANCH  26  29
BRANCH  26  35
ATOM     35  C   UNL d   1      28.107 -16.062  -2.078  0.00  0.00    -0.010 A 
ATOM     36  C   UNL d   1      29.143 -16.687  -2.790  0.00  0.00     0.011 A 
ATOM     37  C   UNL d   1      29.597 -16.152  -3.999  0.00  0.00     0.001 A 
ATOM     38  C   UNL d   1      28.985 -15.031  -4.555  0.00  0.00     0.000 A 
ATOM     39  C   UNL d   1      27.921 -14.437  -3.907  0.00  0.00     0.001 A 
ATOM     40  C   UNL d   1      27.489 -14.959  -2.699  0.00  0.00     0.011 A 
ENDBRANCH  26  35
ENDBRANCH  24  26
ENDBRANCH   1  22
TORSDOF 13
ENDMDL
MODEL 6
REMARK VINA RESULT:    -7.083      2.323      7.220
REMARK INTER + INTRA:         -14.834
REMARK INTER:                 -10.961
REMARK INTRA:                  -3.873
REMARK CONF_INDEPENDENT:        3.878
REMARK UNBOUND:                -3.873
REMARK  13 active torsions:
REMARK  status: ('A' for Active; 'I' for Inactive)
REMARK    1  A    between atoms: C_2  and  C_3 
REMARK    2  A    between atoms: C_3  and  C_4 
REMARK    3  A    between atoms: C_4  and  N_5 
REMARK       I    between atoms: N_5  and  C_6 
REMARK    4  A    between atoms: C_6  and  C_8 
REMARK    5  A    between atoms: C_8  and  C_9 
REMARK    6  A    between atoms: C_8  and  N_18 
REMARK    7  A    between atoms: C_10  and  O_11 
REMARK    8  A    between atoms: C_13  and  O_14 
REMARK    9  A    between atoms: C_16  and  O_17 
REMARK       I    between atoms: N_18  and  C_20 
REMARK   10  A    between atoms: C_20  and  C_22 
REMARK   11  A    between atoms: C_22  and  O_23 
REMARK   12  A    between atoms: C_22  and  C_24 
REMARK   13  A    between atoms: C_22  and  C_30 
ROOT
ATOM      1  C   UNL d   1      28.811 -14.416  -3.816  0.00  0.00     0.217 C 
ENDROOT
BRANCH   1   2
ATOM      2  C   UNL d   1      29.000 -15.198  -5.173  0.00  0.00     0.245 C 
ATOM      3  N   UNL d   1      30.211 -15.769  -5.464  0.00  0.00    -0.359 N 
ATOM      4  H   UNL d   1      31.027 -15.608  -4.886  0.00  0.00     0.162 HD
ATOM      5  O   UNL d   1      28.114 -15.405  -6.016  0.00  0.00    -0.271 OA
BRANCH   3   6
ATOM      6  C   UNL d   1      30.301 -16.374  -6.778  0.00  0.00     0.122 C 
BRANCH   6   7
ATOM      7  C   UNL d   1      30.762 -17.802  -6.717  0.00  0.00     0.019 C 
BRANCH   7   8
ATOM      8  C   UNL d   1      30.402 -18.421  -5.372  0.00  0.00    -0.003 C 
ATOM      9  C   UNL d   1      30.819 -19.876  -5.361  0.00  0.00     0.005 C 
ENDBRANCH   7   8
ENDBRANCH   6   7
ENDBRANCH   3   6
ENDBRANCH   1   2
BRANCH   1  10
ATOM     10  C   UNL d   1      27.743 -13.327  -3.968  0.00  0.00     0.040 A 
ATOM     11  C   UNL d   1      26.410 -13.551  -4.367  0.00  0.00     0.080 A 
ATOM     12  C   UNL d   1      25.529 -12.481  -4.588  0.00  0.00     0.073 A 
ATOM     13  C   UNL d   1      25.969 -11.178  -4.386  0.00  0.00     0.071 A 
ATOM     14  C   UNL d   1      27.270 -10.927  -3.980  0.00  0.00     0.073 A 
ATOM     15  C   UNL d   1      28.141 -11.993  -3.783  0.00  0.00     0.080 A 
BRANCH  11  16
ATOM     16  O   UNL d   1      25.858 -14.790  -4.560  0.00  0.00    -0.360 OA
ATOM     17  H   UNL d   1      26.491 -15.375  -5.006  0.00  0.00     0.217 HD
ENDBRANCH  11  16
BRANCH  13  18
ATOM     18  O   UNL d   1      25.155 -10.099  -4.564  0.00  0.00    -0.361 OA
ATOM     19  H   UNL d   1      24.595 -10.252  -5.343  0.00  0.00     0.217 HD
ENDBRANCH  13  18
BRANCH  15  20
ATOM     20  O   UNL d   1      29.433 -11.739  -3.410  0.00  0.00    -0.360 OA
ATOM     21  H   UNL d   1      29.560 -12.018  -2.490  0.00  0.00     0.217 HD
ENDBRANCH  15  20
ENDBRANCH   1  10
BRANCH   1  22
ATOM     22  N   UNL d   1      28.516 -15.244  -2.596  0.00  0.00    -0.336 N 
ATOM     23  C   UNL d   1      28.533 -16.696  -2.680  0.00  0.00     0.154 C 
ATOM     24  C   UNL d   1      28.208 -14.581  -1.384  0.00  0.00     0.264 C 
ATOM     25  O   UNL d   1      28.303 -13.349  -1.312  0.00  0.00    -0.269 OA
BRANCH  24  26
ATOM     26  C   UNL d   1      27.836 -15.475  -0.084  0.00  0.00     0.194 C 
BRANCH  26  27
ATOM     27  O   UNL d   1      28.845 -16.445   0.225  0.00  0.00    -0.371 OA
ATOM     28  H   UNL d   1      29.070 -16.392   1.157  0.00  0.00     0.212 HD
ENDBRANCH  26  27
BRANCH  26  29
ATOM     29  C   UNL d   1      27.603 -14.504   1.090  0.00  0.00    -0.010 C 
ATOM     30  C   UNL d   1      26.796 -13.360   1.005  0.00  0.00     0.011 C 
ATOM     31  C   UNL d   1      26.645 -12.534   2.122  0.00  0.00     0.001 C 
ATOM     32  C   UNL d   1      27.304 -12.826   3.319  0.00  0.00     0.000 C 
ATOM     33  C   UNL d   1      28.084 -13.966   3.426  0.00  0.00     0.001 C 
ATOM     34  C   UNL d   1      28.161 -14.827   2.348  0.00  0.00     0.011 C 
ENDBRANCH  26  29
BRANCH  26  35
ATOM     35  C   UNL d   1      26.567 -16.323  -0.372  0.00  0.00    -0.010 A 
ATOM     36  C   UNL d   1      25.535 -15.830  -1.186  0.00  0.00     0.011 A 
ATOM     37  C   UNL d   1      24.308 -16.496  -1.259  0.00  0.00     0.001 A 
ATOM     38  C   UNL d   1      24.109 -17.697  -0.583  0.00  0.00     0.000 A 
ATOM     39  C   UNL d   1      25.130 -18.237   0.172  0.00  0.00     0.001 A 
ATOM     40  C   UNL d   1      26.337 -17.563   0.257  0.00  0.00     0.011 A 
ENDBRANCH  26  35
ENDBRANCH  24  26
ENDBRANCH   1  22
TORSDOF 13
ENDMDL
MODEL 7
REMARK VINA RESULT:    -6.997      2.795      6.237
REMARK INTER + INTRA:         -14.558
REMARK INTER:                 -10.875
REMARK INTRA:                  -3.683
REMARK CONF_INDEPENDENT:        3.878
REMARK UNBOUND:                -3.683
REMARK  13 active torsions:
REMARK  status: ('A' for Active; 'I' for Inactive)
REMARK    1  A    between atoms: C_2  and  C_3 
REMARK    2  A    between atoms: C_3  and  C_4 
REMARK    3  A    between atoms: C_4  and  N_5 
REMARK       I    between atoms: N_5  and  C_6 
REMARK    4  A    between atoms: C_6  and  C_8 
REMARK    5  A    between atoms: C_8  and  C_9 
REMARK    6  A    between atoms: C_8  and  N_18 
REMARK    7  A    between atoms: C_10  and  O_11 
REMARK    8  A    between atoms: C_13  and  O_14 
REMARK    9  A    between atoms: C_16  and  O_17 
REMARK       I    between atoms: N_18  and  C_20 
REMARK   10  A    between atoms: C_20  and  C_22 
REMARK   11  A    between atoms: C_22  and  O_23 
REMARK   12  A    between atoms: C_22  and  C_24 
REMARK   13  A    between atoms: C_22  and  C_30 
ROOT
ATOM      1  C   UNL d   1      27.483 -13.739   1.873  0.00  0.00     0.217 C 
ENDROOT
BRANCH   1   2
ATOM      2  C   UNL d   1      27.491 -14.088   3.411  0.00  0.00     0.245 C 
ATOM      3  N   UNL d   1      28.521 -14.825   3.933  0.00  0.00    -0.359 N 
ATOM      4  H   UNL d   1      29.222 -15.253   3.341  0.00  0.00     0.162 HD
ATOM      5  O   UNL d   1      26.655 -13.704   4.243  0.00  0.00    -0.271 OA
BRANCH   3   6
ATOM      6  C   UNL d   1      28.375 -15.172   5.334  0.00  0.00     0.122 C 
BRANCH   6   7
ATOM      7  C   UNL d   1      29.363 -14.451   6.204  0.00  0.00     0.019 C 
BRANCH   7   8
ATOM      8  C   UNL d   1      29.367 -12.961   5.886  0.00  0.00    -0.003 C 
ATOM      9  C   UNL d   1      28.153 -12.309   6.516  0.00  0.00     0.005 C 
ENDBRANCH   7   8
ENDBRANCH   6   7
ENDBRANCH   3   6
ENDBRANCH   1   2
BRANCH   1  10
ATOM     10  C   UNL d   1      28.767 -12.995   1.485  0.00  0.00     0.040 A 
ATOM     11  C   UNL d   1      30.069 -13.527   1.574  0.00  0.00     0.080 A 
ATOM     12  C   UNL d   1      31.196 -12.736   1.303  0.00  0.00     0.073 A 
ATOM     13  C   UNL d   1      31.026 -11.412   0.915  0.00  0.00     0.071 A 
ATOM     14  C   UNL d   1      29.759 -10.865   0.805  0.00  0.00     0.073 A 
ATOM     15  C   UNL d   1      28.649 -11.651   1.095  0.00  0.00     0.080 A 
BRANCH  11  16
ATOM     16  O   UNL d   1      30.353 -14.825   1.910  0.00  0.00    -0.360 OA
ATOM     17  H   UNL d   1      29.535 -15.342   1.979  0.00  0.00     0.217 HD
ENDBRANCH  11  16
BRANCH  13  18
ATOM     18  O   UNL d   1      32.081 -10.600   0.619  0.00  0.00    -0.361 OA
ATOM     19  H   UNL d   1      32.901 -11.118   0.668  0.00  0.00     0.217 HD
ENDBRANCH  13  18
BRANCH  15  20
ATOM     20  O   UNL d   1      27.400 -11.099   1.013  0.00  0.00    -0.360 OA
ATOM     21  H   UNL d   1      26.845 -11.649   0.438  0.00  0.00     0.217 HD
ENDBRANCH  15  20
ENDBRANCH   1  10
BRANCH   1  22
ATOM     22  N   UNL d   1      27.257 -14.883   0.923  0.00  0.00    -0.336 N 
ATOM     23  C   UNL d   1      27.507 -16.248   1.356  0.00  0.00     0.154 C 
ATOM     24  C   UNL d   1      26.819 -14.596  -0.392  0.00  0.00     0.264 C 
ATOM     25  O   UNL d   1      26.512 -13.438  -0.703  0.00  0.00    -0.269 OA
BRANCH  24  26
ATOM     26  C   UNL d   1      26.629 -15.826  -1.430  0.00  0.00     0.194 C 
BRANCH  26  27
ATOM     27  O   UNL d   1      27.747 -16.723  -1.434  0.00  0.00    -0.371 OA
ATOM     28  H   UNL d   1      27.626 -17.393  -0.756  0.00  0.00     0.212 HD
ENDBRANCH  26  27
BRANCH  26  29
ATOM     29  C   UNL d   1      25.321 -16.549  -1.052  0.00  0.00    -0.010 C 
ATOM     30  C   UNL d   1      24.044 -16.010  -1.265  0.00  0.00     0.011 C 
ATOM     31  C   UNL d   1      22.913 -16.737  -0.887  0.00  0.00     0.001 C 
ATOM     32  C   UNL d   1      23.041 -17.990  -0.281  0.00  0.00     0.000 C 
ATOM     33  C   UNL d   1      24.294 -18.547  -0.087  0.00  0.00     0.001 C 
ATOM     34  C   UNL d   1      25.406 -17.865  -0.542  0.00  0.00     0.011 C 
ENDBRANCH  26  29
BRANCH  26  35
ATOM     35  C   UNL d   1      26.570 -15.284  -2.885  0.00  0.00    -0.010 A 
ATOM     36  C   UNL d   1      27.594 -15.566  -3.805  0.00  0.00     0.011 A 
ATOM     37  C   UNL d   1      27.649 -14.898  -5.032  0.00  0.00     0.001 A 
ATOM     38  C   UNL d   1      26.654 -13.993  -5.395  0.00  0.00     0.000 A 
ATOM     39  C   UNL d   1      25.603 -13.748  -4.536  0.00  0.00     0.001 A 
ATOM     40  C   UNL d   1      25.563 -14.397  -3.313  0.00  0.00     0.011 A 
ENDBRANCH  26  35
ENDBRANCH  24  26
ENDBRANCH   1  22
TORSDOF 13
ENDMDL
MODEL 8
REMARK VINA RESULT:    -6.963      2.981      6.543
REMARK INTER + INTRA:         -14.987
REMARK INTER:                 -10.840
REMARK INTRA:                  -4.146
REMARK CONF_INDEPENDENT:        3.878
REMARK UNBOUND:                -4.146
REMARK  13 active torsions:
REMARK  status: ('A' for Active; 'I' for Inactive)
REMARK    1  A    between atoms: C_2  and  C_3 
REMARK    2  A    between atoms: C_3  and  C_4 
REMARK    3  A    between atoms: C_4  and  N_5 
REMARK       I    between atoms: N_5  and  C_6 
REMARK    4  A    between atoms: C_6  and  C_8 
REMARK    5  A    between atoms: C_8  and  C_9 
REMARK    6  A    between atoms: C_8  and  N_18 
REMARK    7  A    between atoms: C_10  and  O_11 
REMARK    8  A    between atoms: C_13  and  O_14 
REMARK    9  A    between atoms: C_16  and  O_17 
REMARK       I    between atoms: N_18  and  C_20 
REMARK   10  A    between atoms: C_20  and  C_22 
REMARK   11  A    between atoms: C_22  and  O_23 
REMARK   12  A    between atoms: C_22  and  C_24 
REMARK   13  A    between atoms: C_22  and  C_30 
ROOT
ATOM      1  C   UNL d   1      29.633 -13.404   1.335  0.00  0.00     0.217 C 
ENDROOT
BRANCH   1   2
ATOM      2  C   UNL d   1      29.151 -11.925   1.069  0.00  0.00     0.245 C 
ATOM      3  N   UNL d   1      27.911 -11.530   1.496  0.00  0.00    -0.359 N 
ATOM      4  H   UNL d   1      27.244 -12.189   1.877  0.00  0.00     0.162 HD
ATOM      5  O   UNL d   1      29.827 -11.031   0.539  0.00  0.00    -0.271 OA
BRANCH   3   6
ATOM      6  C   UNL d   1      27.533 -10.184   1.110  0.00  0.00     0.122 C 
BRANCH   6   7
ATOM      7  C   UNL d   1      26.235  -9.757   1.731  0.00  0.00     0.019 C 
BRANCH   7   8
ATOM      8  C   UNL d   1      26.362  -9.703   3.249  0.00  0.00    -0.003 C 
ATOM      9  C   UNL d   1      27.732  -9.177   3.621  0.00  0.00     0.005 C 
ENDBRANCH   7   8
ENDBRANCH   6   7
ENDBRANCH   3   6
ENDBRANCH   1   2
BRANCH   1  10
ATOM     10  C   UNL d   1      29.240 -13.849   2.749  0.00  0.00     0.040 A 
ATOM     11  C   UNL d   1      27.920 -13.914   3.240  0.00  0.00     0.080 A 
ATOM     12  C   UNL d   1      27.661 -14.226   4.583  0.00  0.00     0.073 A 
ATOM     13  C   UNL d   1      28.720 -14.502   5.440  0.00  0.00     0.071 A 
ATOM     14  C   UNL d   1      30.027 -14.460   4.983  0.00  0.00     0.073 A 
ATOM     15  C   UNL d   1      30.276 -14.130   3.655  0.00  0.00     0.080 A 
BRANCH  11  16
ATOM     16  O   UNL d   1      26.801 -13.698   2.480  0.00  0.00    -0.360 OA
ATOM     17  H   UNL d   1      26.673 -14.428   1.854  0.00  0.00     0.217 HD
ENDBRANCH  11  16
BRANCH  13  18
ATOM     18  O   UNL d   1      28.530 -14.831   6.749  0.00  0.00    -0.361 OA
ATOM     19  H   UNL d   1      28.528 -15.798   6.834  0.00  0.00     0.217 HD
ENDBRANCH  13  18
BRANCH  15  20
ATOM     20  O   UNL d   1      31.569 -14.061   3.215  0.00  0.00    -0.360 OA
ATOM     21  H   UNL d   1      32.167 -14.065   3.979  0.00  0.00     0.217 HD
ENDBRANCH  15  20
ENDBRANCH   1  10
BRANCH   1  22
ATOM     22  N   UNL d   1      29.198 -14.444   0.340  0.00  0.00    -0.336 N 
ATOM     23  C   UNL d   1      30.062 -15.576   0.046  0.00  0.00     0.154 C 
ATOM     24  C   UNL d   1      27.950 -14.284  -0.307  0.00  0.00     0.264 C 
ATOM     25  O   UNL d   1      27.187 -13.371   0.037  0.00  0.00    -0.269 OA
BRANCH  24  26
ATOM     26  C   UNL d   1      27.507 -15.377  -1.419  0.00  0.00     0.194 C 
BRANCH  26  27
ATOM     27  O   UNL d   1      28.630 -16.018  -2.040  0.00  0.00    -0.371 OA
ATOM     28  H   UNL d   1      29.275 -15.357  -2.301  0.00  0.00     0.212 HD
ENDBRANCH  26  27
BRANCH  26  29
ATOM     29  C   UNL d   1      26.585 -16.395  -0.720  0.00  0.00    -0.010 C 
ATOM     30  C   UNL d   1      27.027 -17.310   0.247  0.00  0.00     0.011 C 
ATOM     31  C   UNL d   1      26.118 -18.200   0.825  0.00  0.00     0.001 C 
ATOM     32  C   UNL d   1      24.776 -18.200   0.437  0.00  0.00     0.000 C 
ATOM     33  C   UNL d   1      24.318 -17.286  -0.498  0.00  0.00     0.001 C 
ATOM     34  C   UNL d   1      25.200 -16.350  -1.003  0.00  0.00     0.011 C 
ENDBRANCH  26  29
BRANCH  26  35
ATOM     35  C   UNL d   1      26.775 -14.669  -2.593  0.00  0.00    -0.010 A 
ATOM     36  C   UNL d   1      25.995 -13.523  -2.374  0.00  0.00     0.011 A 
ATOM     37  C   UNL d   1      25.165 -13.025  -3.383  0.00  0.00     0.001 A 
ATOM     38  C   UNL d   1      25.148 -13.614  -4.645  0.00  0.00     0.000 A 
ATOM     39  C   UNL d   1      25.955 -14.703  -4.905  0.00  0.00     0.001 A 
ATOM     40  C   UNL d   1      26.761 -15.204  -3.896  0.00  0.00     0.011 A 
ENDBRANCH  26  35
ENDBRANCH  24  26
ENDBRANCH   1  22
TORSDOF 13
ENDMDL
MODEL 9
REMARK VINA RESULT:    -6.577      2.760      6.337
REMARK INTER + INTRA:         -14.451
REMARK INTER:                 -10.455
REMARK INTRA:                  -3.996
REMARK CONF_INDEPENDENT:        3.878
REMARK UNBOUND:                -3.996
REMARK  13 active torsions:
REMARK  status: ('A' for Active; 'I' for Inactive)
REMARK    1  A    between atoms: C_2  and  C_3 
REMARK    2  A    between atoms: C_3  and  C_4 
REMARK    3  A    between atoms: C_4  and  N_5 
REMARK       I    between atoms: N_5  and  C_6 
REMARK    4  A    between atoms: C_6  and  C_8 
REMARK    5  A    between atoms: C_8  and  C_9 
REMARK    6  A    between atoms: C_8  and  N_18 
REMARK    7  A    between atoms: C_10  and  O_11 
REMARK    8  A    between atoms: C_13  and  O_14 
REMARK    9  A    between atoms: C_16  and  O_17 
REMARK       I    between atoms: N_18  and  C_20 
REMARK   10  A    between atoms: C_20  and  C_22 
REMARK   11  A    between atoms: C_22  and  O_23 
REMARK   12  A    between atoms: C_22  and  C_24 
REMARK   13  A    between atoms: C_22  and  C_30 
ROOT
ATOM      1  C   UNL d   1      27.768 -15.878   0.318  0.00  0.00     0.217 C 
ENDROOT
BRANCH   1   2
ATOM      2  C   UNL d   1      27.499 -14.693   1.323  0.00  0.00     0.245 C 
ATOM      3  N   UNL d   1      28.202 -14.627   2.498  0.00  0.00    -0.359 N 
ATOM      4  H   UNL d   1      28.810 -15.380   2.796  0.00  0.00     0.162 HD
ATOM      5  O   UNL d   1      26.724 -13.744   1.130  0.00  0.00    -0.271 OA
BRANCH   3   6
ATOM      6  C   UNL d   1      27.803 -13.555   3.389  0.00  0.00     0.122 C 
BRANCH   6   7
ATOM      7  C   UNL d   1      27.252 -14.070   4.687  0.00  0.00     0.019 C 
BRANCH   7   8
ATOM      8  C   UNL d   1      28.275 -14.957   5.387  0.00  0.00    -0.003 C 
ATOM      9  C   UNL d   1      29.142 -14.107   6.292  0.00  0.00     0.005 C 
ENDBRANCH   7   8
ENDBRANCH   6   7
ENDBRANCH   3   6
ENDBRANCH   1   2
BRANCH   1  10
ATOM     10  C   UNL d   1      26.444 -16.465  -0.187  0.00  0.00     0.040 A 
ATOM     11  C   UNL d   1      25.476 -15.759  -0.928  0.00  0.00     0.080 A 
ATOM     12  C   UNL d   1      24.242 -16.343  -1.252  0.00  0.00     0.073 A 
ATOM     13  C   UNL d   1      23.979 -17.650  -0.859  0.00  0.00     0.071 A 
ATOM     14  C   UNL d   1      24.916 -18.375  -0.142  0.00  0.00     0.073 A 
ATOM     15  C   UNL d   1      26.128 -17.780   0.192  0.00  0.00     0.080 A 
BRANCH  11  16
ATOM     16  O   UNL d   1      25.642 -14.482  -1.398  0.00  0.00    -0.360 OA
ATOM     17  H   UNL d   1      26.000 -13.910  -0.702  0.00  0.00     0.217 HD
ENDBRANCH  11  16
BRANCH  13  18
ATOM     18  O   UNL d   1      22.807 -18.278  -1.162  0.00  0.00    -0.361 OA
ATOM     19  H   UNL d   1      22.933 -18.811  -1.964  0.00  0.00     0.217 HD
ENDBRANCH  13  18
BRANCH  15  20
ATOM     20  O   UNL d   1      27.040 -18.489   0.926  0.00  0.00    -0.360 OA
ATOM     21  H   UNL d   1      27.934 -18.282   0.610  0.00  0.00     0.217 HD
ENDBRANCH  15  20
ENDBRANCH   1  10
BRANCH   1  22
ATOM     22  N   UNL d   1      28.665 -15.580  -0.852  0.00  0.00    -0.336 N 
ATOM     23  C   UNL d   1      29.007 -14.204  -1.175  0.00  0.00     0.154 C 
ATOM     24  C   UNL d   1      29.145 -16.659  -1.631  0.00  0.00     0.264 C 
ATOM     25  O   UNL d   1      28.928 -17.824  -1.274  0.00  0.00    -0.269 OA
BRANCH  24  26
ATOM     26  C   UNL d   1      30.067 -16.332  -2.924  0.00  0.00     0.194 C 
BRANCH  26  27
ATOM     27  O   UNL d   1      31.173 -15.476  -2.611  0.00  0.00    -0.371 OA
ATOM     28  H   UNL d   1      31.296 -15.441  -1.659  0.00  0.00     0.212 HD
ENDBRANCH  26  27
BRANCH  26  29
ATOM     29  C   UNL d   1      30.538 -17.680  -3.504  0.00  0.00    -0.010 C 
ATOM     30  C   UNL d   1      31.339 -18.593  -2.803  0.00  0.00     0.011 C 
ATOM     31  C   UNL d   1      31.721 -19.791  -3.412  0.00  0.00     0.001 C 
ATOM     32  C   UNL d   1      31.328 -20.082  -4.721  0.00  0.00     0.000 C 
ATOM     33  C   UNL d   1      30.515 -19.203  -5.418  0.00  0.00     0.001 C 
ATOM     34  C   UNL d   1      30.067 -18.061  -4.782  0.00  0.00     0.011 C 
ENDBRANCH  26  29
BRANCH  26  35
ATOM     35  C   UNL d   1      29.245 -15.528  -3.968  0.00  0.00    -0.010 A 
ATOM     36  C   UNL d   1      27.842 -15.565  -3.970  0.00  0.00     0.011 A 
ATOM     37  C   UNL d   1      27.119 -15.026  -5.038  0.00  0.00     0.001 A 
ATOM     38  C   UNL d   1      27.771 -14.380  -6.086  0.00  0.00     0.000 A 
ATOM     39  C   UNL d   1      29.147 -14.273  -6.075  0.00  0.00     0.001 A 
ATOM     40  C   UNL d   1      29.860 -14.826  -5.024  0.00  0.00     0.011 A 
ENDBRANCH  26  35
ENDBRANCH  24  26
ENDBRANCH   1  22
TORSDOF 13
ENDMDL
