MODEL 1
REMARK VINA RESULT:   -11.281      0.000      0.000
REMARK INTER + INTRA:         -14.825
REMARK INTER:                 -12.772
REMARK INTRA:                  -2.052
REMARK CONF_INDEPENDENT:        1.492
REMARK UNBOUND:                -2.052
REMARK  5 active torsions:
REMARK  status: ('A' for Active; 'I' for Inactive)
REMARK       I    between atoms: C_2  and  N_3 
REMARK       I    between atoms: C_2  and  N_12 
REMARK    1  A    between atoms: N_3  and  C_4 
REMARK    2  A    between atoms: N_12  and  C_13 
REMARK    3  A    between atoms: C_15  and  N_16 
REMARK       I    between atoms: N_16  and  C_17 
REMARK    4  A    between atoms: C_17  and  C_19 
REMARK    5  A    between atoms: C_27  and  N_28 
ROOT
ATOM      1  C   UNL d   1      24.875 -16.104  -1.514  0.00  0.00     0.065 C 
ATOM      2  C   UNL d   1      23.767 -16.967  -1.256  0.00  0.00     0.061 C 
ATOM      3  C   UNL d   1      23.872 -18.020  -0.327  0.00  0.00     0.037 C 
ATOM      4  C   UNL d   1      25.115 -18.240   0.249  0.00  0.00     0.032 C 
ATOM      5  C   UNL d   1      26.173 -17.371   0.049  0.00  0.00     0.034 C 
ATOM      6  C   UNL d   1      26.089 -16.281  -0.812  0.00  0.00     0.057 C 
ENDROOT
BRANCH   1   7
ATOM      7  N   UNL d   1      24.699 -15.065  -2.465  0.00  0.00    -0.306 N 
ATOM      8  C   UNL d   1      25.548 -14.617  -3.451  0.00  0.00     0.325 C 
ATOM      9  O   UNL d   1      25.372 -13.494  -3.931  0.00  0.00    -0.247 OA
ATOM     10  N   UNL d   1      26.501 -15.494  -3.887  0.00  0.00    -0.306 N 
ATOM     11  H   UNL d   1      26.455 -16.424  -3.498  0.00  0.00     0.171 HD
ATOM     12  H   UNL d   1      23.928 -14.430  -2.300  0.00  0.00     0.170 HD
BRANCH  10  13
ATOM     13  C   UNL d   1      27.567 -15.197  -4.761  0.00  0.00     0.075 C 
ATOM     14  C   UNL d   1      27.490 -14.139  -5.673  0.00  0.00     0.036 C 
ATOM     15  C   UNL d   1      28.516 -13.927  -6.590  0.00  0.00     0.044 C 
ATOM     16  C   UNL d   1      29.617 -14.775  -6.591  0.00  0.00     0.119 C 
ATOM     17  F   UNL d   1      30.551 -14.635  -7.539  0.00  0.00    -0.206 F 
ATOM     18  C   UNL d   1      29.760 -15.765  -5.626  0.00  0.00     0.086 C 
ATOM     19  C   UNL d   1      28.751 -15.938  -4.684  0.00  0.00     0.146 C 
ATOM     20  F   UNL d   1      28.904 -16.871  -3.733  0.00  0.00    -0.204 F 
ENDBRANCH  10  13
ENDBRANCH   1   7
BRANCH   6  21
ATOM     21  N   UNL d   1      27.195 -15.443  -0.886  0.00  0.00    -0.379 N 
ATOM     22  C   UNL d   1      28.472 -16.036  -1.286  0.00  0.00     0.123 C 
ATOM     23  C   UNL d   1      29.392 -16.290  -0.118  0.00  0.00     0.020 C 
ATOM     24  C   UNL d   1      30.006 -15.012   0.429  0.00  0.00     0.002 C 
ATOM     25  C   UNL d   1      29.000 -13.927   0.818  0.00  0.00     0.002 C 
ATOM     26  C   UNL d   1      28.302 -13.278  -0.373  0.00  0.00     0.020 C 
ATOM     27  C   UNL d   1      27.018 -13.997  -0.762  0.00  0.00     0.123 C 
ENDBRANCH   6  21
BRANCH   3  28
ATOM     28  N   UNL d   1      22.751 -18.812   0.067  0.00  0.00    -0.323 N 
ATOM     29  C   UNL d   1      21.436 -18.543  -0.322  0.00  0.00     0.256 C 
ATOM     30  O   UNL d   1      21.032 -17.572  -0.974  0.00  0.00    -0.267 OA
ATOM     31  H   UNL d   1      22.942 -19.703   0.510  0.00  0.00     0.169 HD
BRANCH  29  32
ATOM     32  C   UNL d   1      20.373 -19.497   0.043  0.00  0.00     0.032 A 
ATOM     33  C   UNL d   1      19.339 -19.720  -0.885  0.00  0.00     0.017 A 
ATOM     34  C   UNL d   1      18.210 -20.450  -0.519  0.00  0.00     0.001 A 
ATOM     35  C   UNL d   1      18.141 -21.007   0.756  0.00  0.00     0.000 A 
ATOM     36  C   UNL d   1      19.167 -20.785   1.680  0.00  0.00     0.001 A 
ATOM     37  C   UNL d   1      20.281 -20.017   1.332  0.00  0.00     0.017 A 
ENDBRANCH  29  32
ENDBRANCH   3  28
TORSDOF 5
ENDMDL
MODEL 2
REMARK VINA RESULT:   -11.056      2.380      4.987
REMARK INTER + INTRA:         -14.460
REMARK INTER:                 -12.548
REMARK INTRA:                  -1.912
REMARK CONF_INDEPENDENT:        1.492
REMARK UNBOUND:                -1.912
REMARK  5 active torsions:
REMARK  status: ('A' for Active; 'I' for Inactive)
REMARK       I    between atoms: C_2  and  N_3 
REMARK       I    between atoms: C_2  and  N_12 
REMARK    1  A    between atoms: N_3  and  C_4 
REMARK    2  A    between atoms: N_12  and  C_13 
REMARK    3  A    between atoms: C_15  and  N_16 
REMARK       I    between atoms: N_16  and  C_17 
REMARK    4  A    between atoms: C_17  and  C_19 
REMARK    5  A    between atoms: C_27  and  N_28 
ROOT
ATOM      1  C   UNL d   1      25.713 -17.143  -0.616  0.00  0.00     0.065 C 
ATOM      2  C   UNL d   1      24.718 -17.937   0.029  0.00  0.00     0.061 C 
ATOM      3  C   UNL d   1      23.348 -17.693  -0.187  0.00  0.00     0.037 C 
ATOM      4  C   UNL d   1      23.011 -16.598  -0.969  0.00  0.00     0.032 C 
ATOM      5  C   UNL d   1      23.970 -15.865  -1.644  0.00  0.00     0.034 C 
ATOM      6  C   UNL d   1      25.332 -16.115  -1.508  0.00  0.00     0.057 C 
ENDROOT
BRANCH   1   7
ATOM      7  N   UNL d   1      27.076 -17.443  -0.350  0.00  0.00    -0.306 N 
ATOM      8  C   UNL d   1      28.051 -16.671   0.239  0.00  0.00     0.325 C 
ATOM      9  O   UNL d   1      29.237 -16.962   0.060  0.00  0.00    -0.247 OA
ATOM     10  N   UNL d   1      27.627 -15.659   1.054  0.00  0.00    -0.306 N 
ATOM     11  H   UNL d   1      26.631 -15.610   1.213  0.00  0.00     0.171 HD
ATOM     12  H   UNL d   1      27.455 -18.260  -0.811  0.00  0.00     0.170 HD
BRANCH  10  13
ATOM     13  C   UNL d   1      28.436 -14.655   1.623  0.00  0.00     0.075 C 
ATOM     14  C   UNL d   1      28.481 -14.450   3.006  0.00  0.00     0.036 C 
ATOM     15  C   UNL d   1      29.213 -13.390   3.535  0.00  0.00     0.044 C 
ATOM     16  C   UNL d   1      29.899 -12.539   2.677  0.00  0.00     0.119 C 
ATOM     17  F   UNL d   1      30.516 -11.462   3.178  0.00  0.00    -0.206 F 
ATOM     18  C   UNL d   1      29.952 -12.788   1.312  0.00  0.00     0.086 C 
ATOM     19  C   UNL d   1      29.257 -13.878   0.798  0.00  0.00     0.146 C 
ATOM     20  F   UNL d   1      29.335 -14.139  -0.516  0.00  0.00    -0.204 F 
ENDBRANCH  10  13
ENDBRANCH   1   7
BRANCH   6  21
ATOM     21  N   UNL d   1      26.198 -15.354  -2.282  0.00  0.00    -0.379 N 
ATOM     22  C   UNL d   1      25.929 -13.919  -2.393  0.00  0.00     0.123 C 
ATOM     23  C   UNL d   1      25.267 -13.546  -3.696  0.00  0.00     0.020 C 
ATOM     24  C   UNL d   1      26.227 -13.591  -4.872  0.00  0.00     0.002 C 
ATOM     25  C   UNL d   1      26.964 -14.920  -5.055  0.00  0.00     0.002 C 
ATOM     26  C   UNL d   1      28.008 -15.198  -3.978  0.00  0.00     0.020 C 
ATOM     27  C   UNL d   1      27.435 -15.951  -2.786  0.00  0.00     0.123 C 
ENDBRANCH   6  21
BRANCH   3  28
ATOM     28  N   UNL d   1      22.326 -18.552   0.321  0.00  0.00    -0.323 N 
ATOM     29  C   UNL d   1      21.031 -18.612  -0.201  0.00  0.00     0.256 C 
ATOM     30  O   UNL d   1      20.552 -17.905  -1.097  0.00  0.00    -0.267 OA
ATOM     31  H   UNL d   1      22.604 -19.267   0.982  0.00  0.00     0.169 HD
BRANCH  29  32
ATOM     32  C   UNL d   1      20.095 -19.622   0.323  0.00  0.00     0.032 A 
ATOM     33  C   UNL d   1      19.058 -20.062  -0.521  0.00  0.00     0.017 A 
ATOM     34  C   UNL d   1      18.031 -20.857  -0.017  0.00  0.00     0.001 A 
ATOM     35  C   UNL d   1      18.070 -21.263   1.315  0.00  0.00     0.000 A 
ATOM     36  C   UNL d   1      19.099 -20.825   2.155  0.00  0.00     0.001 A 
ATOM     37  C   UNL d   1      20.108 -19.991   1.666  0.00  0.00     0.017 A 
ENDBRANCH  29  32
ENDBRANCH   3  28
TORSDOF 5
ENDMDL
MODEL 3
REMARK VINA RESULT:   -11.011      1.101      1.228
REMARK INTER + INTRA:         -14.635
REMARK INTER:                 -12.503
REMARK INTRA:                  -2.133
REMARK CONF_INDEPENDENT:        1.492
REMARK UNBOUND:                -2.133
REMARK  5 active torsions:
REMARK  status: ('A' for Active; 'I' for Inactive)
REMARK       I    between atoms: C_2  and  N_3 
REMARK       I    between atoms: C_2  and  N_12 
REMARK    1  A    between atoms: N_3  and  C_4 
REMARK    2  A    between atoms: N_12  and  C_13 
REMARK    3  A    between atoms: C_15  and  N_16 
REMARK       I    between atoms: N_16  and  C_17 
REMARK    4  A    between atoms: C_17  and  C_19 
REMARK    5  A    between atoms: C_27  and  N_28 
ROOT
ATOM      1  C   UNL d   1      24.456 -16.080  -1.443  0.00  0.00     0.065 C 
ATOM      2  C   UNL d   1      23.374 -16.941  -1.091  0.00  0.00     0.061 C 
ATOM      3  C   UNL d   1      23.582 -18.063  -0.266  0.00  0.00     0.037 C 
ATOM      4  C   UNL d   1      24.888 -18.347   0.105  0.00  0.00     0.032 C 
ATOM      5  C   UNL d   1      25.930 -17.483  -0.182  0.00  0.00     0.034 C 
ATOM      6  C   UNL d   1      25.753 -16.329  -0.941  0.00  0.00     0.057 C 
ENDROOT
BRANCH   1   7
ATOM      7  N   UNL d   1      24.174 -14.968  -2.282  0.00  0.00    -0.306 N 
ATOM      8  C   UNL d   1      24.971 -14.337  -3.209  0.00  0.00     0.325 C 
ATOM      9  O   UNL d   1      24.681 -13.192  -3.569  0.00  0.00    -0.247 OA
ATOM     10  N   UNL d   1      26.005 -15.063  -3.728  0.00  0.00    -0.306 N 
ATOM     11  H   UNL d   1      26.053 -16.030  -3.440  0.00  0.00     0.171 HD
ATOM     12  H   UNL d   1      23.344 -14.434  -2.056  0.00  0.00     0.170 HD
BRANCH  10  13
ATOM     13  C   UNL d   1      27.033 -14.571  -4.559  0.00  0.00     0.075 C 
ATOM     14  C   UNL d   1      27.361 -15.200  -5.764  0.00  0.00     0.036 C 
ATOM     15  C   UNL d   1      28.442 -14.751  -6.518  0.00  0.00     0.044 C 
ATOM     16  C   UNL d   1      29.191 -13.672  -6.063  0.00  0.00     0.119 C 
ATOM     17  F   UNL d   1      30.290 -13.308  -6.734  0.00  0.00    -0.206 F 
ATOM     18  C   UNL d   1      28.817 -12.970  -4.924  0.00  0.00     0.086 C 
ATOM     19  C   UNL d   1      27.706 -13.397  -4.203  0.00  0.00     0.146 C 
ATOM     20  F   UNL d   1      27.325 -12.700  -3.122  0.00  0.00    -0.204 F 
ENDBRANCH  10  13
ENDBRANCH   1   7
BRANCH   6  21
ATOM     21  N   UNL d   1      26.860 -15.507  -1.113  0.00  0.00    -0.379 N 
ATOM     22  C   UNL d   1      27.991 -16.039  -1.875  0.00  0.00     0.123 C 
ATOM     23  C   UNL d   1      29.123 -16.504  -0.995  0.00  0.00     0.020 C 
ATOM     24  C   UNL d   1      29.904 -15.349  -0.390  0.00  0.00     0.002 C 
ATOM     25  C   UNL d   1      29.061 -14.334   0.384  0.00  0.00     0.002 C 
ATOM     26  C   UNL d   1      28.160 -13.479  -0.502  0.00  0.00     0.020 C 
ATOM     27  C   UNL d   1      26.787 -14.102  -0.715  0.00  0.00     0.123 C 
ENDBRANCH   6  21
BRANCH   3  28
ATOM     28  N   UNL d   1      22.508 -18.863   0.228  0.00  0.00    -0.323 N 
ATOM     29  C   UNL d   1      21.180 -18.721  -0.183  0.00  0.00     0.256 C 
ATOM     30  O   UNL d   1      20.722 -17.861  -0.947  0.00  0.00    -0.267 OA
ATOM     31  H   UNL d   1      22.749 -19.681   0.776  0.00  0.00     0.169 HD
BRANCH  29  32
ATOM     32  C   UNL d   1      20.174 -19.682   0.302  0.00  0.00     0.032 A 
ATOM     33  C   UNL d   1      19.156 -20.076  -0.586  0.00  0.00     0.017 A 
ATOM     34  C   UNL d   1      18.070 -20.818  -0.127  0.00  0.00     0.001 A 
ATOM     35  C   UNL d   1      18.031 -21.218   1.207  0.00  0.00     0.000 A 
ATOM     36  C   UNL d   1      19.041 -20.825   2.091  0.00  0.00     0.001 A 
ATOM     37  C   UNL d   1      20.109 -20.043   1.645  0.00  0.00     0.017 A 
ENDBRANCH  29  32
ENDBRANCH   3  28
TORSDOF 5
ENDMDL
MODEL 4
REMARK VINA RESULT:   -10.979      2.392      3.213
REMARK INTER + INTRA:         -14.476
REMARK INTER:                 -12.471
REMARK INTRA:                  -2.005
REMARK CONF_INDEPENDENT:        1.492
REMARK UNBOUND:                -2.005
REMARK  5 active torsions:
REMARK  status: ('A' for Active; 'I' for Inactive)
REMARK       I    between atoms: C_2  and  N_3 
REMARK       I    between atoms: C_2  and  N_12 
REMARK    1  A    between atoms: N_3  and  C_4 
REMARK    2  A    between atoms: N_12  and  C_13 
REMARK    3  A    between atoms: C_15  and  N_16 
REMARK       I    between atoms: N_16  and  C_17 
REMARK    4  A    between atoms: C_17  and  C_19 
REMARK    5  A    between atoms: C_27  and  N_28 
ROOT
ATOM      1  C   UNL d   1      25.296 -16.761  -1.834  0.00  0.00     0.065 C 
ATOM      2  C   UNL d   1      24.060 -17.335  -1.413  0.00  0.00     0.061 C 
ATOM      3  C   UNL d   1      23.944 -17.959  -0.156  0.00  0.00     0.037 C 
ATOM      4  C   UNL d   1      25.097 -18.077   0.606  0.00  0.00     0.032 C 
ATOM      5  C   UNL d   1      26.282 -17.470   0.229  0.00  0.00     0.034 C 
ATOM      6  C   UNL d   1      26.419 -16.788  -0.976  0.00  0.00     0.057 C 
ENDROOT
BRANCH   1   7
ATOM      7  N   UNL d   1      25.342 -16.150  -3.116  0.00  0.00    -0.306 N 
ATOM      8  C   UNL d   1      25.504 -14.827  -3.458  0.00  0.00     0.325 C 
ATOM      9  O   UNL d   1      25.163 -14.452  -4.583  0.00  0.00    -0.247 OA
ATOM     10  N   UNL d   1      26.110 -14.022  -2.535  0.00  0.00    -0.306 N 
ATOM     11  H   UNL d   1      26.454 -14.485  -1.706  0.00  0.00     0.171 HD
ATOM     12  H   UNL d   1      25.032 -16.717  -3.895  0.00  0.00     0.170 HD
BRANCH  10  13
ATOM     13  C   UNL d   1      26.231 -12.619  -2.606  0.00  0.00     0.075 C 
ATOM     14  C   UNL d   1      25.535 -11.875  -3.565  0.00  0.00     0.036 C 
ATOM     15  C   UNL d   1      25.746 -10.502  -3.675  0.00  0.00     0.044 C 
ATOM     16  C   UNL d   1      26.651  -9.880  -2.824  0.00  0.00     0.119 C 
ATOM     17  F   UNL d   1      26.930  -8.583  -3.000  0.00  0.00    -0.206 F 
ATOM     18  C   UNL d   1      27.271 -10.584  -1.799  0.00  0.00     0.086 C 
ATOM     19  C   UNL d   1      27.018 -11.945  -1.666  0.00  0.00     0.146 C 
ATOM     20  F   UNL d   1      27.591 -12.617  -0.656  0.00  0.00    -0.204 F 
ENDBRANCH  10  13
ENDBRANCH   1   7
BRANCH   6  21
ATOM     21  N   UNL d   1      27.638 -16.167  -1.220  0.00  0.00    -0.379 N 
ATOM     22  C   UNL d   1      28.225 -16.319  -2.552  0.00  0.00     0.123 C 
ATOM     23  C   UNL d   1      29.329 -17.345  -2.592  0.00  0.00     0.020 C 
ATOM     24  C   UNL d   1      30.609 -16.850  -1.941  0.00  0.00     0.002 C 
ATOM     25  C   UNL d   1      30.452 -16.349  -0.503  0.00  0.00     0.002 C 
ATOM     26  C   UNL d   1      29.688 -15.034  -0.389  0.00  0.00     0.020 C 
ATOM     27  C   UNL d   1      28.188 -15.238  -0.233  0.00  0.00     0.123 C 
ENDBRANCH   6  21
BRANCH   3  28
ATOM     28  N   UNL d   1      22.693 -18.414   0.363  0.00  0.00    -0.323 N 
ATOM     29  C   UNL d   1      21.659 -18.915  -0.431  0.00  0.00     0.256 C 
ATOM     30  O   UNL d   1      21.624 -18.969  -1.667  0.00  0.00    -0.267 OA
ATOM     31  H   UNL d   1      22.621 -18.533   1.367  0.00  0.00     0.169 HD
BRANCH  29  32
ATOM     32  C   UNL d   1      20.460 -19.470   0.223  0.00  0.00     0.032 A 
ATOM     33  C   UNL d   1      20.452 -19.553   1.627  0.00  0.00     0.017 A 
ATOM     34  C   UNL d   1      19.440 -20.248   2.285  0.00  0.00     0.001 A 
ATOM     35  C   UNL d   1      18.403 -20.811   1.544  0.00  0.00     0.000 A 
ATOM     36  C   UNL d   1      18.411 -20.730   0.147  0.00  0.00     0.001 A 
ATOM     37  C   UNL d   1      19.447 -20.072  -0.520  0.00  0.00     0.017 A 
ENDBRANCH  29  32
ENDBRANCH   3  28
TORSDOF 5
ENDMDL
MODEL 5
REMARK VINA RESULT:    -9.783      2.704      3.951
REMARK INTER + INTRA:         -13.852
REMARK INTER:                 -11.274
REMARK INTRA:                  -2.578
REMARK CONF_INDEPENDENT:        1.492
REMARK UNBOUND:                -2.578
REMARK  5 active torsions:
REMARK  status: ('A' for Active; 'I' for Inactive)
REMARK       I    between atoms: C_2  and  N_3 
REMARK       I    between atoms: C_2  and  N_12 
REMARK    1  A    between atoms: N_3  and  C_4 
REMARK    2  A    between atoms: N_12  and  C_13 
REMARK    3  A    between atoms: C_15  and  N_16 
REMARK       I    between atoms: N_16  and  C_17 
REMARK    4  A    between atoms: C_17  and  C_19 
REMARK    5  A    between atoms: C_27  and  N_28 
ROOT
ATOM      1  C   UNL d   1      25.504 -16.407  -1.492  0.00  0.00     0.065 C 
ATOM      2  C   UNL d   1      24.208 -16.863  -1.106  0.00  0.00     0.061 C 
ATOM      3  C   UNL d   1      24.057 -17.930  -0.199  0.00  0.00     0.037 C 
ATOM      4  C   UNL d   1      25.211 -18.575   0.223  0.00  0.00     0.032 C 
ATOM      5  C   UNL d   1      26.469 -18.100  -0.100  0.00  0.00     0.034 C 
ATOM      6  C   UNL d   1      26.659 -17.007  -0.941  0.00  0.00     0.057 C 
ENDROOT
BRANCH   1   7
ATOM      7  N   UNL d   1      25.581 -15.328  -2.412  0.00  0.00    -0.306 N 
ATOM      8  C   UNL d   1      25.930 -14.014  -2.205  0.00  0.00     0.325 C 
ATOM      9  O   UNL d   1      25.597 -13.166  -3.037  0.00  0.00    -0.247 OA
ATOM     10  N   UNL d   1      26.698 -13.747  -1.106  0.00  0.00    -0.306 N 
ATOM     11  H   UNL d   1      27.006 -14.550  -0.578  0.00  0.00     0.171 HD
ATOM     12  H   UNL d   1      25.149 -15.477  -3.316  0.00  0.00     0.170 HD
BRANCH  10  13
ATOM     13  C   UNL d   1      27.031 -12.468  -0.615  0.00  0.00     0.075 C 
ATOM     14  C   UNL d   1      27.332 -11.410  -1.480  0.00  0.00     0.036 C 
ATOM     15  C   UNL d   1      27.750 -10.184  -0.968  0.00  0.00     0.044 C 
ATOM     16  C   UNL d   1      27.866 -10.021   0.407  0.00  0.00     0.119 C 
ATOM     17  F   UNL d   1      28.368  -8.879   0.892  0.00  0.00    -0.206 F 
ATOM     18  C   UNL d   1      27.471 -11.025   1.283  0.00  0.00     0.086 C 
ATOM     19  C   UNL d   1      27.008 -12.229   0.763  0.00  0.00     0.146 C 
ATOM     20  F   UNL d   1      26.596 -13.186   1.608  0.00  0.00    -0.204 F 
ENDBRANCH  10  13
ENDBRANCH   1   7
BRANCH   6  21
ATOM     21  N   UNL d   1      27.966 -16.582  -1.144  0.00  0.00    -0.379 N 
ATOM     22  C   UNL d   1      28.869 -16.584   0.008  0.00  0.00     0.123 C 
ATOM     23  C   UNL d   1      29.065 -15.211   0.601  0.00  0.00     0.020 C 
ATOM     24  C   UNL d   1      29.951 -14.325  -0.259  0.00  0.00     0.002 C 
ATOM     25  C   UNL d   1      29.499 -14.176  -1.713  0.00  0.00     0.002 C 
ATOM     26  C   UNL d   1      29.673 -15.442  -2.546  0.00  0.00     0.020 C 
ATOM     27  C   UNL d   1      28.448 -16.344  -2.504  0.00  0.00     0.123 C 
ENDBRANCH   6  21
BRANCH   3  28
ATOM     28  N   UNL d   1      22.787 -18.321   0.324  0.00  0.00    -0.323 N 
ATOM     29  C   UNL d   1      21.761 -18.863  -0.454  0.00  0.00     0.256 C 
ATOM     30  O   UNL d   1      21.752 -19.012  -1.683  0.00  0.00    -0.267 OA
ATOM     31  H   UNL d   1      22.690 -18.360   1.331  0.00  0.00     0.169 HD
BRANCH  29  32
ATOM     32  C   UNL d   1      20.536 -19.343   0.211  0.00  0.00     0.032 A 
ATOM     33  C   UNL d   1      20.543 -19.442   1.615  0.00  0.00     0.017 A 
ATOM     34  C   UNL d   1      19.495 -20.074   2.280  0.00  0.00     0.001 A 
ATOM     35  C   UNL d   1      18.412 -20.556   1.548  0.00  0.00     0.000 A 
ATOM     36  C   UNL d   1      18.405 -20.460   0.153  0.00  0.00     0.001 A 
ATOM     37  C   UNL d   1      19.474 -19.866  -0.522  0.00  0.00     0.017 A 
ENDBRANCH  29  32
ENDBRANCH   3  28
TORSDOF 5
ENDMDL
MODEL 6
REMARK VINA RESULT:    -9.570      2.907      4.900
REMARK INTER + INTRA:         -13.424
REMARK INTER:                 -11.061
REMARK INTRA:                  -2.363
REMARK CONF_INDEPENDENT:        1.492
REMARK UNBOUND:                -2.363
REMARK  5 active torsions:
REMARK  status: ('A' for Active; 'I' for Inactive)
REMARK       I    between atoms: C_2  and  N_3 
REMARK       I    between atoms: C_2  and  N_12 
REMARK    1  A    between atoms: N_3  and  C_4 
REMARK    2  A    between atoms: N_12  and  C_13 
REMARK    3  A    between atoms: C_15  and  N_16 
REMARK       I    between atoms: N_16  and  C_17 
REMARK    4  A    between atoms: C_17  and  C_19 
REMARK    5  A    between atoms: C_27  and  N_28 
ROOT
ATOM      1  C   UNL d   1      26.466 -16.720  -0.314  0.00  0.00     0.065 C 
ATOM      2  C   UNL d   1      25.351 -17.369   0.296  0.00  0.00     0.061 C 
ATOM      3  C   UNL d   1      24.209 -17.705  -0.457  0.00  0.00     0.037 C 
ATOM      4  C   UNL d   1      24.176 -17.295  -1.781  0.00  0.00     0.032 C 
ATOM      5  C   UNL d   1      25.276 -16.721  -2.392  0.00  0.00     0.034 C 
ATOM      6  C   UNL d   1      26.447 -16.432  -1.698  0.00  0.00     0.057 C 
ENDROOT
BRANCH   1   7
ATOM      7  N   UNL d   1      27.583 -16.408   0.506  0.00  0.00    -0.306 N 
ATOM      8  C   UNL d   1      27.973 -15.203   1.044  0.00  0.00     0.325 C 
ATOM      9  O   UNL d   1      29.140 -15.064   1.420  0.00  0.00    -0.247 OA
ATOM     10  N   UNL d   1      27.004 -14.252   1.193  0.00  0.00    -0.306 N 
ATOM     11  H   UNL d   1      26.064 -14.541   0.961  0.00  0.00     0.171 HD
ATOM     12  H   UNL d   1      28.306 -17.113   0.566  0.00  0.00     0.170 HD
BRANCH  10  13
ATOM     13  C   UNL d   1      27.207 -12.908   1.566  0.00  0.00     0.075 C 
ATOM     14  C   UNL d   1      27.326 -12.533   2.908  0.00  0.00     0.036 C 
ATOM     15  C   UNL d   1      27.431 -11.188   3.254  0.00  0.00     0.044 C 
ATOM     16  C   UNL d   1      27.417 -10.223   2.254  0.00  0.00     0.119 C 
ATOM     17  F   UNL d   1      27.412  -8.928   2.594  0.00  0.00    -0.206 F 
ATOM     18  C   UNL d   1      27.405 -10.581   0.912  0.00  0.00     0.086 C 
ATOM     19  C   UNL d   1      27.350 -11.929   0.575  0.00  0.00     0.146 C 
ATOM     20  F   UNL d   1      27.372 -12.277  -0.720  0.00  0.00    -0.204 F 
ENDBRANCH  10  13
ENDBRANCH   1   7
BRANCH   6  21
ATOM     21  N   UNL d   1      27.508 -15.912  -2.430  0.00  0.00    -0.379 N 
ATOM     22  C   UNL d   1      28.733 -16.708  -2.511  0.00  0.00     0.123 C 
ATOM     23  C   UNL d   1      29.814 -16.219  -1.580  0.00  0.00     0.020 C 
ATOM     24  C   UNL d   1      30.461 -14.932  -2.063  0.00  0.00     0.002 C 
ATOM     25  C   UNL d   1      29.489 -13.783  -2.340  0.00  0.00     0.002 C 
ATOM     26  C   UNL d   1      28.613 -14.000  -3.570  0.00  0.00     0.020 C 
ATOM     27  C   UNL d   1      27.309 -14.712  -3.242  0.00  0.00     0.123 C 
ENDBRANCH   6  21
BRANCH   3  28
ATOM     28  N   UNL d   1      23.137 -18.482   0.079  0.00  0.00    -0.323 N 
ATOM     29  C   UNL d   1      21.791 -18.255  -0.215  0.00  0.00     0.256 C 
ATOM     30  O   UNL d   1      21.318 -17.333  -0.893  0.00  0.00    -0.267 OA
ATOM     31  H   UNL d   1      23.379 -19.340   0.561  0.00  0.00     0.169 HD
BRANCH  29  32
ATOM     32  C   UNL d   1      20.777 -19.194   0.298  0.00  0.00     0.032 A 
ATOM     33  C   UNL d   1      19.847 -19.724  -0.615  0.00  0.00     0.017 A 
ATOM     34  C   UNL d   1      18.750 -20.452  -0.158  0.00  0.00     0.001 A 
ATOM     35  C   UNL d   1      18.615 -20.702   1.206  0.00  0.00     0.000 A 
ATOM     36  C   UNL d   1      19.539 -20.174   2.114  0.00  0.00     0.001 A 
ATOM     37  C   UNL d   1      20.616 -19.406   1.665  0.00  0.00     0.017 A 
ENDBRANCH  29  32
ENDBRANCH   3  28
TORSDOF 5
ENDMDL
MODEL 7
REMARK VINA RESULT:    -9.549      3.277      5.573
REMARK INTER + INTRA:         -13.125
REMARK INTER:                 -11.040
REMARK INTRA:                  -2.084
REMARK CONF_INDEPENDENT:        1.492
REMARK UNBOUND:                -2.084
REMARK  5 active torsions:
REMARK  status: ('A' for Active; 'I' for Inactive)
REMARK       I    between atoms: C_2  and  N_3 
REMARK       I    between atoms: C_2  and  N_12 
REMARK    1  A    between atoms: N_3  and  C_4 
REMARK    2  A    between atoms: N_12  and  C_13 
REMARK    3  A    between atoms: C_15  and  N_16 
REMARK       I    between atoms: N_16  and  C_17 
REMARK    4  A    between atoms: C_17  and  C_19 
REMARK    5  A    between atoms: C_27  and  N_28 
ROOT
ATOM      1  C   UNL d   1      25.715 -15.577  -0.394  0.00  0.00     0.065 C 
ATOM      2  C   UNL d   1      24.363 -15.959  -0.145  0.00  0.00     0.061 C 
ATOM      3  C   UNL d   1      23.948 -17.295  -0.306  0.00  0.00     0.037 C 
ATOM      4  C   UNL d   1      24.878 -18.195  -0.805  0.00  0.00     0.032 C 
ATOM      5  C   UNL d   1      26.203 -17.845  -0.990  0.00  0.00     0.034 C 
ATOM      6  C   UNL d   1      26.666 -16.549  -0.780  0.00  0.00     0.057 C 
ENDROOT
BRANCH   1   7
ATOM      7  N   UNL d   1      26.063 -14.212  -0.215  0.00  0.00    -0.306 N 
ATOM      8  C   UNL d   1      26.780 -13.609   0.793  0.00  0.00     0.325 C 
ATOM      9  O   UNL d   1      26.672 -12.391   0.960  0.00  0.00    -0.247 OA
ATOM     10  N   UNL d   1      27.632 -14.405   1.505  0.00  0.00    -0.306 N 
ATOM     11  H   UNL d   1      27.717 -15.358   1.182  0.00  0.00     0.171 HD
ATOM     12  H   UNL d   1      25.574 -13.544  -0.797  0.00  0.00     0.170 HD
BRANCH  10  13
ATOM     13  C   UNL d   1      28.333 -14.039   2.672  0.00  0.00     0.075 C 
ATOM     14  C   UNL d   1      29.727 -13.926   2.680  0.00  0.00     0.036 C 
ATOM     15  C   UNL d   1      30.403 -13.656   3.868  0.00  0.00     0.044 C 
ATOM     16  C   UNL d   1      29.679 -13.501   5.044  0.00  0.00     0.119 C 
ATOM     17  F   UNL d   1      30.335 -13.347   6.201  0.00  0.00    -0.206 F 
ATOM     18  C   UNL d   1      28.290 -13.506   5.037  0.00  0.00     0.086 C 
ATOM     19  C   UNL d   1      27.623 -13.727   3.836  0.00  0.00     0.146 C 
ATOM     20  F   UNL d   1      26.282 -13.700   3.823  0.00  0.00    -0.204 F 
ENDBRANCH  10  13
ENDBRANCH   1   7
BRANCH   6  21
ATOM     21  N   UNL d   1      28.029 -16.329  -0.938  0.00  0.00    -0.379 N 
ATOM     22  C   UNL d   1      28.444 -15.187  -1.755  0.00  0.00     0.123 C 
ATOM     23  C   UNL d   1      28.874 -15.586  -3.144  0.00  0.00     0.020 C 
ATOM     24  C   UNL d   1      30.235 -16.260  -3.162  0.00  0.00     0.002 C 
ATOM     25  C   UNL d   1      30.369 -17.471  -2.236  0.00  0.00     0.002 C 
ATOM     26  C   UNL d   1      30.380 -17.115  -0.753  0.00  0.00     0.020 C 
ATOM     27  C   UNL d   1      28.985 -17.099  -0.144  0.00  0.00     0.123 C 
ENDBRANCH   6  21
BRANCH   3  28
ATOM     28  N   UNL d   1      22.646 -17.746   0.071  0.00  0.00    -0.323 N 
ATOM     29  C   UNL d   1      21.938 -18.736  -0.614  0.00  0.00     0.256 C 
ATOM     30  O   UNL d   1      22.271 -19.303  -1.663  0.00  0.00    -0.267 OA
ATOM     31  H   UNL d   1      22.294 -17.450   0.974  0.00  0.00     0.169 HD
BRANCH  29  32
ATOM     32  C   UNL d   1      20.655 -19.208  -0.065  0.00  0.00     0.032 A 
ATOM     33  C   UNL d   1      20.541 -19.335   1.332  0.00  0.00     0.017 A 
ATOM     34  C   UNL d   1      19.431 -19.963   1.893  0.00  0.00     0.001 A 
ATOM     35  C   UNL d   1      18.407 -20.412   1.063  0.00  0.00     0.000 A 
ATOM     36  C   UNL d   1      18.519 -20.288  -0.326  0.00  0.00     0.001 A 
ATOM     37  C   UNL d   1      19.650 -19.699  -0.896  0.00  0.00     0.017 A 
ENDBRANCH  29  32
ENDBRANCH   3  28
TORSDOF 5
ENDMDL
MODEL 8
REMARK VINA RESULT:    -9.386      4.104      8.498
REMARK INTER + INTRA:         -12.971
REMARK INTER:                 -10.877
REMARK INTRA:                  -2.094
REMARK CONF_INDEPENDENT:        1.492
REMARK UNBOUND:                -2.094
REMARK  5 active torsions:
REMARK  status: ('A' for Active; 'I' for Inactive)
REMARK       I    between atoms: C_2  and  N_3 
REMARK       I    between atoms: C_2  and  N_12 
REMARK    1  A    between atoms: N_3  and  C_4 
REMARK    2  A    between atoms: N_12  and  C_13 
REMARK    3  A    between atoms: C_15  and  N_16 
REMARK       I    between atoms: N_16  and  C_17 
REMARK    4  A    between atoms: C_17  and  C_19 
REMARK    5  A    between atoms: C_27  and  N_28 
ROOT
ATOM      1  C   UNL d   1      27.659 -15.452   0.396  0.00  0.00     0.065 C 
ATOM      2  C   UNL d   1      28.106 -14.999   1.674  0.00  0.00     0.061 C 
ATOM      3  C   UNL d   1      28.189 -13.624   1.964  0.00  0.00     0.037 C 
ATOM      4  C   UNL d   1      27.915 -12.737   0.933  0.00  0.00     0.032 C 
ATOM      5  C   UNL d   1      27.423 -13.169  -0.285  0.00  0.00     0.034 C 
ATOM      6  C   UNL d   1      27.265 -14.518  -0.588  0.00  0.00     0.057 C 
ENDROOT
BRANCH   1   7
ATOM      7  N   UNL d   1      27.602 -16.853   0.172  0.00  0.00    -0.306 N 
ATOM      8  C   UNL d   1      26.513 -17.677   0.007  0.00  0.00     0.325 C 
ATOM      9  O   UNL d   1      26.647 -18.892   0.179  0.00  0.00    -0.247 OA
ATOM     10  N   UNL d   1      25.354 -17.089  -0.416  0.00  0.00    -0.306 N 
ATOM     11  H   UNL d   1      25.415 -16.107  -0.641  0.00  0.00     0.171 HD
ATOM     12  H   UNL d   1      28.457 -17.369   0.334  0.00  0.00     0.170 HD
BRANCH  10  13
ATOM     13  C   UNL d   1      24.088 -17.706  -0.494  0.00  0.00     0.075 C 
ATOM     14  C   UNL d   1      23.939 -19.088  -0.342  0.00  0.00     0.036 C 
ATOM     15  C   UNL d   1      22.692 -19.683  -0.519  0.00  0.00     0.044 C 
ATOM     16  C   UNL d   1      21.599 -18.891  -0.847  0.00  0.00     0.119 C 
ATOM     17  F   UNL d   1      20.425 -19.475  -1.119  0.00  0.00    -0.206 F 
ATOM     18  C   UNL d   1      21.706 -17.507  -0.899  0.00  0.00     0.086 C 
ATOM     19  C   UNL d   1      22.945 -16.918  -0.673  0.00  0.00     0.146 C 
ATOM     20  F   UNL d   1      23.043 -15.580  -0.690  0.00  0.00    -0.204 F 
ENDBRANCH  10  13
ENDBRANCH   1   7
BRANCH   6  21
ATOM     21  N   UNL d   1      26.705 -14.831  -1.821  0.00  0.00    -0.379 N 
ATOM     22  C   UNL d   1      27.370 -15.852  -2.631  0.00  0.00     0.123 C 
ATOM     23  C   UNL d   1      28.206 -15.267  -3.742  0.00  0.00     0.020 C 
ATOM     24  C   UNL d   1      27.362 -14.725  -4.883  0.00  0.00     0.002 C 
ATOM     25  C   UNL d   1      26.300 -13.703  -4.472  0.00  0.00     0.002 C 
ATOM     26  C   UNL d   1      25.142 -14.301  -3.680  0.00  0.00     0.020 C 
ATOM     27  C   UNL d   1      25.393 -14.293  -2.179  0.00  0.00     0.123 C 
ENDBRANCH   6  21
BRANCH   3  28
ATOM     28  N   UNL d   1      28.491 -13.131   3.271  0.00  0.00    -0.323 N 
ATOM     29  C   UNL d   1      27.967 -13.676   4.446  0.00  0.00     0.256 C 
ATOM     30  O   UNL d   1      27.129 -14.581   4.542  0.00  0.00    -0.267 OA
ATOM     31  H   UNL d   1      29.249 -12.464   3.354  0.00  0.00     0.169 HD
BRANCH  29  32
ATOM     32  C   UNL d   1      28.442 -13.166   5.744  0.00  0.00     0.032 A 
ATOM     33  C   UNL d   1      28.971 -14.091   6.663  0.00  0.00     0.017 A 
ATOM     34  C   UNL d   1      29.246 -13.702   7.973  0.00  0.00     0.001 A 
ATOM     35  C   UNL d   1      29.049 -12.375   8.348  0.00  0.00     0.000 A 
ATOM     36  C   UNL d   1      28.521 -11.455   7.436  0.00  0.00     0.001 A 
ATOM     37  C   UNL d   1      28.202 -11.850   6.134  0.00  0.00     0.017 A 
ENDBRANCH  29  32
ENDBRANCH   3  28
TORSDOF 5
ENDMDL
MODEL 9
REMARK VINA RESULT:    -9.074      3.601      8.547
REMARK INTER + INTRA:         -12.678
REMARK INTER:                 -10.565
REMARK INTRA:                  -2.113
REMARK CONF_INDEPENDENT:        1.492
REMARK UNBOUND:                -2.113
REMARK  5 active torsions:
REMARK  status: ('A' for Active; 'I' for Inactive)
REMARK       I    between atoms: C_2  and  N_3 
REMARK       I    between atoms: C_2  and  N_12 
REMARK    1  A    between atoms: N_3  and  C_4 
REMARK    2  A    between atoms: N_12  and  C_13 
REMARK    3  A    between atoms: C_15  and  N_16 
REMARK       I    between atoms: N_16  and  C_17 
REMARK    4  A    between atoms: C_17  and  C_19 
REMARK    5  A    between atoms: C_27  and  N_28 
ROOT
ATOM      1  C   UNL d   1      26.884 -13.074  -5.395  0.00  0.00     0.065 C 
ATOM      2  C   UNL d   1      27.479 -14.317  -5.767  0.00  0.00     0.061 C 
ATOM      3  C   UNL d   1      28.716 -14.354  -6.438  0.00  0.00     0.037 C 
ATOM      4  C   UNL d   1      29.278 -13.141  -6.806  0.00  0.00     0.032 C 
ATOM      5  C   UNL d   1      28.737 -11.935  -6.396  0.00  0.00     0.034 C 
ATOM      6  C   UNL d   1      27.549 -11.859  -5.674  0.00  0.00     0.057 C 
ENDROOT
BRANCH   1   7
ATOM      7  N   UNL d   1      25.633 -13.112  -4.723  0.00  0.00    -0.306 N 
ATOM      8  C   UNL d   1      25.168 -13.990  -3.772  0.00  0.00     0.325 C 
ATOM      9  O   UNL d   1      23.952 -14.074  -3.575  0.00  0.00    -0.247 OA
ATOM     10  N   UNL d   1      26.108 -14.670  -3.049  0.00  0.00    -0.306 N 
ATOM     11  H   UNL d   1      27.069 -14.414  -3.225  0.00  0.00     0.171 HD
ATOM     12  H   UNL d   1      24.898 -12.534  -5.110  0.00  0.00     0.170 HD
BRANCH  10  13
ATOM     13  C   UNL d   1      25.861 -15.726  -2.149  0.00  0.00     0.075 C 
ATOM     14  C   UNL d   1      24.560 -16.153  -1.863  0.00  0.00     0.036 C 
ATOM     15  C   UNL d   1      24.339 -17.133  -0.899  0.00  0.00     0.044 C 
ATOM     16  C   UNL d   1      25.422 -17.683  -0.224  0.00  0.00     0.119 C 
ATOM     17  F   UNL d   1      25.201 -18.547   0.775  0.00  0.00    -0.206 F 
ATOM     18  C   UNL d   1      26.725 -17.348  -0.567  0.00  0.00     0.086 C 
ATOM     19  C   UNL d   1      26.938 -16.403  -1.565  0.00  0.00     0.146 C 
ATOM     20  F   UNL d   1      28.197 -16.104  -1.920  0.00  0.00    -0.204 F 
ENDBRANCH  10  13
ENDBRANCH   1   7
BRANCH   6  21
ATOM     21  N   UNL d   1      27.135 -10.598  -5.264  0.00  0.00    -0.379 N 
ATOM     22  C   UNL d   1      27.657 -10.089  -3.995  0.00  0.00     0.123 C 
ATOM     23  C   UNL d   1      26.668 -10.212  -2.863  0.00  0.00     0.020 C 
ATOM     24  C   UNL d   1      25.543  -9.195  -2.959  0.00  0.00     0.002 C 
ATOM     25  C   UNL d   1      24.780  -9.198  -4.285  0.00  0.00     0.002 C 
ATOM     26  C   UNL d   1      25.588  -8.662  -5.463  0.00  0.00     0.020 C 
ATOM     27  C   UNL d   1      26.371  -9.753  -6.181  0.00  0.00     0.123 C 
ENDBRANCH   6  21
BRANCH   3  28
ATOM     28  N   UNL d   1      29.413 -15.574  -6.697  0.00  0.00    -0.323 N 
ATOM     29  C   UNL d   1      29.791 -16.479  -5.702  0.00  0.00     0.256 C 
ATOM     30  O   UNL d   1      29.663 -16.342  -4.479  0.00  0.00    -0.267 OA
ATOM     31  H   UNL d   1      29.487 -15.872  -7.662  0.00  0.00     0.169 HD
BRANCH  29  32
ATOM     32  C   UNL d   1      30.398 -17.763  -6.096  0.00  0.00     0.032 A 
ATOM     33  C   UNL d   1      30.794 -17.922  -7.436  0.00  0.00     0.017 A 
ATOM     34  C   UNL d   1      31.184 -19.173  -7.911  0.00  0.00     0.001 A 
ATOM     35  C   UNL d   1      31.235 -20.252  -7.031  0.00  0.00     0.000 A 
ATOM     36  C   UNL d   1      30.840 -20.095  -5.699  0.00  0.00     0.001 A 
ATOM     37  C   UNL d   1      30.406 -18.853  -5.229  0.00  0.00     0.017 A 
ENDBRANCH  29  32
ENDBRANCH   3  28
TORSDOF 5
ENDMDL
