MODEL 1
REMARK VINA RESULT:    -6.250      0.000      0.000
REMARK INTER + INTRA:          -8.233
REMARK INTER:                  -7.443
REMARK INTRA:                  -0.790
REMARK CONF_INDEPENDENT:        1.193
REMARK UNBOUND:                -0.790
REMARK  4 active torsions:
REMARK  status: ('A' for Active; 'I' for Inactive)
REMARK    1  A    between atoms: C_2  and  C_3 
REMARK    2  A    between atoms: C_3  and  C_4 
REMARK       I    between atoms: C_4  and  N_6 
REMARK    3  A    between atoms: N_6  and  N_7 
REMARK       I    between atoms: N_7  and  C_8 
REMARK    4  A    between atoms: C_8  and  C_10 
ROOT
ATOM      1  N   UNL d   1      23.781 -18.253   0.507  0.00  0.00    -0.263 N 
ATOM      2  C   UNL d   1      25.100 -17.917   0.221  0.00  0.00     0.270 C 
ATOM      3  O   UNL d   1      26.027 -18.378   0.888  0.00  0.00    -0.266 OA
ATOM      4  H   UNL d   1      23.648 -18.765   1.381  0.00  0.00     0.190 HD
ENDROOT
BRANCH   1   5
ATOM      5  N   UNL d   1      22.862 -18.646  -0.510  0.00  0.00    -0.267 N 
ATOM      6  C   UNL d   1      21.568 -18.960  -0.121  0.00  0.00     0.236 C 
ATOM      7  O   UNL d   1      21.224 -18.969   1.059  0.00  0.00    -0.272 OA
ATOM      8  H   UNL d   1      23.190 -18.723  -1.468  0.00  0.00     0.190 HD
BRANCH   6   9
ATOM      9  C   UNL d   1      20.612 -19.271  -1.271  0.00  0.00     0.104 C 
BRANCH   9  10
ATOM     10  C   UNL d   1      19.154 -19.320  -0.794  0.00  0.00     0.005 C 
ATOM     11  C   UNL d   1      18.898 -20.433   0.211  0.00  0.00     0.005 C 
ENDBRANCH   9  10
ENDBRANCH   6   9
ENDBRANCH   1   5
BRANCH   2  12
ATOM     12  C   UNL d   1      25.378 -16.883  -0.823  0.00  0.00     0.033 A 
ATOM     13  C   UNL d   1      24.330 -16.109  -1.350  0.00  0.00     0.017 A 
ATOM     14  C   UNL d   1      24.572 -15.199  -2.390  0.00  0.00     0.007 A 
ATOM     15  C   UNL d   1      25.860 -15.050  -2.915  0.00  0.00    -0.062 A 
ATOM     16  C   UNL d   1      26.148 -14.095  -4.036  0.00  0.00     0.048 C 
ATOM     17  C   UNL d   1      26.898 -15.829  -2.397  0.00  0.00     0.007 A 
ATOM     18  C   UNL d   1      26.653 -16.748  -1.379  0.00  0.00     0.017 A 
ENDBRANCH   2  12
TORSDOF 4
ENDMDL
MODEL 2
REMARK VINA RESULT:    -6.242      0.118      1.210
REMARK INTER + INTRA:          -8.258
REMARK INTER:                  -7.435
REMARK INTRA:                  -0.822
REMARK CONF_INDEPENDENT:        1.193
REMARK UNBOUND:                -0.822
REMARK  4 active torsions:
REMARK  status: ('A' for Active; 'I' for Inactive)
REMARK    1  A    between atoms: C_2  and  C_3 
REMARK    2  A    between atoms: C_3  and  C_4 
REMARK       I    between atoms: C_4  and  N_6 
REMARK    3  A    between atoms: N_6  and  N_7 
REMARK       I    between atoms: N_7  and  C_8 
REMARK    4  A    between atoms: C_8  and  C_10 
ROOT
ATOM      1  N   UNL d   1      23.791 -18.227   0.459  0.00  0.00    -0.263 N 
ATOM      2  C   UNL d   1      25.119 -17.937   0.163  0.00  0.00     0.270 C 
ATOM      3  O   UNL d   1      26.031 -18.382   0.859  0.00  0.00    -0.266 OA
ATOM      4  H   UNL d   1      23.642 -18.688   1.358  0.00  0.00     0.190 HD
ENDROOT
BRANCH   1   5
ATOM      5  N   UNL d   1      22.868 -18.654  -0.542  0.00  0.00    -0.267 N 
ATOM      6  C   UNL d   1      21.579 -18.969  -0.135  0.00  0.00     0.236 C 
ATOM      7  O   UNL d   1      21.244 -18.950   1.048  0.00  0.00    -0.272 OA
ATOM      8  H   UNL d   1      23.189 -18.752  -1.500  0.00  0.00     0.190 HD
BRANCH   6   9
ATOM      9  C   UNL d   1      20.618 -19.318  -1.270  0.00  0.00     0.104 C 
BRANCH   9  10
ATOM     10  C   UNL d   1      19.160 -19.326  -0.790  0.00  0.00     0.005 C 
ATOM     11  C   UNL d   1      18.868 -20.450   0.193  0.00  0.00     0.005 C 
ENDBRANCH   9  10
ENDBRANCH   6   9
ENDBRANCH   1   5
BRANCH   2  12
ATOM     12  C   UNL d   1      25.425 -16.968  -0.935  0.00  0.00     0.033 A 
ATOM     13  C   UNL d   1      26.749 -16.780  -1.365  0.00  0.00     0.017 A 
ATOM     14  C   UNL d   1      27.050 -15.810  -2.334  0.00  0.00     0.007 A 
ATOM     15  C   UNL d   1      26.036 -15.019  -2.883  0.00  0.00    -0.062 A 
ATOM     16  C   UNL d   1      26.328 -13.965  -3.911  0.00  0.00     0.048 C 
ATOM     17  C   UNL d   1      24.722 -15.200  -2.444  0.00  0.00     0.007 A 
ATOM     18  C   UNL d   1      24.426 -16.148  -1.467  0.00  0.00     0.017 A 
ENDBRANCH   2  12
TORSDOF 4
ENDMDL
MODEL 3
REMARK VINA RESULT:    -5.606      2.531      3.273
REMARK INTER + INTRA:          -7.820
REMARK INTER:                  -6.799
REMARK INTRA:                  -1.021
REMARK CONF_INDEPENDENT:        1.193
REMARK UNBOUND:                -1.021
REMARK  4 active torsions:
REMARK  status: ('A' for Active; 'I' for Inactive)
REMARK    1  A    between atoms: C_2  and  C_3 
REMARK    2  A    between atoms: C_3  and  C_4 
REMARK       I    between atoms: C_4  and  N_6 
REMARK    3  A    between atoms: N_6  and  N_7 
REMARK       I    between atoms: N_7  and  C_8 
REMARK    4  A    between atoms: C_8  and  C_10 
ROOT
ATOM      1  N   UNL d   1      24.489 -17.619  -1.927  0.00  0.00    -0.263 N 
ATOM      2  C   UNL d   1      25.221 -16.454  -2.131  0.00  0.00     0.270 C 
ATOM      3  O   UNL d   1      25.240 -15.906  -3.232  0.00  0.00    -0.266 OA
ATOM      4  H   UNL d   1      24.116 -18.047  -2.776  0.00  0.00     0.190 HD
ENDROOT
BRANCH   1   5
ATOM      5  N   UNL d   1      23.629 -17.786  -0.801  0.00  0.00    -0.267 N 
ATOM      6  C   UNL d   1      22.534 -18.626  -0.947  0.00  0.00     0.236 C 
ATOM      7  O   UNL d   1      22.261 -19.164  -2.018  0.00  0.00    -0.272 OA
ATOM      8  H   UNL d   1      23.818 -17.260   0.047  0.00  0.00     0.190 HD
BRANCH   6   9
ATOM      9  C   UNL d   1      21.717 -18.839   0.326  0.00  0.00     0.104 C 
BRANCH   9  10
ATOM     10  C   UNL d   1      20.626 -19.899   0.125  0.00  0.00     0.005 C 
ATOM     11  C   UNL d   1      19.492 -19.417  -0.768  0.00  0.00     0.005 C 
ENDBRANCH   9  10
ENDBRANCH   6   9
ENDBRANCH   1   5
BRANCH   2  12
ATOM     12  C   UNL d   1      26.096 -15.943  -1.030  0.00  0.00     0.033 A 
ATOM     13  C   UNL d   1      26.662 -16.835  -0.103  0.00  0.00     0.017 A 
ATOM     14  C   UNL d   1      27.413 -16.352   0.979  0.00  0.00     0.007 A 
ATOM     15  C   UNL d   1      27.608 -14.977   1.149  0.00  0.00    -0.062 A 
ATOM     16  C   UNL d   1      28.394 -14.430   2.304  0.00  0.00     0.048 C 
ATOM     17  C   UNL d   1      27.034 -14.093   0.233  0.00  0.00     0.007 A 
ATOM     18  C   UNL d   1      26.271 -14.571  -0.830  0.00  0.00     0.017 A 
ENDBRANCH   2  12
TORSDOF 4
ENDMDL
MODEL 4
REMARK VINA RESULT:    -5.578      3.943      6.650
REMARK INTER + INTRA:          -7.488
REMARK INTER:                  -6.772
REMARK INTRA:                  -0.717
REMARK CONF_INDEPENDENT:        1.193
REMARK UNBOUND:                -0.717
REMARK  4 active torsions:
REMARK  status: ('A' for Active; 'I' for Inactive)
REMARK    1  A    between atoms: C_2  and  C_3 
REMARK    2  A    between atoms: C_3  and  C_4 
REMARK       I    between atoms: C_4  and  N_6 
REMARK    3  A    between atoms: N_6  and  N_7 
REMARK       I    between atoms: N_7  and  C_8 
REMARK    4  A    between atoms: C_8  and  C_10 
ROOT
ATOM      1  N   UNL d   1      28.656 -15.439  -0.025  0.00  0.00    -0.263 N 
ATOM      2  C   UNL d   1      28.125 -16.531  -0.703  0.00  0.00     0.270 C 
ATOM      3  O   UNL d   1      28.820 -17.195  -1.471  0.00  0.00    -0.266 OA
ATOM      4  H   UNL d   1      29.589 -15.155  -0.331  0.00  0.00     0.190 HD
ENDROOT
BRANCH   1   5
ATOM      5  N   UNL d   1      28.449 -15.241   1.373  0.00  0.00    -0.267 N 
ATOM      6  C   UNL d   1      27.671 -14.160   1.761  0.00  0.00     0.236 C 
ATOM      7  O   UNL d   1      27.222 -13.352   0.949  0.00  0.00    -0.272 OA
ATOM      8  H   UNL d   1      28.905 -15.864   2.032  0.00  0.00     0.190 HD
BRANCH   6   9
ATOM      9  C   UNL d   1      27.406 -14.069   3.262  0.00  0.00     0.104 C 
BRANCH   9  10
ATOM     10  C   UNL d   1      28.654 -14.430   4.078  0.00  0.00     0.005 C 
ATOM     11  C   UNL d   1      28.330 -14.825   5.511  0.00  0.00     0.005 C 
ENDBRANCH   9  10
ENDBRANCH   6   9
ENDBRANCH   1   5
BRANCH   2  12
ATOM     12  C   UNL d   1      26.660 -16.812  -0.593  0.00  0.00     0.033 A 
ATOM     13  C   UNL d   1      26.201 -17.881   0.195  0.00  0.00     0.017 A 
ATOM     14  C   UNL d   1      24.835 -18.200   0.232  0.00  0.00     0.007 A 
ATOM     15  C   UNL d   1      23.913 -17.459  -0.514  0.00  0.00    -0.062 A 
ATOM     16  C   UNL d   1      22.449 -17.784  -0.506  0.00  0.00     0.048 C 
ATOM     17  C   UNL d   1      24.374 -16.404  -1.306  0.00  0.00     0.007 A 
ATOM     18  C   UNL d   1      25.733 -16.100  -1.360  0.00  0.00     0.017 A 
ENDBRANCH   2  12
TORSDOF 4
ENDMDL
MODEL 5
REMARK VINA RESULT:    -5.549      2.402      6.145
REMARK INTER + INTRA:          -7.903
REMARK INTER:                  -6.743
REMARK INTRA:                  -1.161
REMARK CONF_INDEPENDENT:        1.193
REMARK UNBOUND:                -1.161
REMARK  4 active torsions:
REMARK  status: ('A' for Active; 'I' for Inactive)
REMARK    1  A    between atoms: C_2  and  C_3 
REMARK    2  A    between atoms: C_3  and  C_4 
REMARK       I    between atoms: C_4  and  N_6 
REMARK    3  A    between atoms: N_6  and  N_7 
REMARK       I    between atoms: N_7  and  C_8 
REMARK    4  A    between atoms: C_8  and  C_10 
ROOT
ATOM      1  N   UNL d   1      26.567 -16.718  -1.712  0.00  0.00    -0.263 N 
ATOM      2  C   UNL d   1      25.906 -16.940  -0.509  0.00  0.00     0.270 C 
ATOM      3  O   UNL d   1      26.495 -16.824   0.565  0.00  0.00    -0.266 OA
ATOM      4  H   UNL d   1      27.580 -16.613  -1.633  0.00  0.00     0.190 HD
ENDROOT
BRANCH   1   5
ATOM      5  N   UNL d   1      26.007 -15.912  -2.747  0.00  0.00    -0.267 N 
ATOM      6  C   UNL d   1      26.882 -15.326  -3.651  0.00  0.00     0.236 C 
ATOM      7  O   UNL d   1      28.102 -15.432  -3.542  0.00  0.00    -0.272 OA
ATOM      8  H   UNL d   1      25.003 -15.759  -2.765  0.00  0.00     0.190 HD
BRANCH   6   9
ATOM      9  C   UNL d   1      26.209 -14.563  -4.790  0.00  0.00     0.104 C 
BRANCH   9  10
ATOM     10  C   UNL d   1      25.090 -13.648  -4.273  0.00  0.00     0.005 C 
ATOM     11  C   UNL d   1      25.533 -12.775  -3.108  0.00  0.00     0.005 C 
ENDBRANCH   9  10
ENDBRANCH   6   9
ENDBRANCH   1   5
BRANCH   2  12
ATOM     12  C   UNL d   1      24.500 -17.452  -0.535  0.00  0.00     0.033 A 
ATOM     13  C   UNL d   1      24.245 -18.828  -0.414  0.00  0.00     0.017 A 
ATOM     14  C   UNL d   1      22.936 -19.320  -0.524  0.00  0.00     0.007 A 
ATOM     15  C   UNL d   1      21.868 -18.447  -0.755  0.00  0.00    -0.062 A 
ATOM     16  C   UNL d   1      20.459 -18.944  -0.890  0.00  0.00     0.048 C 
ATOM     17  C   UNL d   1      22.126 -17.080  -0.886  0.00  0.00     0.007 A 
ATOM     18  C   UNL d   1      23.429 -16.594  -0.798  0.00  0.00     0.017 A 
ENDBRANCH   2  12
TORSDOF 4
ENDMDL
MODEL 6
REMARK VINA RESULT:    -5.528      2.383      6.156
REMARK INTER + INTRA:          -7.839
REMARK INTER:                  -6.721
REMARK INTRA:                  -1.118
REMARK CONF_INDEPENDENT:        1.193
REMARK UNBOUND:                -1.118
REMARK  4 active torsions:
REMARK  status: ('A' for Active; 'I' for Inactive)
REMARK    1  A    between atoms: C_2  and  C_3 
REMARK    2  A    between atoms: C_3  and  C_4 
REMARK       I    between atoms: C_4  and  N_6 
REMARK    3  A    between atoms: N_6  and  N_7 
REMARK       I    between atoms: N_7  and  C_8 
REMARK    4  A    between atoms: C_8  and  C_10 
ROOT
ATOM      1  N   UNL d   1      26.469 -16.733  -1.768  0.00  0.00    -0.263 N 
ATOM      2  C   UNL d   1      25.755 -16.989  -0.602  0.00  0.00     0.270 C 
ATOM      3  O   UNL d   1      26.295 -16.900   0.500  0.00  0.00    -0.266 OA
ATOM      4  H   UNL d   1      27.476 -16.626  -1.641  0.00  0.00     0.190 HD
ENDROOT
BRANCH   1   5
ATOM      5  N   UNL d   1      25.952 -15.901  -2.806  0.00  0.00    -0.267 N 
ATOM      6  C   UNL d   1      26.863 -15.307  -3.667  0.00  0.00     0.236 C 
ATOM      7  O   UNL d   1      28.078 -15.427  -3.519  0.00  0.00    -0.272 OA
ATOM      8  H   UNL d   1      24.951 -15.739  -2.856  0.00  0.00     0.190 HD
BRANCH   6   9
ATOM      9  C   UNL d   1      26.237 -14.515  -4.814  0.00  0.00     0.104 C 
BRANCH   9  10
ATOM     10  C   UNL d   1      25.049 -13.670  -4.333  0.00  0.00     0.005 C 
ATOM     11  C   UNL d   1      25.479 -12.444  -3.543  0.00  0.00     0.005 C 
ENDBRANCH   9  10
ENDBRANCH   6   9
ENDBRANCH   1   5
BRANCH   2  12
ATOM     12  C   UNL d   1      24.354 -17.505  -0.706  0.00  0.00     0.033 A 
ATOM     13  C   UNL d   1      23.282 -16.614  -0.883  0.00  0.00     0.017 A 
ATOM     14  C   UNL d   1      21.961 -17.086  -0.895  0.00  0.00     0.007 A 
ATOM     15  C   UNL d   1      21.694 -18.449  -0.730  0.00  0.00    -0.062 A 
ATOM     16  C   UNL d   1      20.292 -18.983  -0.724  0.00  0.00     0.048 C 
ATOM     17  C   UNL d   1      22.762 -19.331  -0.542  0.00  0.00     0.007 A 
ATOM     18  C   UNL d   1      24.073 -18.860  -0.509  0.00  0.00     0.017 A 
ENDBRANCH   2  12
TORSDOF 4
ENDMDL
MODEL 7
REMARK VINA RESULT:    -5.498      4.615      7.373
REMARK INTER + INTRA:          -7.547
REMARK INTER:                  -6.692
REMARK INTRA:                  -0.855
REMARK CONF_INDEPENDENT:        1.193
REMARK UNBOUND:                -0.855
REMARK  4 active torsions:
REMARK  status: ('A' for Active; 'I' for Inactive)
REMARK    1  A    between atoms: C_2  and  C_3 
REMARK    2  A    between atoms: C_3  and  C_4 
REMARK       I    between atoms: C_4  and  N_6 
REMARK    3  A    between atoms: N_6  and  N_7 
REMARK       I    between atoms: N_7  and  C_8 
REMARK    4  A    between atoms: C_8  and  C_10 
ROOT
ATOM      1  N   UNL d   1      26.514 -13.535  -4.089  0.00  0.00    -0.263 N 
ATOM      2  C   UNL d   1      25.512 -14.429  -3.727  0.00  0.00     0.270 C 
ATOM      3  O   UNL d   1      24.409 -14.393  -4.270  0.00  0.00    -0.266 OA
ATOM      4  H   UNL d   1      26.213 -12.779  -4.706  0.00  0.00     0.190 HD
ENDROOT
BRANCH   1   5
ATOM      5  N   UNL d   1      27.851 -13.961  -4.350  0.00  0.00    -0.267 N 
ATOM      6  C   UNL d   1      28.061 -14.787  -5.445  0.00  0.00     0.236 C 
ATOM      7  O   UNL d   1      27.135 -15.201  -6.139  0.00  0.00    -0.272 OA
ATOM      8  H   UNL d   1      28.590 -13.684  -3.711  0.00  0.00     0.190 HD
BRANCH   6   9
ATOM      9  C   UNL d   1      29.526 -15.119  -5.724  0.00  0.00     0.104 C 
BRANCH   9  10
ATOM     10  C   UNL d   1      29.848 -16.580  -5.380  0.00  0.00     0.005 C 
ATOM     11  C   UNL d   1      29.883 -16.840  -3.882  0.00  0.00     0.005 C 
ENDBRANCH   9  10
ENDBRANCH   6   9
ENDBRANCH   1   5
BRANCH   2  12
ATOM     12  C   UNL d   1      25.744 -15.351  -2.572  0.00  0.00     0.033 A 
ATOM     13  C   UNL d   1      27.051 -15.626  -2.135  0.00  0.00     0.017 A 
ATOM     14  C   UNL d   1      27.276 -16.556  -1.109  0.00  0.00     0.007 A 
ATOM     15  C   UNL d   1      26.202 -17.220  -0.507  0.00  0.00    -0.062 A 
ATOM     16  C   UNL d   1      26.412 -18.229   0.584  0.00  0.00     0.048 C 
ATOM     17  C   UNL d   1      24.905 -16.954  -0.951  0.00  0.00     0.007 A 
ATOM     18  C   UNL d   1      24.683 -16.046  -1.985  0.00  0.00     0.017 A 
ENDBRANCH   2  12
TORSDOF 4
ENDMDL
MODEL 8
REMARK VINA RESULT:    -5.479      4.523      7.127
REMARK INTER + INTRA:          -7.564
REMARK INTER:                  -6.672
REMARK INTRA:                  -0.892
REMARK CONF_INDEPENDENT:        1.193
REMARK UNBOUND:                -0.892
REMARK  4 active torsions:
REMARK  status: ('A' for Active; 'I' for Inactive)
REMARK    1  A    between atoms: C_2  and  C_3 
REMARK    2  A    between atoms: C_3  and  C_4 
REMARK       I    between atoms: C_4  and  N_6 
REMARK    3  A    between atoms: N_6  and  N_7 
REMARK       I    between atoms: N_7  and  C_8 
REMARK    4  A    between atoms: C_8  and  C_10 
ROOT
ATOM      1  N   UNL d   1      26.541 -13.660  -3.864  0.00  0.00    -0.263 N 
ATOM      2  C   UNL d   1      25.531 -14.545  -3.503  0.00  0.00     0.270 C 
ATOM      3  O   UNL d   1      24.405 -14.450  -3.990  0.00  0.00    -0.266 OA
ATOM      4  H   UNL d   1      26.234 -12.862  -4.423  0.00  0.00     0.190 HD
ENDROOT
BRANCH   1   5
ATOM      5  N   UNL d   1      27.851 -14.106  -4.212  0.00  0.00    -0.267 N 
ATOM      6  C   UNL d   1      27.962 -15.048  -5.225  0.00  0.00     0.236 C 
ATOM      7  O   UNL d   1      26.976 -15.541  -5.770  0.00  0.00    -0.272 OA
ATOM      8  H   UNL d   1      28.647 -13.757  -3.686  0.00  0.00     0.190 HD
BRANCH   6   9
ATOM      9  C   UNL d   1      29.396 -15.402  -5.614  0.00  0.00     0.104 C 
BRANCH   9  10
ATOM     10  C   UNL d   1      29.837 -16.733  -4.990  0.00  0.00     0.005 C 
ATOM     11  C   UNL d   1      29.713 -16.744  -3.474  0.00  0.00     0.005 C 
ENDBRANCH   9  10
ENDBRANCH   6   9
ENDBRANCH   1   5
BRANCH   2  12
ATOM     12  C   UNL d   1      25.789 -15.537  -2.413  0.00  0.00     0.033 A 
ATOM     13  C   UNL d   1      24.782 -16.433  -2.017  0.00  0.00     0.017 A 
ATOM     14  C   UNL d   1      24.991 -17.306  -0.939  0.00  0.00     0.007 A 
ATOM     15  C   UNL d   1      26.205 -17.294  -0.244  0.00  0.00    -0.062 A 
ATOM     16  C   UNL d   1      26.453 -18.206   0.922  0.00  0.00     0.048 C 
ATOM     17  C   UNL d   1      27.200 -16.394  -0.632  0.00  0.00     0.007 A 
ATOM     18  C   UNL d   1      26.984 -15.513  -1.689  0.00  0.00     0.017 A 
ENDBRANCH   2  12
TORSDOF 4
ENDMDL
MODEL 9
REMARK VINA RESULT:    -5.396      1.600      2.271
REMARK INTER + INTRA:          -7.567
REMARK INTER:                  -6.589
REMARK INTRA:                  -0.978
REMARK CONF_INDEPENDENT:        1.193
REMARK UNBOUND:                -0.978
REMARK  4 active torsions:
REMARK  status: ('A' for Active; 'I' for Inactive)
REMARK    1  A    between atoms: C_2  and  C_3 
REMARK    2  A    between atoms: C_3  and  C_4 
REMARK       I    between atoms: C_4  and  N_6 
REMARK    3  A    between atoms: N_6  and  N_7 
REMARK       I    between atoms: N_7  and  C_8 
REMARK    4  A    between atoms: C_8  and  C_10 
ROOT
ATOM      1  N   UNL d   1      25.218 -16.809  -0.337  0.00  0.00    -0.263 N 
ATOM      2  C   UNL d   1      26.280 -16.558  -1.198  0.00  0.00     0.270 C 
ATOM      3  O   UNL d   1      27.326 -17.200  -1.113  0.00  0.00    -0.266 OA
ATOM      4  H   UNL d   1      25.433 -17.436   0.441  0.00  0.00     0.190 HD
ENDROOT
BRANCH   1   5
ATOM      5  N   UNL d   1      23.878 -16.954  -0.807  0.00  0.00    -0.267 N 
ATOM      6  C   UNL d   1      23.189 -18.102  -0.444  0.00  0.00     0.236 C 
ATOM      7  O   UNL d   1      23.718 -19.004   0.203  0.00  0.00    -0.272 OA
ATOM      8  H   UNL d   1      23.490 -16.242  -1.418  0.00  0.00     0.190 HD
BRANCH   6   9
ATOM      9  C   UNL d   1      21.731 -18.142  -0.895  0.00  0.00     0.104 C 
BRANCH   9  10
ATOM     10  C   UNL d   1      20.981 -19.329  -0.273  0.00  0.00     0.005 C 
ATOM     11  C   UNL d   1      19.553 -19.457  -0.781  0.00  0.00     0.005 C 
ENDBRANCH   9  10
ENDBRANCH   6   9
ENDBRANCH   1   5
BRANCH   2  12
ATOM     12  C   UNL d   1      26.189 -15.405  -2.148  0.00  0.00     0.033 A 
ATOM     13  C   UNL d   1      26.272 -14.086  -1.670  0.00  0.00     0.017 A 
ATOM     14  C   UNL d   1      26.102 -13.003  -2.545  0.00  0.00     0.007 A 
ATOM     15  C   UNL d   1      25.849 -13.222  -3.903  0.00  0.00    -0.062 A 
ATOM     16  C   UNL d   1      25.649 -12.084  -4.861  0.00  0.00     0.048 C 
ATOM     17  C   UNL d   1      25.756 -14.534  -4.373  0.00  0.00     0.007 A 
ATOM     18  C   UNL d   1      25.903 -15.611  -3.500  0.00  0.00     0.017 A 
ENDBRANCH   2  12
TORSDOF 4
ENDMDL
