MODEL 1
REMARK VINA RESULT:   -10.321      0.000      0.000
REMARK INTER + INTRA:         -13.863
REMARK INTER:                 -12.409
REMARK INTRA:                  -1.454
REMARK CONF_INDEPENDENT:        2.088
REMARK UNBOUND:                -1.454
REMARK  7 active torsions:
REMARK  status: ('A' for Active; 'I' for Inactive)
REMARK    1  A    between atoms: O_2  and  C_3 
REMARK    2  A    between atoms: C_6  and  N_7 
REMARK       I    between atoms: N_7  and  C_8 
REMARK       I    between atoms: C_8  and  N_19 
REMARK       I    between atoms: N_9  and  C_10 
REMARK    3  A    between atoms: C_10  and  C_12 
REMARK    4  A    between atoms: N_19  and  C_20 
REMARK    5  A    between atoms: C_20  and  C_21 
REMARK    6  A    between atoms: C_21  and  C_22 
REMARK    7  A    between atoms: C_32  and  O_33 
ROOT
ATOM      1  N   UNL d   1      25.027 -16.316  -2.974  0.00  0.00    -0.190 N 
ATOM      2  C   UNL d   1      24.859 -16.733  -1.634  0.00  0.00     0.704 C 
ATOM      3  N   UNL d   1      25.343 -16.279  -0.513  0.00  0.00    -0.023 NA
ATOM      4  C   UNL d   1      26.579 -15.691  -0.538  0.00  0.00     0.293 C 
ATOM      5  O   UNL d   1      27.515 -16.150  -1.145  0.00  0.00    -0.265 OA
ATOM      6  N   UNL d   1      24.031 -17.853  -1.443  0.00  0.00    -0.224 N 
ATOM      7  H   UNL d   1      24.772 -16.981  -3.690  0.00  0.00     0.184 HD
ATOM      8  H   UNL d   1      23.900 -18.486  -2.223  0.00  0.00     0.177 HD
ENDROOT
BRANCH   1   9
ATOM      9  C   UNL d   1      25.785 -15.212  -3.497  0.00  0.00     0.052 C 
ATOM     10  C   UNL d   1      25.463 -13.869  -3.366  0.00  0.00     0.033 C 
ATOM     11  C   UNL d   1      26.152 -12.869  -4.135  0.00  0.00     0.042 C 
ATOM     12  C   UNL d   1      27.097 -13.176  -5.139  0.00  0.00     0.101 C 
ATOM     13  C   UNL d   1      27.441 -14.501  -5.226  0.00  0.00     0.103 C 
ATOM     14  C   UNL d   1      26.946 -15.386  -4.226  0.00  0.00     0.069 C 
BRANCH  12  15
ATOM     15  O   UNL d   1      27.747 -12.104  -5.692  0.00  0.00    -0.353 OA
ATOM     16  C   UNL d   1      27.123 -11.281  -6.674  0.00  0.00     0.210 C 
ENDBRANCH  12  15
BRANCH  13  17
ATOM     17  O   UNL d   1      28.171 -15.195  -6.129  0.00  0.00    -0.353 OA
ATOM     18  C   UNL d   1      29.192 -14.664  -6.924  0.00  0.00     0.210 C 
ENDBRANCH  13  17
ENDBRANCH   1   9
BRANCH   6  19
ATOM     19  C   UNL d   1      24.008 -18.484  -0.087  0.00  0.00     0.142 C 
BRANCH  19  20
ATOM     20  C   UNL d   1      22.652 -18.439   0.608  0.00  0.00     0.057 C 
BRANCH  20  21
ATOM     21  C   UNL d   1      21.429 -18.947  -0.128  0.00  0.00    -0.048 A 
ATOM     22  C   UNL d   1      20.434 -19.526   0.552  0.00  0.00    -0.006 A 
ATOM     23  C   UNL d   1      20.272 -19.755   1.945  0.00  0.00     0.014 A 
ATOM     24  C   UNL d   1      19.447 -19.987  -0.432  0.00  0.00     0.038 A 
ATOM     25  C   UNL d   1      19.209 -20.451   2.357  0.00  0.00     0.001 A 
ATOM     26  C   UNL d   1      18.194 -20.905   1.419  0.00  0.00     0.002 A 
ATOM     27  C   UNL d   1      18.264 -20.712   0.085  0.00  0.00     0.030 A 
ATOM     28  N   UNL d   1      19.794 -19.676  -1.623  0.00  0.00    -0.385 N 
ATOM     29  C   UNL d   1      21.110 -18.957  -1.604  0.00  0.00     0.155 A 
ATOM     30  H   UNL d   1      19.228 -19.901  -2.441  0.00  0.00     0.160 HD
ENDBRANCH  20  21
ENDBRANCH  19  20
ENDBRANCH   6  19
BRANCH   4  31
ATOM     31  C   UNL d   1      26.858 -14.671   0.516  0.00  0.00     0.035 C 
ATOM     32  C   UNL d   1      26.284 -13.401   0.715  0.00  0.00     0.017 C 
ATOM     33  C   UNL d   1      27.028 -12.399   1.358  0.00  0.00     0.002 C 
ATOM     34  C   UNL d   1      28.264 -12.708   1.916  0.00  0.00     0.007 C 
ATOM     35  C   UNL d   1      28.759 -14.007   1.820  0.00  0.00    -0.061 C 
ATOM     36  C   UNL d   1      30.058 -14.445   2.387  0.00  0.00     0.048 C 
ATOM     37  C   UNL d   1      28.065 -14.969   1.105  0.00  0.00     0.024 C 
ENDBRANCH   4  31
TORSDOF 7
ENDMDL
MODEL 2
REMARK VINA RESULT:    -9.733      4.325      8.129
REMARK INTER + INTRA:         -13.784
REMARK INTER:                 -11.821
REMARK INTRA:                  -1.963
REMARK CONF_INDEPENDENT:        2.088
REMARK UNBOUND:                -1.963
REMARK  7 active torsions:
REMARK  status: ('A' for Active; 'I' for Inactive)
REMARK    1  A    between atoms: O_2  and  C_3 
REMARK    2  A    between atoms: C_6  and  N_7 
REMARK       I    between atoms: N_7  and  C_8 
REMARK       I    between atoms: C_8  and  N_19 
REMARK       I    between atoms: N_9  and  C_10 
REMARK    3  A    between atoms: C_10  and  C_12 
REMARK    4  A    between atoms: N_19  and  C_20 
REMARK    5  A    between atoms: C_20  and  C_21 
REMARK    6  A    between atoms: C_21  and  C_22 
REMARK    7  A    between atoms: C_32  and  O_33 
ROOT
ATOM      1  N   UNL d   1      29.420 -14.599   3.367  0.00  0.00    -0.190 N 
ATOM      2  C   UNL d   1      29.011 -14.179   2.082  0.00  0.00     0.704 C 
ATOM      3  N   UNL d   1      28.371 -13.120   1.674  0.00  0.00    -0.023 NA
ATOM      4  C   UNL d   1      27.467 -12.547   2.528  0.00  0.00     0.293 C 
ATOM      5  O   UNL d   1      26.677 -13.187   3.176  0.00  0.00    -0.265 OA
ATOM      6  N   UNL d   1      29.327 -15.051   1.025  0.00  0.00    -0.224 N 
ATOM      7  H   UNL d   1      29.659 -15.575   3.469  0.00  0.00     0.184 HD
ATOM      8  H   UNL d   1      29.486 -16.027   1.246  0.00  0.00     0.177 HD
ENDROOT
BRANCH   1   9
ATOM      9  C   UNL d   1      29.268 -13.939   4.635  0.00  0.00     0.052 C 
ATOM     10  C   UNL d   1      29.003 -14.557   5.848  0.00  0.00     0.033 C 
ATOM     11  C   UNL d   1      28.627 -13.785   7.001  0.00  0.00     0.042 C 
ATOM     12  C   UNL d   1      28.388 -12.393   6.959  0.00  0.00     0.101 C 
ATOM     13  C   UNL d   1      28.699 -11.787   5.768  0.00  0.00     0.103 C 
ATOM     14  C   UNL d   1      29.356 -12.567   4.774  0.00  0.00     0.069 C 
BRANCH  12  15
ATOM     15  O   UNL d   1      28.155 -11.793   8.168  0.00  0.00    -0.353 OA
ATOM     16  C   UNL d   1      28.423 -12.465   9.396  0.00  0.00     0.210 C 
ENDBRANCH  12  15
BRANCH  13  17
ATOM     17  O   UNL d   1      28.475 -10.539   5.296  0.00  0.00    -0.353 OA
ATOM     18  C   UNL d   1      29.422  -9.511   5.247  0.00  0.00     0.210 C 
ENDBRANCH  13  17
ENDBRANCH   1   9
BRANCH   6  19
ATOM     19  C   UNL d   1      28.714 -14.782  -0.312  0.00  0.00     0.142 C 
BRANCH  19  20
ATOM     20  C   UNL d   1      27.218 -15.066  -0.391  0.00  0.00     0.057 C 
BRANCH  20  21
ATOM     21  C   UNL d   1      26.728 -16.488  -0.213  0.00  0.00    -0.048 A 
ATOM     22  C   UNL d   1      25.441 -16.782  -0.428  0.00  0.00    -0.006 A 
ATOM     23  C   UNL d   1      24.360 -15.962  -0.848  0.00  0.00     0.014 A 
ATOM     24  C   UNL d   1      25.257 -18.199  -0.092  0.00  0.00     0.038 A 
ATOM     25  C   UNL d   1      23.136 -16.494  -0.893  0.00  0.00     0.001 A 
ATOM     26  C   UNL d   1      22.912 -17.900  -0.593  0.00  0.00     0.002 A 
ATOM     27  C   UNL d   1      23.888 -18.749  -0.205  0.00  0.00     0.030 A 
ATOM     28  N   UNL d   1      26.360 -18.742   0.262  0.00  0.00    -0.385 N 
ATOM     29  C   UNL d   1      27.466 -17.729   0.229  0.00  0.00     0.155 A 
ATOM     30  H   UNL d   1      26.435 -19.726   0.521  0.00  0.00     0.160 HD
ENDBRANCH  20  21
ENDBRANCH  19  20
ENDBRANCH   6  19
BRANCH   4  31
ATOM     31  C   UNL d   1      27.214 -11.086   2.355  0.00  0.00     0.035 C 
ATOM     32  C   UNL d   1      26.387 -10.222   3.098  0.00  0.00     0.017 C 
ATOM     33  C   UNL d   1      25.846  -9.083   2.480  0.00  0.00     0.002 C 
ATOM     34  C   UNL d   1      26.242  -8.742   1.191  0.00  0.00     0.007 C 
ATOM     35  C   UNL d   1      27.163  -9.544   0.519  0.00  0.00    -0.061 C 
ATOM     36  C   UNL d   1      27.660  -9.268  -0.852  0.00  0.00     0.048 C 
ATOM     37  C   UNL d   1      27.623 -10.716   1.095  0.00  0.00     0.024 C 
ENDBRANCH   4  31
TORSDOF 7
ENDMDL
MODEL 3
REMARK VINA RESULT:    -9.485      4.255      8.329
REMARK INTER + INTRA:         -13.787
REMARK INTER:                 -11.573
REMARK INTRA:                  -2.215
REMARK CONF_INDEPENDENT:        2.088
REMARK UNBOUND:                -2.215
REMARK  7 active torsions:
REMARK  status: ('A' for Active; 'I' for Inactive)
REMARK    1  A    between atoms: O_2  and  C_3 
REMARK    2  A    between atoms: C_6  and  N_7 
REMARK       I    between atoms: N_7  and  C_8 
REMARK       I    between atoms: C_8  and  N_19 
REMARK       I    between atoms: N_9  and  C_10 
REMARK    3  A    between atoms: C_10  and  C_12 
REMARK    4  A    between atoms: N_19  and  C_20 
REMARK    5  A    between atoms: C_20  and  C_21 
REMARK    6  A    between atoms: C_21  and  C_22 
REMARK    7  A    between atoms: C_32  and  O_33 
ROOT
ATOM      1  N   UNL d   1      29.811 -14.647   3.696  0.00  0.00    -0.190 N 
ATOM      2  C   UNL d   1      29.265 -14.282   2.445  0.00  0.00     0.704 C 
ATOM      3  N   UNL d   1      28.444 -13.331   2.097  0.00  0.00    -0.023 NA
ATOM      4  C   UNL d   1      27.517 -12.915   3.013  0.00  0.00     0.293 C 
ATOM      5  O   UNL d   1      26.876 -13.677   3.694  0.00  0.00    -0.265 OA
ATOM      6  N   UNL d   1      29.646 -15.083   1.354  0.00  0.00    -0.224 N 
ATOM      7  H   UNL d   1      30.204 -15.575   3.764  0.00  0.00     0.184 HD
ATOM      8  H   UNL d   1      29.968 -16.025   1.546  0.00  0.00     0.177 HD
ENDROOT
BRANCH   1   9
ATOM      9  C   UNL d   1      29.636 -14.032   4.983  0.00  0.00     0.052 C 
ATOM     10  C   UNL d   1      28.819 -14.498   6.003  0.00  0.00     0.033 C 
ATOM     11  C   UNL d   1      28.530 -13.678   7.148  0.00  0.00     0.042 C 
ATOM     12  C   UNL d   1      28.943 -12.332   7.262  0.00  0.00     0.101 C 
ATOM     13  C   UNL d   1      29.789 -11.898   6.272  0.00  0.00     0.103 C 
ATOM     14  C   UNL d   1      30.275 -12.861   5.341  0.00  0.00     0.069 C 
BRANCH  12  15
ATOM     15  O   UNL d   1      28.688 -11.732   8.467  0.00  0.00    -0.353 OA
ATOM     16  C   UNL d   1      28.816 -12.444   9.694  0.00  0.00     0.210 C 
ENDBRANCH  12  15
BRANCH  13  17
ATOM     17  O   UNL d   1      30.267 -10.673   5.954  0.00  0.00    -0.353 OA
ATOM     18  C   UNL d   1      31.469 -10.423   5.286  0.00  0.00     0.210 C 
ENDBRANCH  13  17
ENDBRANCH   1   9
BRANCH   6  19
ATOM     19  C   UNL d   1      28.919 -14.898   0.061  0.00  0.00     0.142 C 
BRANCH  19  20
ATOM     20  C   UNL d   1      28.093 -16.102  -0.378  0.00  0.00     0.057 C 
BRANCH  20  21
ATOM     21  C   UNL d   1      26.709 -15.876  -0.953  0.00  0.00    -0.048 A 
ATOM     22  C   UNL d   1      25.714 -16.712  -0.641  0.00  0.00    -0.006 A 
ATOM     23  C   UNL d   1      25.688 -17.848   0.211  0.00  0.00     0.014 A 
ATOM     24  C   UNL d   1      24.537 -16.291  -1.411  0.00  0.00     0.038 A 
ATOM     25  C   UNL d   1      24.568 -18.575   0.272  0.00  0.00     0.001 A 
ATOM     26  C   UNL d   1      23.371 -18.180  -0.455  0.00  0.00     0.002 A 
ATOM     27  C   UNL d   1      23.309 -17.105  -1.270  0.00  0.00     0.030 A 
ATOM     28  N   UNL d   1      24.784 -15.249  -2.111  0.00  0.00    -0.385 N 
ATOM     29  C   UNL d   1      26.210 -14.824  -1.914  0.00  0.00     0.155 A 
ATOM     30  H   UNL d   1      24.085 -14.800  -2.703  0.00  0.00     0.160 HD
ENDBRANCH  20  21
ENDBRANCH  19  20
ENDBRANCH   6  19
BRANCH   4  31
ATOM     31  C   UNL d   1      27.031 -11.510   2.885  0.00  0.00     0.035 C 
ATOM     32  C   UNL d   1      26.486 -10.843   1.771  0.00  0.00     0.017 C 
ATOM     33  C   UNL d   1      26.621  -9.449   1.666  0.00  0.00     0.002 C 
ATOM     34  C   UNL d   1      27.160  -8.726   2.724  0.00  0.00     0.007 C 
ATOM     35  C   UNL d   1      27.576  -9.394   3.875  0.00  0.00    -0.061 C 
ATOM     36  C   UNL d   1      28.155  -8.720   5.063  0.00  0.00     0.048 C 
ATOM     37  C   UNL d   1      27.528 -10.776   3.937  0.00  0.00     0.024 C 
ENDBRANCH   4  31
TORSDOF 7
ENDMDL
MODEL 4
REMARK VINA RESULT:    -9.481      4.495      8.237
REMARK INTER + INTRA:         -13.827
REMARK INTER:                 -11.569
REMARK INTRA:                  -2.258
REMARK CONF_INDEPENDENT:        2.088
REMARK UNBOUND:                -2.258
REMARK  7 active torsions:
REMARK  status: ('A' for Active; 'I' for Inactive)
REMARK    1  A    between atoms: O_2  and  C_3 
REMARK    2  A    between atoms: C_6  and  N_7 
REMARK       I    between atoms: N_7  and  C_8 
REMARK       I    between atoms: C_8  and  N_19 
REMARK       I    between atoms: N_9  and  C_10 
REMARK    3  A    between atoms: C_10  and  C_12 
REMARK    4  A    between atoms: N_19  and  C_20 
REMARK    5  A    between atoms: C_20  and  C_21 
REMARK    6  A    between atoms: C_21  and  C_22 
REMARK    7  A    between atoms: C_32  and  O_33 
ROOT
ATOM      1  N   UNL d   1      29.559 -14.616   3.480  0.00  0.00    -0.190 N 
ATOM      2  C   UNL d   1      28.997 -14.178   2.260  0.00  0.00     0.704 C 
ATOM      3  N   UNL d   1      28.244 -13.156   1.964  0.00  0.00    -0.023 NA
ATOM      4  C   UNL d   1      27.389 -12.689   2.925  0.00  0.00     0.293 C 
ATOM      5  O   UNL d   1      26.714 -13.413   3.614  0.00  0.00    -0.265 OA
ATOM      6  N   UNL d   1      29.271 -14.980   1.138  0.00  0.00    -0.224 N 
ATOM      7  H   UNL d   1      29.878 -15.574   3.513  0.00  0.00     0.184 HD
ATOM      8  H   UNL d   1      29.522 -15.949   1.297  0.00  0.00     0.177 HD
ENDROOT
BRANCH   1   9
ATOM      9  C   UNL d   1      29.483 -14.021   4.786  0.00  0.00     0.052 C 
ATOM     10  C   UNL d   1      28.724 -14.486   5.850  0.00  0.00     0.033 C 
ATOM     11  C   UNL d   1      28.531 -13.680   7.024  0.00  0.00     0.042 C 
ATOM     12  C   UNL d   1      28.982 -12.346   7.133  0.00  0.00     0.101 C 
ATOM     13  C   UNL d   1      29.771 -11.914   6.096  0.00  0.00     0.103 C 
ATOM     14  C   UNL d   1      30.171 -12.870   5.120  0.00  0.00     0.069 C 
BRANCH  12  15
ATOM     15  O   UNL d   1      28.821 -11.762   8.361  0.00  0.00    -0.353 OA
ATOM     16  C   UNL d   1      28.562 -12.540   9.526  0.00  0.00     0.210 C 
ENDBRANCH  12  15
BRANCH  13  17
ATOM     17  O   UNL d   1      30.255 -10.694   5.767  0.00  0.00    -0.353 OA
ATOM     18  C   UNL d   1      31.597 -10.401   5.505  0.00  0.00     0.210 C 
ENDBRANCH  13  17
ENDBRANCH   1   9
BRANCH   6  19
ATOM     19  C   UNL d   1      28.513 -14.706  -0.122  0.00  0.00     0.142 C 
BRANCH  19  20
ATOM     20  C   UNL d   1      27.032 -15.064  -0.059  0.00  0.00     0.057 C 
BRANCH  20  21
ATOM     21  C   UNL d   1      26.627 -16.524  -0.034  0.00  0.00    -0.048 A 
ATOM     22  C   UNL d   1      25.372 -16.873  -0.332  0.00  0.00    -0.006 A 
ATOM     23  C   UNL d   1      24.257 -16.083  -0.723  0.00  0.00     0.014 A 
ATOM     24  C   UNL d   1      25.266 -18.324  -0.136  0.00  0.00     0.038 A 
ATOM     25  C   UNL d   1      23.072 -16.682  -0.871  0.00  0.00     0.001 A 
ATOM     26  C   UNL d   1      22.928 -18.121  -0.711  0.00  0.00     0.002 A 
ATOM     27  C   UNL d   1      23.940 -18.942  -0.359  0.00  0.00     0.030 A 
ATOM     28  N   UNL d   1      26.387 -18.831   0.215  0.00  0.00    -0.385 N 
ATOM     29  C   UNL d   1      27.426 -17.754   0.325  0.00  0.00     0.155 A 
ATOM     30  H   UNL d   1      26.514 -19.828   0.386  0.00  0.00     0.160 HD
ENDBRANCH  20  21
ENDBRANCH  19  20
ENDBRANCH   6  19
BRANCH   4  31
ATOM     31  C   UNL d   1      27.014 -11.247   2.846  0.00  0.00     0.035 C 
ATOM     32  C   UNL d   1      26.585 -10.487   1.741  0.00  0.00     0.017 C 
ATOM     33  C   UNL d   1      26.826  -9.104   1.719  0.00  0.00     0.002 C 
ATOM     34  C   UNL d   1      27.354  -8.476   2.841  0.00  0.00     0.007 C 
ATOM     35  C   UNL d   1      27.653  -9.229   3.976  0.00  0.00    -0.061 C 
ATOM     36  C   UNL d   1      28.209  -8.660   5.228  0.00  0.00     0.048 C 
ATOM     37  C   UNL d   1      27.501 -10.605   3.961  0.00  0.00     0.024 C 
ENDBRANCH   4  31
TORSDOF 7
ENDMDL
MODEL 5
REMARK VINA RESULT:    -9.050      4.045      8.163
REMARK INTER + INTRA:         -13.534
REMARK INTER:                 -11.138
REMARK INTRA:                  -2.396
REMARK CONF_INDEPENDENT:        2.088
REMARK UNBOUND:                -2.396
REMARK  7 active torsions:
REMARK  status: ('A' for Active; 'I' for Inactive)
REMARK    1  A    between atoms: O_2  and  C_3 
REMARK    2  A    between atoms: C_6  and  N_7 
REMARK       I    between atoms: N_7  and  C_8 
REMARK       I    between atoms: C_8  and  N_19 
REMARK       I    between atoms: N_9  and  C_10 
REMARK    3  A    between atoms: C_10  and  C_12 
REMARK    4  A    between atoms: N_19  and  C_20 
REMARK    5  A    between atoms: C_20  and  C_21 
REMARK    6  A    between atoms: C_21  and  C_22 
REMARK    7  A    between atoms: C_32  and  O_33 
ROOT
ATOM      1  N   UNL d   1      29.790 -14.723   3.102  0.00  0.00    -0.190 N 
ATOM      2  C   UNL d   1      29.587 -14.702   1.704  0.00  0.00     0.704 C 
ATOM      3  N   UNL d   1      28.857 -13.938   0.940  0.00  0.00    -0.023 NA
ATOM      4  C   UNL d   1      27.703 -13.422   1.464  0.00  0.00     0.293 C 
ATOM      5  O   UNL d   1      26.930 -14.072   2.124  0.00  0.00    -0.265 OA
ATOM      6  N   UNL d   1      30.277 -15.684   0.971  0.00  0.00    -0.224 N 
ATOM      7  H   UNL d   1      30.184 -15.569   3.488  0.00  0.00     0.184 HD
ATOM      8  H   UNL d   1      30.568 -16.523   1.459  0.00  0.00     0.177 HD
ENDROOT
BRANCH   1   9
ATOM      9  C   UNL d   1      29.253 -13.856   4.115  0.00  0.00     0.052 C 
ATOM     10  C   UNL d   1      29.128 -12.478   4.025  0.00  0.00     0.033 C 
ATOM     11  C   UNL d   1      28.809 -11.690   5.184  0.00  0.00     0.042 C 
ATOM     12  C   UNL d   1      28.721 -12.228   6.487  0.00  0.00     0.101 C 
ATOM     13  C   UNL d   1      28.798 -13.596   6.557  0.00  0.00     0.103 C 
ATOM     14  C   UNL d   1      28.805 -14.327   5.335  0.00  0.00     0.069 C 
BRANCH  12  15
ATOM     15  O   UNL d   1      28.291 -11.363   7.459  0.00  0.00    -0.353 OA
ATOM     16  C   UNL d   1      29.180 -10.435   8.074  0.00  0.00     0.210 C 
ENDBRANCH  12  15
BRANCH  13  17
ATOM     17  O   UNL d   1      28.905 -14.451   7.601  0.00  0.00    -0.353 OA
ATOM     18  C   UNL d   1      29.147 -14.080   8.927  0.00  0.00     0.210 C 
ENDBRANCH  13  17
ENDBRANCH   1   9
BRANCH   6  19
ATOM     19  C   UNL d   1      29.918 -15.865  -0.469  0.00  0.00     0.142 C 
BRANCH  19  20
ATOM     20  C   UNL d   1      28.702 -16.752  -0.711  0.00  0.00     0.057 C 
BRANCH  20  21
ATOM     21  C   UNL d   1      27.383 -16.108  -1.088  0.00  0.00    -0.048 A 
ATOM     22  C   UNL d   1      26.233 -16.663  -0.692  0.00  0.00    -0.006 A 
ATOM     23  C   UNL d   1      25.982 -17.816   0.098  0.00  0.00     0.014 A 
ATOM     24  C   UNL d   1      25.145 -15.871  -1.279  0.00  0.00     0.038 A 
ATOM     25  C   UNL d   1      24.717 -18.210   0.269  0.00  0.00     0.001 A 
ATOM     26  C   UNL d   1      23.607 -17.442  -0.275  0.00  0.00     0.002 A 
ATOM     27  C   UNL d   1      23.760 -16.326  -1.019  0.00  0.00     0.030 A 
ATOM     28  N   UNL d   1      25.597 -14.881  -1.951  0.00  0.00    -0.385 N 
ATOM     29  C   UNL d   1      27.097 -14.882  -1.921  0.00  0.00     0.155 A 
ATOM     30  H   UNL d   1      24.991 -14.209  -2.423  0.00  0.00     0.160 HD
ENDBRANCH  20  21
ENDBRANCH  19  20
ENDBRANCH   6  19
BRANCH   4  31
ATOM     31  C   UNL d   1      27.219 -12.135   0.882  0.00  0.00     0.035 C 
ATOM     32  C   UNL d   1      27.455 -11.576  -0.388  0.00  0.00     0.017 C 
ATOM     33  C   UNL d   1      27.413 -10.182  -0.548  0.00  0.00     0.002 C 
ATOM     34  C   UNL d   1      27.002  -9.377   0.509  0.00  0.00     0.007 C 
ATOM     35  C   UNL d   1      26.648  -9.963   1.723  0.00  0.00    -0.061 C 
ATOM     36  C   UNL d   1      26.187  -9.200   2.910  0.00  0.00     0.048 C 
ATOM     37  C   UNL d   1      26.779 -11.329   1.906  0.00  0.00     0.024 C 
ENDBRANCH   4  31
TORSDOF 7
ENDMDL
MODEL 6
REMARK VINA RESULT:    -8.291      3.084      7.653
REMARK INTER + INTRA:         -13.183
REMARK INTER:                 -10.379
REMARK INTRA:                  -2.804
REMARK CONF_INDEPENDENT:        2.088
REMARK UNBOUND:                -2.804
REMARK  7 active torsions:
REMARK  status: ('A' for Active; 'I' for Inactive)
REMARK    1  A    between atoms: O_2  and  C_3 
REMARK    2  A    between atoms: C_6  and  N_7 
REMARK       I    between atoms: N_7  and  C_8 
REMARK       I    between atoms: C_8  and  N_19 
REMARK       I    between atoms: N_9  and  C_10 
REMARK    3  A    between atoms: C_10  and  C_12 
REMARK    4  A    between atoms: N_19  and  C_20 
REMARK    5  A    between atoms: C_20  and  C_21 
REMARK    6  A    between atoms: C_21  and  C_22 
REMARK    7  A    between atoms: C_32  and  O_33 
ROOT
ATOM      1  N   UNL d   1      28.036 -17.437  -0.401  0.00  0.00    -0.190 N 
ATOM      2  C   UNL d   1      29.041 -16.621   0.165  0.00  0.00     0.704 C 
ATOM      3  N   UNL d   1      28.980 -15.565   0.927  0.00  0.00    -0.023 NA
ATOM      4  C   UNL d   1      27.899 -14.737   0.790  0.00  0.00     0.293 C 
ATOM      5  O   UNL d   1      27.457 -14.403  -0.281  0.00  0.00    -0.265 OA
ATOM      6  N   UNL d   1      30.365 -16.981  -0.141  0.00  0.00    -0.224 N 
ATOM      7  H   UNL d   1      28.315 -18.031  -1.169  0.00  0.00     0.184 HD
ATOM      8  H   UNL d   1      30.527 -17.529  -0.978  0.00  0.00     0.177 HD
ENDROOT
BRANCH   1   9
ATOM      9  C   UNL d   1      26.608 -17.350  -0.269  0.00  0.00     0.052 C 
ATOM     10  C   UNL d   1      25.805 -18.200   0.478  0.00  0.00     0.033 C 
ATOM     11  C   UNL d   1      24.375 -18.170   0.341  0.00  0.00     0.042 C 
ATOM     12  C   UNL d   1      23.702 -17.384  -0.620  0.00  0.00     0.101 C 
ATOM     13  C   UNL d   1      24.501 -16.513  -1.319  0.00  0.00     0.103 C 
ATOM     14  C   UNL d   1      25.859 -16.382  -0.912  0.00  0.00     0.069 C 
BRANCH  12  15
ATOM     15  O   UNL d   1      22.335 -17.382  -0.536  0.00  0.00    -0.353 OA
ATOM     16  C   UNL d   1      21.567 -18.533  -0.876  0.00  0.00     0.210 C 
ENDBRANCH  12  15
BRANCH  13  17
ATOM     17  O   UNL d   1      24.268 -15.727  -2.395  0.00  0.00    -0.353 OA
ATOM     18  C   UNL d   1      25.087 -14.678  -2.822  0.00  0.00     0.210 C 
ENDBRANCH  13  17
ENDBRANCH   1   9
BRANCH   6  19
ATOM     19  C   UNL d   1      31.454 -16.024   0.225  0.00  0.00     0.142 C 
BRANCH  19  20
ATOM     20  C   UNL d   1      31.741 -14.959  -0.827  0.00  0.00     0.057 C 
BRANCH  20  21
ATOM     21  C   UNL d   1      30.581 -14.218  -1.461  0.00  0.00    -0.048 A 
ATOM     22  C   UNL d   1      29.899 -14.779  -2.464  0.00  0.00    -0.006 A 
ATOM     23  C   UNL d   1      30.043 -16.046  -3.090  0.00  0.00     0.014 A 
ATOM     24  C   UNL d   1      28.909 -13.795  -2.920  0.00  0.00     0.038 A 
ATOM     25  C   UNL d   1      29.280 -16.325  -4.150  0.00  0.00     0.001 A 
ATOM     26  C   UNL d   1      28.270 -15.389  -4.620  0.00  0.00     0.002 A 
ATOM     27  C   UNL d   1      28.058 -14.174  -4.070  0.00  0.00     0.030 A 
ATOM     28  N   UNL d   1      28.955 -12.727  -2.218  0.00  0.00    -0.385 N 
ATOM     29  C   UNL d   1      30.027 -12.842  -1.175  0.00  0.00     0.155 A 
ATOM     30  H   UNL d   1      28.334 -11.933  -2.376  0.00  0.00     0.160 HD
ENDBRANCH  20  21
ENDBRANCH  19  20
ENDBRANCH   6  19
BRANCH   4  31
ATOM     31  C   UNL d   1      27.509 -13.939   1.990  0.00  0.00     0.035 C 
ATOM     32  C   UNL d   1      27.188 -12.572   2.097  0.00  0.00     0.017 C 
ATOM     33  C   UNL d   1      27.405 -11.904   3.313  0.00  0.00     0.002 C 
ATOM     34  C   UNL d   1      27.798 -12.624   4.436  0.00  0.00     0.007 C 
ATOM     35  C   UNL d   1      27.987 -14.002   4.340  0.00  0.00    -0.061 C 
ATOM     36  C   UNL d   1      28.396 -14.866   5.475  0.00  0.00     0.048 C 
ATOM     37  C   UNL d   1      27.863 -14.642   3.118  0.00  0.00     0.024 C 
ENDBRANCH   4  31
TORSDOF 7
ENDMDL
MODEL 7
REMARK VINA RESULT:    -8.260      5.053      8.550
REMARK INTER + INTRA:         -13.229
REMARK INTER:                 -10.348
REMARK INTRA:                  -2.881
REMARK CONF_INDEPENDENT:        2.088
REMARK UNBOUND:                -2.881
REMARK  7 active torsions:
REMARK  status: ('A' for Active; 'I' for Inactive)
REMARK    1  A    between atoms: O_2  and  C_3 
REMARK    2  A    between atoms: C_6  and  N_7 
REMARK       I    between atoms: N_7  and  C_8 
REMARK       I    between atoms: C_8  and  N_19 
REMARK       I    between atoms: N_9  and  C_10 
REMARK    3  A    between atoms: C_10  and  C_12 
REMARK    4  A    between atoms: N_19  and  C_20 
REMARK    5  A    between atoms: C_20  and  C_21 
REMARK    6  A    between atoms: C_21  and  C_22 
REMARK    7  A    between atoms: C_32  and  O_33 
ROOT
ATOM      1  N   UNL d   1      29.148 -15.219   1.260  0.00  0.00    -0.190 N 
ATOM      2  C   UNL d   1      29.126 -16.075   0.136  0.00  0.00     0.704 C 
ATOM      3  N   UNL d   1      28.330 -16.142  -0.893  0.00  0.00    -0.023 NA
ATOM      4  C   UNL d   1      27.025 -15.765  -0.722  0.00  0.00     0.293 C 
ATOM      5  O   UNL d   1      26.365 -16.092   0.233  0.00  0.00    -0.265 OA
ATOM      6  N   UNL d   1      30.130 -17.059   0.098  0.00  0.00    -0.224 N 
ATOM      7  H   UNL d   1      29.690 -15.528   2.053  0.00  0.00     0.184 HD
ATOM      8  H   UNL d   1      30.560 -17.332   0.974  0.00  0.00     0.177 HD
ENDROOT
BRANCH   1   9
ATOM      9  C   UNL d   1      28.284 -14.117   1.584  0.00  0.00     0.052 C 
ATOM     10  C   UNL d   1      27.906 -13.097   0.723  0.00  0.00     0.033 C 
ATOM     11  C   UNL d   1      27.243 -11.922   1.219  0.00  0.00     0.042 C 
ATOM     12  C   UNL d   1      27.039 -11.668   2.593  0.00  0.00     0.101 C 
ATOM     13  C   UNL d   1      27.372 -12.703   3.431  0.00  0.00     0.103 C 
ATOM     14  C   UNL d   1      27.734 -13.948   2.841  0.00  0.00     0.069 C 
BRANCH  12  15
ATOM     15  O   UNL d   1      26.287 -10.562   2.888  0.00  0.00    -0.353 OA
ATOM     16  C   UNL d   1      26.740  -9.579   3.814  0.00  0.00     0.210 C 
ENDBRANCH  12  15
BRANCH  13  17
ATOM     17  O   UNL d   1      27.465 -12.791   4.778  0.00  0.00    -0.353 OA
ATOM     18  C   UNL d   1      28.126 -13.805   5.477  0.00  0.00     0.210 C 
ENDBRANCH  13  17
ENDBRANCH   1   9
BRANCH   6  19
ATOM     19  C   UNL d   1      30.016 -18.138  -0.931  0.00  0.00     0.142 C 
BRANCH  19  20
ATOM     20  C   UNL d   1      31.090 -18.097  -2.012  0.00  0.00     0.057 C 
BRANCH  20  21
ATOM     21  C   UNL d   1      30.679 -17.859  -3.451  0.00  0.00    -0.048 A 
ATOM     22  C   UNL d   1      30.244 -16.653  -3.830  0.00  0.00    -0.006 A 
ATOM     23  C   UNL d   1      30.104 -15.445  -3.097  0.00  0.00     0.014 A 
ATOM     24  C   UNL d   1      29.842 -16.760  -5.238  0.00  0.00     0.038 A 
ATOM     25  C   UNL d   1      29.547 -14.392  -3.703  0.00  0.00     0.001 A 
ATOM     26  C   UNL d   1      29.157 -14.446  -5.104  0.00  0.00     0.002 A 
ATOM     27  C   UNL d   1      29.275 -15.550  -5.873  0.00  0.00     0.030 A 
ATOM     28  N   UNL d   1      30.054 -17.935  -5.697  0.00  0.00    -0.385 N 
ATOM     29  C   UNL d   1      30.629 -18.810  -4.623  0.00  0.00     0.155 A 
ATOM     30  H   UNL d   1      29.850 -18.198  -6.661  0.00  0.00     0.160 HD
ENDBRANCH  20  21
ENDBRANCH  19  20
ENDBRANCH   6  19
BRANCH   4  31
ATOM     31  C   UNL d   1      26.309 -15.259  -1.930  0.00  0.00     0.035 C 
ATOM     32  C   UNL d   1      25.889 -15.949  -3.083  0.00  0.00     0.017 C 
ATOM     33  C   UNL d   1      25.765 -15.254  -4.297  0.00  0.00     0.002 C 
ATOM     34  C   UNL d   1      25.917 -13.872  -4.320  0.00  0.00     0.007 C 
ATOM     35  C   UNL d   1      26.206 -13.190  -3.139  0.00  0.00    -0.061 C 
ATOM     36  C   UNL d   1      26.379 -11.720  -3.051  0.00  0.00     0.048 C 
ATOM     37  C   UNL d   1      26.420 -13.888  -1.963  0.00  0.00     0.024 C 
ENDBRANCH   4  31
TORSDOF 7
ENDMDL
MODEL 8
REMARK VINA RESULT:    -8.114      3.241      8.503
REMARK INTER + INTRA:         -13.551
REMARK INTER:                 -10.202
REMARK INTRA:                  -3.349
REMARK CONF_INDEPENDENT:        2.088
REMARK UNBOUND:                -3.349
REMARK  7 active torsions:
REMARK  status: ('A' for Active; 'I' for Inactive)
REMARK    1  A    between atoms: O_2  and  C_3 
REMARK    2  A    between atoms: C_6  and  N_7 
REMARK       I    between atoms: N_7  and  C_8 
REMARK       I    between atoms: C_8  and  N_19 
REMARK       I    between atoms: N_9  and  C_10 
REMARK    3  A    between atoms: C_10  and  C_12 
REMARK    4  A    between atoms: N_19  and  C_20 
REMARK    5  A    between atoms: C_20  and  C_21 
REMARK    6  A    between atoms: C_21  and  C_22 
REMARK    7  A    between atoms: C_32  and  O_33 
ROOT
ATOM      1  N   UNL d   1      27.928 -16.462   0.607  0.00  0.00    -0.190 N 
ATOM      2  C   UNL d   1      28.909 -15.731  -0.100  0.00  0.00     0.704 C 
ATOM      3  N   UNL d   1      28.925 -15.232  -1.304  0.00  0.00    -0.023 NA
ATOM      4  C   UNL d   1      28.208 -15.877  -2.276  0.00  0.00     0.293 C 
ATOM      5  O   UNL d   1      28.210 -17.075  -2.411  0.00  0.00    -0.265 OA
ATOM      6  N   UNL d   1      30.109 -15.491   0.591  0.00  0.00    -0.224 N 
ATOM      7  H   UNL d   1      28.243 -16.971   1.420  0.00  0.00     0.184 HD
ATOM      8  H   UNL d   1      30.349 -16.112   1.355  0.00  0.00     0.177 HD
ENDROOT
BRANCH   1   9
ATOM      9  C   UNL d   1      26.608 -16.853   0.195  0.00  0.00     0.052 C 
ATOM     10  C   UNL d   1      25.931 -17.992   0.605  0.00  0.00     0.033 C 
ATOM     11  C   UNL d   1      24.724 -18.409  -0.056  0.00  0.00     0.042 C 
ATOM     12  C   UNL d   1      24.216 -17.780  -1.214  0.00  0.00     0.101 C 
ATOM     13  C   UNL d   1      24.865 -16.628  -1.580  0.00  0.00     0.103 C 
ATOM     14  C   UNL d   1      25.858 -16.112  -0.699  0.00  0.00     0.069 C 
BRANCH  12  15
ATOM     15  O   UNL d   1      22.995 -18.226  -1.645  0.00  0.00    -0.353 OA
ATOM     16  C   UNL d   1      21.962 -18.572  -0.727  0.00  0.00     0.210 C 
ENDBRANCH  12  15
BRANCH  13  17
ATOM     17  O   UNL d   1      24.780 -15.845  -2.681  0.00  0.00    -0.353 OA
ATOM     18  C   UNL d   1      24.678 -14.450  -2.674  0.00  0.00     0.210 C 
ENDBRANCH  13  17
ENDBRANCH   1   9
BRANCH   6  19
ATOM     19  C   UNL d   1      31.265 -14.939  -0.181  0.00  0.00     0.142 C 
BRANCH  19  20
ATOM     20  C   UNL d   1      31.751 -15.832  -1.317  0.00  0.00     0.057 C 
BRANCH  20  21
ATOM     21  C   UNL d   1      31.463 -15.425  -2.748  0.00  0.00    -0.048 A 
ATOM     22  C   UNL d   1      31.078 -16.346  -3.638  0.00  0.00    -0.006 A 
ATOM     23  C   UNL d   1      30.841 -17.738  -3.489  0.00  0.00     0.014 A 
ATOM     24  C   UNL d   1      30.965 -15.672  -4.937  0.00  0.00     0.038 A 
ATOM     25  C   UNL d   1      30.551 -18.456  -4.578  0.00  0.00     0.001 A 
ATOM     26  C   UNL d   1      30.405 -17.825  -5.881  0.00  0.00     0.002 A 
ATOM     27  C   UNL d   1      30.595 -16.506  -6.102  0.00  0.00     0.030 A 
ATOM     28  N   UNL d   1      31.223 -14.423  -4.841  0.00  0.00    -0.385 N 
ATOM     29  C   UNL d   1      31.572 -14.078  -3.422  0.00  0.00     0.155 A 
ATOM     30  H   UNL d   1      31.184 -13.786  -5.636  0.00  0.00     0.160 HD
ENDBRANCH  20  21
ENDBRANCH  19  20
ENDBRANCH   6  19
BRANCH   4  31
ATOM     31  C   UNL d   1      27.722 -15.044  -3.416  0.00  0.00     0.035 C 
ATOM     32  C   UNL d   1      27.393 -15.422  -4.731  0.00  0.00     0.017 C 
ATOM     33  C   UNL d   1      27.512 -14.484  -5.770  0.00  0.00     0.002 C 
ATOM     34  C   UNL d   1      27.812 -13.160  -5.474  0.00  0.00     0.007 C 
ATOM     35  C   UNL d   1      28.009 -12.777  -4.147  0.00  0.00    -0.061 C 
ATOM     36  C   UNL d   1      28.325 -11.392  -3.720  0.00  0.00     0.048 C 
ATOM     37  C   UNL d   1      27.984 -13.723  -3.136  0.00  0.00     0.024 C 
ENDBRANCH   4  31
TORSDOF 7
ENDMDL
