MODEL 1
REMARK VINA RESULT:    -8.144      0.000      0.000
REMARK INTER + INTRA:          -9.530
REMARK INTER:                  -9.039
REMARK INTRA:                  -0.491
REMARK CONF_INDEPENDENT:        0.895
REMARK UNBOUND:                -0.491
REMARK  3 active torsions:
REMARK  status: ('A' for Active; 'I' for Inactive)
REMARK    1  A    between atoms: N_2  and  C_4 
REMARK    2  A    between atoms: C_13  and  C_14 
REMARK    3  A    between atoms: C_16  and  C_17 
ROOT
ATOM      1  C   UNL d   1      27.330 -14.074  -4.027  0.00  0.00     0.146 A 
ATOM      2  C   UNL d   1      27.842 -12.914  -4.630  0.00  0.00     0.041 A 
ATOM      3  C   UNL d   1      28.540 -11.991  -3.856  0.00  0.00     0.020 A 
ATOM      4  C   UNL d   1      28.698 -12.242  -2.503  0.00  0.00     0.090 A 
ATOM      5  N   UNL d   1      28.162 -13.345  -1.969  0.00  0.00    -0.350 N 
ATOM      6  C   UNL d   1      27.477 -14.285  -2.654  0.00  0.00     0.136 A 
ATOM      7  N   UNL d   1      26.976 -15.242  -1.819  0.00  0.00    -0.365 N 
ATOM      8  C   UNL d   1      25.710 -14.829  -1.186  0.00  0.00     0.125 C 
ATOM      9  C   UNL d   1      25.674 -15.450   0.204  0.00  0.00     0.030 C 
ATOM     10  C   UNL d   1      25.792 -16.988   0.144  0.00  0.00     0.042 C 
ATOM     11  C   UNL d   1      27.040 -17.393  -0.680  0.00  0.00     0.030 C 
ATOM     12  C   UNL d   1      27.096 -16.696  -2.054  0.00  0.00     0.125 C 
ATOM     13  H   UNL d   1      28.259 -13.530  -0.970  0.00  0.00     0.166 HD
ENDROOT
BRANCH  10  14
ATOM     14  C   UNL d   1      24.525 -17.609  -0.398  0.00  0.00     0.061 A 
ATOM     15  C   UNL d   1      23.405 -18.039   0.336  0.00  0.00     0.063 A 
ATOM     16  C   UNL d   1      22.524 -18.562  -0.561  0.00  0.00     0.086 A 
ATOM     17  N   UNL d   1      23.124 -18.438  -1.776  0.00  0.00    -0.275 N 
ATOM     18  N   UNL d   1      24.348 -17.844  -1.706  0.00  0.00    -0.179 NA
ATOM     19  H   UNL d   1      22.751 -18.692  -2.685  0.00  0.00     0.189 HD
BRANCH  16  20
ATOM     20  C   UNL d   1      21.238 -19.081  -0.261  0.00  0.00     0.103 A 
ATOM     21  C   UNL d   1      20.730 -19.321   1.004  0.00  0.00     0.041 A 
ATOM     22  C   UNL d   1      19.477 -19.945   0.836  0.00  0.00     0.027 A 
ATOM     23  C   UNL d   1      19.311 -20.091  -0.521  0.00  0.00     0.142 A 
ATOM     24  O   UNL d   1      20.366 -19.562  -1.194  0.00  0.00    -0.320 OA
ENDBRANCH  16  20
ENDBRANCH  10  14
BRANCH   1  25
ATOM     25  N   UNL d   1      26.649 -15.028  -4.867  0.00  0.00    -0.112 N 
ATOM     26  O   UNL d   1      25.465 -15.240  -4.610  0.00  0.00    -0.532 OA
ATOM     27  O   UNL d   1      27.306 -15.565  -5.771  0.00  0.00    -0.532 OA
ENDBRANCH   1  25
TORSDOF 3
ENDMDL
MODEL 2
REMARK VINA RESULT:    -7.427      1.041      1.112
REMARK INTER + INTRA:          -8.816
REMARK INTER:                  -8.322
REMARK INTRA:                  -0.494
REMARK CONF_INDEPENDENT:        0.895
REMARK UNBOUND:                -0.494
REMARK  3 active torsions:
REMARK  status: ('A' for Active; 'I' for Inactive)
REMARK    1  A    between atoms: N_2  and  C_4 
REMARK    2  A    between atoms: C_13  and  C_14 
REMARK    3  A    between atoms: C_16  and  C_17 
ROOT
ATOM      1  C   UNL d   1      28.524 -14.197  -4.437  0.00  0.00     0.146 A 
ATOM      2  C   UNL d   1      29.135 -13.176  -5.183  0.00  0.00     0.041 A 
ATOM      3  C   UNL d   1      29.708 -12.095  -4.520  0.00  0.00     0.020 A 
ATOM      4  C   UNL d   1      29.647 -12.054  -3.136  0.00  0.00     0.090 A 
ATOM      5  N   UNL d   1      29.025 -13.035  -2.473  0.00  0.00    -0.350 N 
ATOM      6  C   UNL d   1      28.450 -14.114  -3.045  0.00  0.00     0.136 A 
ATOM      7  N   UNL d   1      27.816 -14.889  -2.117  0.00  0.00    -0.365 N 
ATOM      8  C   UNL d   1      26.469 -14.385  -1.790  0.00  0.00     0.125 C 
ATOM      9  C   UNL d   1      26.207 -14.704  -0.324  0.00  0.00     0.030 C 
ATOM     10  C   UNL d   1      26.321 -16.217  -0.041  0.00  0.00     0.042 C 
ATOM     11  C   UNL d   1      27.681 -16.752  -0.556  0.00  0.00     0.030 C 
ATOM     12  C   UNL d   1      27.960 -16.356  -2.019  0.00  0.00     0.125 C 
ATOM     13  H   UNL d   1      28.961 -13.005  -1.456  0.00  0.00     0.166 HD
ENDROOT
BRANCH  10  14
ATOM     14  C   UNL d   1      25.151 -16.969  -0.632  0.00  0.00     0.061 A 
ATOM     15  C   UNL d   1      23.992 -17.402   0.036  0.00  0.00     0.063 A 
ATOM     16  C   UNL d   1      23.234 -18.066  -0.882  0.00  0.00     0.086 A 
ATOM     17  N   UNL d   1      23.942 -18.016  -2.043  0.00  0.00    -0.275 N 
ATOM     18  N   UNL d   1      25.117 -17.338  -1.921  0.00  0.00    -0.179 NA
ATOM     19  H   UNL d   1      23.675 -18.379  -2.952  0.00  0.00     0.189 HD
BRANCH  16  20
ATOM     20  C   UNL d   1      21.958 -18.638  -0.651  0.00  0.00     0.103 A 
ATOM     21  C   UNL d   1      21.415 -18.953   0.584  0.00  0.00     0.041 A 
ATOM     22  C   UNL d   1      20.191 -19.609   0.344  0.00  0.00     0.027 A 
ATOM     23  C   UNL d   1      20.074 -19.696  -1.023  0.00  0.00     0.142 A 
ATOM     24  O   UNL d   1      21.134 -19.103  -1.634  0.00  0.00    -0.320 OA
ENDBRANCH  16  20
ENDBRANCH  10  14
BRANCH   1  25
ATOM     25  N   UNL d   1      27.977 -15.323  -5.154  0.00  0.00    -0.112 N 
ATOM     26  O   UNL d   1      26.801 -15.233  -5.503  0.00  0.00    -0.532 OA
ATOM     27  O   UNL d   1      28.725 -16.291  -5.355  0.00  0.00    -0.532 OA
ENDBRANCH   1  25
TORSDOF 3
ENDMDL
MODEL 3
REMARK VINA RESULT:    -7.388      3.166      3.998
REMARK INTER + INTRA:          -8.747
REMARK INTER:                  -8.283
REMARK INTRA:                  -0.464
REMARK CONF_INDEPENDENT:        0.895
REMARK UNBOUND:                -0.464
REMARK  3 active torsions:
REMARK  status: ('A' for Active; 'I' for Inactive)
REMARK    1  A    between atoms: N_2  and  C_4 
REMARK    2  A    between atoms: C_13  and  C_14 
REMARK    3  A    between atoms: C_16  and  C_17 
ROOT
ATOM      1  C   UNL d   1      28.043 -13.334   1.681  0.00  0.00     0.146 A 
ATOM      2  C   UNL d   1      28.909 -12.722   2.602  0.00  0.00     0.041 A 
ATOM      3  C   UNL d   1      30.151 -13.295   2.857  0.00  0.00     0.020 A 
ATOM      4  C   UNL d   1      30.493 -14.464   2.198  0.00  0.00     0.090 A 
ATOM      5  N   UNL d   1      29.621 -15.026   1.354  0.00  0.00    -0.350 N 
ATOM      6  C   UNL d   1      28.402 -14.530   1.055  0.00  0.00     0.136 A 
ATOM      7  N   UNL d   1      27.709 -15.374   0.236  0.00  0.00    -0.365 N 
ATOM      8  C   UNL d   1      27.047 -16.461   0.980  0.00  0.00     0.125 C 
ATOM      9  C   UNL d   1      27.047 -17.692   0.084  0.00  0.00     0.030 C 
ATOM     10  C   UNL d   1      26.335 -17.420  -1.258  0.00  0.00     0.042 C 
ATOM     11  C   UNL d   1      26.939 -16.164  -1.935  0.00  0.00     0.030 C 
ATOM     12  C   UNL d   1      26.998 -14.950  -0.988  0.00  0.00     0.125 C 
ATOM     13  H   UNL d   1      29.857 -15.896   0.877  0.00  0.00     0.166 HD
ENDROOT
BRANCH  10  14
ATOM     14  C   UNL d   1      24.841 -17.300  -1.065  0.00  0.00     0.061 A 
ATOM     15  C   UNL d   1      23.914 -18.349  -0.921  0.00  0.00     0.063 A 
ATOM     16  C   UNL d   1      22.684 -17.773  -0.810  0.00  0.00     0.086 A 
ATOM     17  N   UNL d   1      22.900 -16.433  -0.891  0.00  0.00    -0.275 N 
ATOM     18  N   UNL d   1      24.217 -16.114  -1.036  0.00  0.00    -0.179 NA
ATOM     19  H   UNL d   1      22.218 -15.685  -0.816  0.00  0.00     0.189 HD
BRANCH  16  20
ATOM     20  C   UNL d   1      21.459 -18.458  -0.608  0.00  0.00     0.103 A 
ATOM     21  C   UNL d   1      21.285 -19.624   0.118  0.00  0.00     0.041 A 
ATOM     22  C   UNL d   1      19.942 -20.018  -0.044  0.00  0.00     0.027 A 
ATOM     23  C   UNL d   1      19.382 -19.095  -0.894  0.00  0.00     0.142 A 
ATOM     24  O   UNL d   1      20.289 -18.142  -1.234  0.00  0.00    -0.320 OA
ENDBRANCH  16  20
ENDBRANCH  10  14
BRANCH   1  25
ATOM     25  N   UNL d   1      26.782 -12.690   1.409  0.00  0.00    -0.112 N 
ATOM     26  O   UNL d   1      26.834 -11.569   0.906  0.00  0.00    -0.532 OA
ATOM     27  O   UNL d   1      25.749 -13.307   1.711  0.00  0.00    -0.532 OA
ENDBRANCH   1  25
TORSDOF 3
ENDMDL
MODEL 4
REMARK VINA RESULT:    -7.320      1.473      1.951
REMARK INTER + INTRA:          -8.778
REMARK INTER:                  -8.215
REMARK INTRA:                  -0.563
REMARK CONF_INDEPENDENT:        0.895
REMARK UNBOUND:                -0.563
REMARK  3 active torsions:
REMARK  status: ('A' for Active; 'I' for Inactive)
REMARK    1  A    between atoms: N_2  and  C_4 
REMARK    2  A    between atoms: C_13  and  C_14 
REMARK    3  A    between atoms: C_16  and  C_17 
ROOT
ATOM      1  C   UNL d   1      26.799 -13.433  -4.750  0.00  0.00     0.146 A 
ATOM      2  C   UNL d   1      26.685 -12.315  -5.593  0.00  0.00     0.041 A 
ATOM      3  C   UNL d   1      27.108 -11.070  -5.137  0.00  0.00     0.020 A 
ATOM      4  C   UNL d   1      27.622 -10.969  -3.855  0.00  0.00     0.090 A 
ATOM      5  N   UNL d   1      27.678 -12.057  -3.079  0.00  0.00    -0.350 N 
ATOM      6  C   UNL d   1      27.290 -13.296  -3.450  0.00  0.00     0.136 A 
ATOM      7  N   UNL d   1      27.382 -14.177  -2.412  0.00  0.00    -0.365 N 
ATOM      8  C   UNL d   1      26.212 -14.115  -1.516  0.00  0.00     0.125 C 
ATOM      9  C   UNL d   1      26.702 -14.414  -0.106  0.00  0.00     0.030 C 
ATOM     10  C   UNL d   1      27.395 -15.790  -0.023  0.00  0.00     0.042 C 
ATOM     11  C   UNL d   1      28.508 -15.889  -1.097  0.00  0.00     0.030 C 
ATOM     12  C   UNL d   1      28.010 -15.512  -2.506  0.00  0.00     0.125 C 
ATOM     13  H   UNL d   1      28.039 -11.989  -2.127  0.00  0.00     0.166 HD
ENDROOT
BRANCH  10  14
ATOM     14  C   UNL d   1      26.390 -16.913  -0.140  0.00  0.00     0.061 A 
ATOM     15  C   UNL d   1      25.004 -16.795  -0.348  0.00  0.00     0.063 A 
ATOM     16  C   UNL d   1      24.498 -18.061  -0.349  0.00  0.00     0.086 A 
ATOM     17  N   UNL d   1      25.566 -18.879  -0.145  0.00  0.00    -0.275 N 
ATOM     18  N   UNL d   1      26.741 -18.201  -0.026  0.00  0.00    -0.179 NA
ATOM     19  H   UNL d   1      25.577 -19.894  -0.116  0.00  0.00     0.189 HD
BRANCH  16  20
ATOM     20  C   UNL d   1      23.143 -18.416  -0.566  0.00  0.00     0.103 A 
ATOM     21  C   UNL d   1      22.114 -17.550  -0.897  0.00  0.00     0.041 A 
ATOM     22  C   UNL d   1      20.922 -18.302  -0.895  0.00  0.00     0.027 A 
ATOM     23  C   UNL d   1      21.283 -19.574  -0.521  0.00  0.00     0.142 A 
ATOM     24  O   UNL d   1      22.626 -19.656  -0.328  0.00  0.00    -0.320 OA
ENDBRANCH  16  20
ENDBRANCH  10  14
BRANCH   1  25
ATOM     25  N   UNL d   1      26.389 -14.714  -5.269  0.00  0.00    -0.112 N 
ATOM     26  O   UNL d   1      25.237 -15.065  -5.021  0.00  0.00    -0.532 OA
ATOM     27  O   UNL d   1      27.226 -15.364  -5.913  0.00  0.00    -0.532 OA
ENDBRANCH   1  25
TORSDOF 3
ENDMDL
MODEL 5
REMARK VINA RESULT:    -6.643      2.517      3.317
REMARK INTER + INTRA:          -7.760
REMARK INTER:                  -7.538
REMARK INTRA:                  -0.222
REMARK CONF_INDEPENDENT:        0.895
REMARK UNBOUND:                -0.222
REMARK  3 active torsions:
REMARK  status: ('A' for Active; 'I' for Inactive)
REMARK    1  A    between atoms: N_2  and  C_4 
REMARK    2  A    between atoms: C_13  and  C_14 
REMARK    3  A    between atoms: C_16  and  C_17 
ROOT
ATOM      1  C   UNL d   1      29.811 -16.372  -5.030  0.00  0.00     0.146 A 
ATOM      2  C   UNL d   1      30.673 -16.436  -6.137  0.00  0.00     0.041 A 
ATOM      3  C   UNL d   1      30.714 -15.372  -7.033  0.00  0.00     0.020 A 
ATOM      4  C   UNL d   1      29.890 -14.281  -6.809  0.00  0.00     0.090 A 
ATOM      5  N   UNL d   1      29.063 -14.282  -5.759  0.00  0.00    -0.350 N 
ATOM      6  C   UNL d   1      28.968 -15.274  -4.847  0.00  0.00     0.136 A 
ATOM      7  N   UNL d   1      27.971 -15.028  -3.948  0.00  0.00    -0.365 N 
ATOM      8  C   UNL d   1      26.644 -15.417  -4.460  0.00  0.00     0.125 C 
ATOM      9  C   UNL d   1      25.628 -14.441  -3.881  0.00  0.00     0.030 C 
ATOM     10  C   UNL d   1      25.653 -14.443  -2.338  0.00  0.00     0.042 C 
ATOM     11  C   UNL d   1      27.098 -14.204  -1.830  0.00  0.00     0.030 C 
ATOM     12  C   UNL d   1      28.121 -15.153  -2.483  0.00  0.00     0.125 C 
ATOM     13  H   UNL d   1      28.440 -13.491  -5.595  0.00  0.00     0.166 HD
ENDROOT
BRANCH  10  14
ATOM     14  C   UNL d   1      25.059 -15.718  -1.786  0.00  0.00     0.061 A 
ATOM     15  C   UNL d   1      23.694 -16.027  -1.638  0.00  0.00     0.063 A 
ATOM     16  C   UNL d   1      23.631 -17.263  -1.069  0.00  0.00     0.086 A 
ATOM     17  N   UNL d   1      24.924 -17.650  -0.894  0.00  0.00    -0.275 N 
ATOM     18  N   UNL d   1      25.820 -16.726  -1.337  0.00  0.00    -0.179 NA
ATOM     19  H   UNL d   1      25.267 -18.531  -0.524  0.00  0.00     0.189 HD
BRANCH  16  20
ATOM     20  C   UNL d   1      22.447 -17.986  -0.775  0.00  0.00     0.103 A 
ATOM     21  C   UNL d   1      22.371 -19.182  -0.082  0.00  0.00     0.041 A 
ATOM     22  C   UNL d   1      21.026 -19.603  -0.126  0.00  0.00     0.027 A 
ATOM     23  C   UNL d   1      20.365 -18.663  -0.880  0.00  0.00     0.142 A 
ATOM     24  O   UNL d   1      21.214 -17.675  -1.270  0.00  0.00    -0.320 OA
ENDBRANCH  16  20
ENDBRANCH  10  14
BRANCH   1  25
ATOM     25  N   UNL d   1      29.824 -17.474  -4.099  0.00  0.00    -0.112 N 
ATOM     26  O   UNL d   1      29.799 -17.184  -2.904  0.00  0.00    -0.532 OA
ATOM     27  O   UNL d   1      29.870 -18.620  -4.570  0.00  0.00    -0.532 OA
ENDBRANCH   1  25
TORSDOF 3
ENDMDL
MODEL 6
REMARK VINA RESULT:    -6.387      2.026      2.390
REMARK INTER + INTRA:          -7.642
REMARK INTER:                  -7.282
REMARK INTRA:                  -0.360
REMARK CONF_INDEPENDENT:        0.895
REMARK UNBOUND:                -0.360
REMARK  3 active torsions:
REMARK  status: ('A' for Active; 'I' for Inactive)
REMARK    1  A    between atoms: N_2  and  C_4 
REMARK    2  A    between atoms: C_13  and  C_14 
REMARK    3  A    between atoms: C_16  and  C_17 
ROOT
ATOM      1  C   UNL d   1      27.917 -12.051  -1.639  0.00  0.00     0.146 A 
ATOM      2  C   UNL d   1      28.624 -10.851  -1.457  0.00  0.00     0.041 A 
ATOM      3  C   UNL d   1      29.788 -10.853  -0.695  0.00  0.00     0.020 A 
ATOM      4  C   UNL d   1      30.210 -12.043  -0.126  0.00  0.00     0.090 A 
ATOM      5  N   UNL d   1      29.483 -13.153  -0.301  0.00  0.00    -0.350 N 
ATOM      6  C   UNL d   1      28.348 -13.230  -1.027  0.00  0.00     0.136 A 
ATOM      7  N   UNL d   1      27.787 -14.471  -0.941  0.00  0.00    -0.365 N 
ATOM      8  C   UNL d   1      26.978 -14.639   0.280  0.00  0.00     0.125 C 
ATOM      9  C   UNL d   1      27.103 -16.094   0.712  0.00  0.00     0.030 C 
ATOM     10  C   UNL d   1      26.642 -17.060  -0.400  0.00  0.00     0.042 C 
ATOM     11  C   UNL d   1      27.386 -16.742  -1.721  0.00  0.00     0.030 C 
ATOM     12  C   UNL d   1      27.310 -15.251  -2.102  0.00  0.00     0.125 C 
ATOM     13  H   UNL d   1      29.777 -14.030   0.128  0.00  0.00     0.166 HD
ENDROOT
BRANCH  10  14
ATOM     14  C   UNL d   1      25.140 -17.018  -0.568  0.00  0.00     0.061 A 
ATOM     15  C   UNL d   1      24.232 -18.074  -0.370  0.00  0.00     0.063 A 
ATOM     16  C   UNL d   1      22.995 -17.589  -0.672  0.00  0.00     0.086 A 
ATOM     17  N   UNL d   1      23.190 -16.292  -1.034  0.00  0.00    -0.275 N 
ATOM     18  N   UNL d   1      24.497 -15.912  -0.967  0.00  0.00    -0.179 NA
ATOM     19  H   UNL d   1      22.490 -15.605  -1.295  0.00  0.00     0.189 HD
BRANCH  16  20
ATOM     20  C   UNL d   1      21.773 -18.303  -0.575  0.00  0.00     0.103 A 
ATOM     21  C   UNL d   1      21.624 -19.610  -0.143  0.00  0.00     0.041 A 
ATOM     22  C   UNL d   1      20.269 -19.954  -0.322  0.00  0.00     0.027 A 
ATOM     23  C   UNL d   1      19.676 -18.852  -0.892  0.00  0.00     0.142 A 
ATOM     24  O   UNL d   1      20.575 -17.845  -1.040  0.00  0.00    -0.320 OA
ENDBRANCH  16  20
ENDBRANCH  10  14
BRANCH   1  25
ATOM     25  N   UNL d   1      26.738 -12.021  -2.470  0.00  0.00    -0.112 N 
ATOM     26  O   UNL d   1      25.884 -12.876  -2.241  0.00  0.00    -0.532 OA
ATOM     27  O   UNL d   1      26.680 -11.149  -3.349  0.00  0.00    -0.532 OA
ENDBRANCH   1  25
TORSDOF 3
ENDMDL
MODEL 7
REMARK VINA RESULT:    -6.222      7.390      9.342
REMARK INTER + INTRA:          -7.608
REMARK INTER:                  -7.117
REMARK INTRA:                  -0.492
REMARK CONF_INDEPENDENT:        0.895
REMARK UNBOUND:                -0.492
REMARK  3 active torsions:
REMARK  status: ('A' for Active; 'I' for Inactive)
REMARK    1  A    between atoms: N_2  and  C_4 
REMARK    2  A    between atoms: C_13  and  C_14 
REMARK    3  A    between atoms: C_16  and  C_17 
ROOT
ATOM      1  C   UNL d   1      26.751  -8.955   0.976  0.00  0.00     0.146 A 
ATOM      2  C   UNL d   1      26.798  -7.954  -0.009  0.00  0.00     0.041 A 
ATOM      3  C   UNL d   1      27.564  -8.157  -1.153  0.00  0.00     0.020 A 
ATOM      4  C   UNL d   1      28.269  -9.343  -1.281  0.00  0.00     0.090 A 
ATOM      5  N   UNL d   1      28.218 -10.251  -0.300  0.00  0.00    -0.350 N 
ATOM      6  C   UNL d   1      27.498 -10.126   0.835  0.00  0.00     0.136 A 
ATOM      7  N   UNL d   1      27.722 -11.173   1.682  0.00  0.00    -0.365 N 
ATOM      8  C   UNL d   1      28.949 -10.997   2.481  0.00  0.00     0.125 C 
ATOM      9  C   UNL d   1      29.546 -12.379   2.708  0.00  0.00     0.030 C 
ATOM     10  C   UNL d   1      28.550 -13.321   3.417  0.00  0.00     0.042 C 
ATOM     11  C   UNL d   1      27.206 -13.348   2.646  0.00  0.00     0.030 C 
ATOM     12  C   UNL d   1      26.655 -11.938   2.361  0.00  0.00     0.125 C 
ATOM     13  H   UNL d   1      28.747 -11.119  -0.378  0.00  0.00     0.166 HD
ENDROOT
BRANCH  10  14
ATOM     14  C   UNL d   1      28.368 -12.929   4.865  0.00  0.00     0.061 A 
ATOM     15  C   UNL d   1      28.727 -13.677   6.001  0.00  0.00     0.063 A 
ATOM     16  C   UNL d   1      28.343 -12.949   7.088  0.00  0.00     0.086 A 
ATOM     17  N   UNL d   1      27.779 -11.817   6.587  0.00  0.00    -0.275 N 
ATOM     18  N   UNL d   1      27.793 -11.773   5.226  0.00  0.00    -0.179 NA
ATOM     19  H   UNL d   1      27.407 -11.025   7.102  0.00  0.00     0.189 HD
BRANCH  16  20
ATOM     20  C   UNL d   1      28.546 -13.308   8.444  0.00  0.00     0.103 A 
ATOM     21  C   UNL d   1      29.201 -14.439   8.900  0.00  0.00     0.041 A 
ATOM     22  C   UNL d   1      29.065 -14.461  10.303  0.00  0.00     0.027 A 
ATOM     23  C   UNL d   1      28.298 -13.366  10.621  0.00  0.00     0.142 A 
ATOM     24  O   UNL d   1      27.986 -12.656   9.504  0.00  0.00    -0.320 OA
ENDBRANCH  16  20
ENDBRANCH  10  14
BRANCH   1  25
ATOM     25  N   UNL d   1      25.915  -8.729   2.129  0.00  0.00    -0.112 N 
ATOM     26  O   UNL d   1      24.780  -9.202   2.085  0.00  0.00    -0.532 OA
ATOM     27  O   UNL d   1      26.395  -8.073   3.064  0.00  0.00    -0.532 OA
ENDBRANCH   1  25
TORSDOF 3
ENDMDL
MODEL 8
REMARK VINA RESULT:    -5.852      7.061      9.144
REMARK INTER + INTRA:          -7.317
REMARK INTER:                  -6.747
REMARK INTRA:                  -0.570
REMARK CONF_INDEPENDENT:        0.895
REMARK UNBOUND:                -0.570
REMARK  3 active torsions:
REMARK  status: ('A' for Active; 'I' for Inactive)
REMARK    1  A    between atoms: N_2  and  C_4 
REMARK    2  A    between atoms: C_13  and  C_14 
REMARK    3  A    between atoms: C_16  and  C_17 
ROOT
ATOM      1  C   UNL d   1      26.773  -9.003   1.644  0.00  0.00     0.146 A 
ATOM      2  C   UNL d   1      26.811  -7.753   1.004  0.00  0.00     0.041 A 
ATOM      3  C   UNL d   1      27.454  -7.634  -0.225  0.00  0.00     0.020 A 
ATOM      4  C   UNL d   1      28.050  -8.757  -0.775  0.00  0.00     0.090 A 
ATOM      5  N   UNL d   1      28.016  -9.917  -0.111  0.00  0.00    -0.350 N 
ATOM      6  C   UNL d   1      27.411 -10.110   1.081  0.00  0.00     0.136 A 
ATOM      7  N   UNL d   1      27.627 -11.374   1.548  0.00  0.00    -0.365 N 
ATOM      8  C   UNL d   1      28.929 -11.508   2.226  0.00  0.00     0.125 C 
ATOM      9  C   UNL d   1      29.435 -12.920   1.965  0.00  0.00     0.030 C 
ATOM     10  C   UNL d   1      28.435 -13.985   2.464  0.00  0.00     0.042 C 
ATOM     11  C   UNL d   1      27.030 -13.712   1.870  0.00  0.00     0.030 C 
ATOM     12  C   UNL d   1      26.568 -12.258   2.079  0.00  0.00     0.125 C 
ATOM     13  H   UNL d   1      28.467 -10.744  -0.500  0.00  0.00     0.166 HD
ENDROOT
BRANCH  10  14
ATOM     14  C   UNL d   1      28.413 -14.044   3.974  0.00  0.00     0.061 A 
ATOM     15  C   UNL d   1      28.525 -12.965   4.870  0.00  0.00     0.063 A 
ATOM     16  C   UNL d   1      28.490 -13.492   6.126  0.00  0.00     0.086 A 
ATOM     17  N   UNL d   1      28.363 -14.836   5.954  0.00  0.00    -0.275 N 
ATOM     18  N   UNL d   1      28.300 -15.200   4.643  0.00  0.00    -0.179 NA
ATOM     19  H   UNL d   1      28.273 -15.551   6.668  0.00  0.00     0.189 HD
BRANCH  16  20
ATOM     20  C   UNL d   1      28.534 -12.759   7.339  0.00  0.00     0.103 A 
ATOM     21  C   UNL d   1      28.886 -11.427   7.475  0.00  0.00     0.041 A 
ATOM     22  C   UNL d   1      28.913 -11.144   8.856  0.00  0.00     0.027 A 
ATOM     23  C   UNL d   1      28.618 -12.329   9.486  0.00  0.00     0.142 A 
ATOM     24  O   UNL d   1      28.378 -13.310   8.577  0.00  0.00    -0.320 OA
ENDBRANCH  16  20
ENDBRANCH  10  14
BRANCH   1  25
ATOM     25  N   UNL d   1      26.062  -9.099   2.895  0.00  0.00    -0.112 N 
ATOM     26  O   UNL d   1      26.658  -8.707   3.897  0.00  0.00    -0.532 OA
ATOM     27  O   UNL d   1      24.917  -9.574   2.867  0.00  0.00    -0.532 OA
ENDBRANCH   1  25
TORSDOF 3
ENDMDL
MODEL 9
REMARK VINA RESULT:    -5.592      4.370      7.304
REMARK INTER + INTRA:          -7.052
REMARK INTER:                  -6.487
REMARK INTRA:                  -0.565
REMARK CONF_INDEPENDENT:        0.895
REMARK UNBOUND:                -0.565
REMARK  3 active torsions:
REMARK  status: ('A' for Active; 'I' for Inactive)
REMARK    1  A    between atoms: N_2  and  C_4 
REMARK    2  A    between atoms: C_13  and  C_14 
REMARK    3  A    between atoms: C_16  and  C_17 
ROOT
ATOM      1  C   UNL d   1      27.977 -12.549   1.987  0.00  0.00     0.146 A 
ATOM      2  C   UNL d   1      28.038 -12.251   3.358  0.00  0.00     0.041 A 
ATOM      3  C   UNL d   1      28.046 -13.290   4.284  0.00  0.00     0.020 A 
ATOM      4  C   UNL d   1      27.981 -14.594   3.821  0.00  0.00     0.090 A 
ATOM      5  N   UNL d   1      27.890 -14.825   2.507  0.00  0.00    -0.350 N 
ATOM      6  C   UNL d   1      27.880 -13.872   1.551  0.00  0.00     0.136 A 
ATOM      7  N   UNL d   1      27.684 -14.413   0.313  0.00  0.00    -0.365 N 
ATOM      8  C   UNL d   1      26.259 -14.666   0.029  0.00  0.00     0.125 C 
ATOM      9  C   UNL d   1      26.184 -15.908  -0.849  0.00  0.00     0.030 C 
ATOM     10  C   UNL d   1      26.991 -15.733  -2.153  0.00  0.00     0.042 C 
ATOM     11  C   UNL d   1      28.441 -15.296  -1.826  0.00  0.00     0.030 C 
ATOM     12  C   UNL d   1      28.495 -14.083  -0.877  0.00  0.00     0.125 C 
ATOM     13  H   UNL d   1      27.825 -15.781   2.158  0.00  0.00     0.166 HD
ENDROOT
BRANCH  10  14
ATOM     14  C   UNL d   1      26.303 -14.769  -3.092  0.00  0.00     0.061 A 
ATOM     15  C   UNL d   1      26.705 -13.460  -3.412  0.00  0.00     0.063 A 
ATOM     16  C   UNL d   1      25.768 -12.959  -4.266  0.00  0.00     0.086 A 
ATOM     17  N   UNL d   1      24.854 -13.954  -4.428  0.00  0.00    -0.275 N 
ATOM     18  N   UNL d   1      25.165 -15.080  -3.728  0.00  0.00    -0.179 NA
ATOM     19  H   UNL d   1      24.030 -13.953  -5.020  0.00  0.00     0.189 HD
BRANCH  16  20
ATOM     20  C   UNL d   1      25.795 -11.679  -4.874  0.00  0.00     0.103 A 
ATOM     21  C   UNL d   1      25.921 -10.466  -4.218  0.00  0.00     0.041 A 
ATOM     22  C   UNL d   1      25.778  -9.453  -5.188  0.00  0.00     0.027 A 
ATOM     23  C   UNL d   1      25.530 -10.102  -6.373  0.00  0.00     0.142 A 
ATOM     24  O   UNL d   1      25.547 -11.450  -6.196  0.00  0.00    -0.320 OA
ENDBRANCH  16  20
ENDBRANCH  10  14
BRANCH   1  25
ATOM     25  N   UNL d   1      28.014 -11.449   1.055  0.00  0.00    -0.112 N 
ATOM     26  O   UNL d   1      29.046 -11.320   0.398  0.00  0.00    -0.532 OA
ATOM     27  O   UNL d   1      27.014 -10.719   0.993  0.00  0.00    -0.532 OA
ENDBRANCH   1  25
TORSDOF 3
ENDMDL
