MODEL 1
REMARK VINA RESULT:    -9.477      0.000      0.000
REMARK INTER + INTRA:         -13.289
REMARK INTER:                 -12.162
REMARK INTRA:                  -1.127
REMARK CONF_INDEPENDENT:        2.685
REMARK UNBOUND:                -1.127
REMARK  9 active torsions:
REMARK  status: ('A' for Active; 'I' for Inactive)
REMARK    1  A    between atoms: O_2  and  C_3 
REMARK    2  A    between atoms: C_3  and  C_5 
REMARK    3  A    between atoms: C_8  and  N_9 
REMARK    4  A    between atoms: N_9  and  C_10 
REMARK    5  A    between atoms: C_10  and  C_11 
REMARK       I    between atoms: C_11  and  N_13 
REMARK    6  A    between atoms: N_13  and  C_14 
REMARK    7  A    between atoms: C_18  and  C_19 
REMARK       I    between atoms: C_19  and  N_21 
REMARK    8  A    between atoms: N_21  and  C_22 
REMARK    9  A    between atoms: C_26  and  C_27 
ROOT
ATOM      1  C   UNL d   1      28.108 -13.693   3.578  0.00  0.00     0.035 A 
ATOM      2  C   UNL d   1      28.045 -12.399   3.053  0.00  0.00     0.029 A 
ATOM      3  C   UNL d   1      28.078 -11.294   3.915  0.00  0.00     0.003 A 
ATOM      4  C   UNL d   1      28.152 -11.482   5.298  0.00  0.00     0.017 A 
ATOM      5  C   UNL d   1      28.233 -12.773   5.834  0.00  0.00     0.034 A 
ATOM      6  C   UNL d   1      28.203 -13.864   4.963  0.00  0.00     0.046 A 
ENDROOT
BRANCH   1   7
ATOM      7  N   UNL d   1      28.130 -14.827   2.730  0.00  0.00    -0.326 N 
ATOM      8  C   UNL d   1      27.444 -14.860   1.512  0.00  0.00     0.239 C 
ATOM      9  O   UNL d   1      26.818 -13.901   1.052  0.00  0.00    -0.271 OA
ATOM     10  H   UNL d   1      28.771 -15.575   2.970  0.00  0.00     0.169 HD
BRANCH   8  11
ATOM     11  C   UNL d   1      27.519 -16.186   0.734  0.00  0.00     0.223 C 
BRANCH  11  12
ATOM     12  N   UNL d   1      26.614 -16.153  -0.426  0.00  0.00    -0.381 N 
ATOM     13  H   UNL d   1      26.817 -15.412  -1.099  0.00  0.00     0.160 HD
BRANCH  12  14
ATOM     14  C   UNL d   1      25.356 -16.731  -0.436  0.00  0.00     0.028 A 
ATOM     15  C   UNL d   1      24.243 -16.007  -0.891  0.00  0.00     0.030 A 
ATOM     16  C   UNL d   1      22.952 -16.572  -0.898  0.00  0.00     0.020 A 
ATOM     17  C   UNL d   1      22.759 -17.907  -0.525  0.00  0.00     0.039 A 
ATOM     18  C   UNL d   1      23.863 -18.653  -0.113  0.00  0.00     0.020 A 
ATOM     19  C   UNL d   1      25.140 -18.068  -0.080  0.00  0.00     0.030 A 
BRANCH  17  20
ATOM     20  C   UNL d   1      21.432 -18.545  -0.720  0.00  0.00     0.292 C 
ATOM     21  O   UNL d   1      20.497 -17.966  -1.270  0.00  0.00    -0.259 OA
BRANCH  20  22
ATOM     22  O   UNL d   1      21.398 -19.807  -0.226  0.00  0.00    -0.323 OA
ATOM     23  C   UNL d   1      20.201 -20.120   0.504  0.00  0.00     0.213 C 
ENDBRANCH  20  22
ENDBRANCH  17  20
ENDBRANCH  12  14
ENDBRANCH  11  12
ENDBRANCH   8  11
ENDBRANCH   1   7
BRANCH   5  24
ATOM     24  C   UNL d   1      28.397 -12.933   7.311  0.00  0.00     0.256 C 
ATOM     25  O   UNL d   1      28.151 -11.968   8.032  0.00  0.00    -0.267 OA
ATOM     26  N   UNL d   1      28.905 -14.142   7.774  0.00  0.00    -0.323 N 
ATOM     27  H   UNL d   1      29.287 -14.815   7.128  0.00  0.00     0.169 HD
BRANCH  26  28
ATOM     28  C   UNL d   1      29.169 -14.389   9.131  0.00  0.00     0.035 A 
ATOM     29  C   UNL d   1      28.177 -14.134  10.078  0.00  0.00     0.029 A 
ATOM     30  C   UNL d   1      28.434 -14.348  11.434  0.00  0.00     0.003 A 
ATOM     31  C   UNL d   1      29.679 -14.828  11.838  0.00  0.00     0.016 A 
ATOM     32  C   UNL d   1      30.694 -15.048  10.896  0.00  0.00     0.050 A 
ATOM     33  C   UNL d   1      30.423 -14.834   9.540  0.00  0.00     0.045 A 
BRANCH  32  34
ATOM     34  C   UNL d   1      32.068 -15.466  11.340  0.00  0.00     0.417 C 
ATOM     35  F   UNL d   1      32.857 -15.822  10.286  0.00  0.00    -0.166 F 
ATOM     36  F   UNL d   1      32.736 -14.473  11.987  0.00  0.00    -0.166 F 
ATOM     37  F   UNL d   1      32.074 -16.537  12.181  0.00  0.00    -0.166 F 
ENDBRANCH  32  34
ENDBRANCH  26  28
ENDBRANCH   5  24
TORSDOF 9
ENDMDL
MODEL 2
REMARK VINA RESULT:    -9.180      8.342     11.262
REMARK INTER + INTRA:         -13.090
REMARK INTER:                 -11.865
REMARK INTRA:                  -1.226
REMARK CONF_INDEPENDENT:        2.685
REMARK UNBOUND:                -1.226
REMARK  9 active torsions:
REMARK  status: ('A' for Active; 'I' for Inactive)
REMARK    1  A    between atoms: O_2  and  C_3 
REMARK    2  A    between atoms: C_3  and  C_5 
REMARK    3  A    between atoms: C_8  and  N_9 
REMARK    4  A    between atoms: N_9  and  C_10 
REMARK    5  A    between atoms: C_10  and  C_11 
REMARK       I    between atoms: C_11  and  N_13 
REMARK    6  A    between atoms: N_13  and  C_14 
REMARK    7  A    between atoms: C_18  and  C_19 
REMARK       I    between atoms: C_19  and  N_21 
REMARK    8  A    between atoms: N_21  and  C_22 
REMARK    9  A    between atoms: C_26  and  C_27 
ROOT
ATOM      1  C   UNL d   1      25.882 -15.454  -1.273  0.00  0.00     0.035 A 
ATOM      2  C   UNL d   1      26.977 -15.987  -0.589  0.00  0.00     0.029 A 
ATOM      3  C   UNL d   1      26.887 -17.261  -0.012  0.00  0.00     0.003 A 
ATOM      4  C   UNL d   1      25.698 -17.991  -0.100  0.00  0.00     0.017 A 
ATOM      5  C   UNL d   1      24.600 -17.474  -0.798  0.00  0.00     0.034 A 
ATOM      6  C   UNL d   1      24.706 -16.205  -1.371  0.00  0.00     0.046 A 
ENDROOT
BRANCH   1   7
ATOM      7  N   UNL d   1      25.961 -14.192  -1.913  0.00  0.00    -0.326 N 
ATOM      8  C   UNL d   1      25.500 -13.988  -3.217  0.00  0.00     0.239 C 
ATOM      9  O   UNL d   1      24.941 -14.857  -3.891  0.00  0.00    -0.271 OA
ATOM     10  H   UNL d   1      26.246 -13.401  -1.346  0.00  0.00     0.169 HD
BRANCH   8  11
ATOM     11  C   UNL d   1      25.713 -12.575  -3.790  0.00  0.00     0.223 C 
BRANCH  11  12
ATOM     12  N   UNL d   1      27.040 -12.470  -4.417  0.00  0.00    -0.381 N 
ATOM     13  H   UNL d   1      27.219 -11.578  -4.881  0.00  0.00     0.160 HD
BRANCH  12  14
ATOM     14  C   UNL d   1      27.814 -13.564  -4.765  0.00  0.00     0.028 A 
ATOM     15  C   UNL d   1      28.360 -14.395  -3.773  0.00  0.00     0.030 A 
ATOM     16  C   UNL d   1      29.161 -15.506  -4.104  0.00  0.00     0.020 A 
ATOM     17  C   UNL d   1      29.366 -15.859  -5.443  0.00  0.00     0.039 A 
ATOM     18  C   UNL d   1      28.792 -15.070  -6.440  0.00  0.00     0.020 A 
ATOM     19  C   UNL d   1      28.023 -13.946  -6.096  0.00  0.00     0.030 A 
BRANCH  17  20
ATOM     20  C   UNL d   1      30.047 -17.138  -5.775  0.00  0.00     0.292 C 
ATOM     21  O   UNL d   1      30.229 -18.022  -4.941  0.00  0.00    -0.259 OA
BRANCH  20  22
ATOM     22  O   UNL d   1      30.424 -17.188  -7.077  0.00  0.00    -0.323 OA
ATOM     23  C   UNL d   1      31.064 -18.418  -7.454  0.00  0.00     0.213 C 
ENDBRANCH  20  22
ENDBRANCH  17  20
ENDBRANCH  12  14
ENDBRANCH  11  12
ENDBRANCH   8  11
ENDBRANCH   1   7
BRANCH   5  24
ATOM     24  C   UNL d   1      23.374 -18.318  -0.944  0.00  0.00     0.256 C 
ATOM     25  O   UNL d   1      23.244 -18.982  -1.971  0.00  0.00    -0.267 OA
ATOM     26  N   UNL d   1      22.412 -18.230   0.055  0.00  0.00    -0.323 N 
ATOM     27  H   UNL d   1      22.474 -17.514   0.762  0.00  0.00     0.169 HD
BRANCH  26  28
ATOM     28  C   UNL d   1      21.188 -18.918  -0.002  0.00  0.00     0.035 A 
ATOM     29  C   UNL d   1      20.481 -18.955  -1.204  0.00  0.00     0.029 A 
ATOM     30  C   UNL d   1      19.250 -19.611  -1.270  0.00  0.00     0.003 A 
ATOM     31  C   UNL d   1      18.735 -20.239  -0.137  0.00  0.00     0.016 A 
ATOM     32  C   UNL d   1      19.421 -20.171   1.084  0.00  0.00     0.050 A 
ATOM     33  C   UNL d   1      20.656 -19.516   1.137  0.00  0.00     0.045 A 
BRANCH  32  34
ATOM     34  C   UNL d   1      18.819 -20.759   2.330  0.00  0.00     0.417 C 
ATOM     35  F   UNL d   1      18.380 -22.035   2.130  0.00  0.00    -0.166 F 
ATOM     36  F   UNL d   1      19.704 -20.827   3.360  0.00  0.00    -0.166 F 
ATOM     37  F   UNL d   1      17.743 -20.070   2.800  0.00  0.00    -0.166 F 
ENDBRANCH  32  34
ENDBRANCH  26  28
ENDBRANCH   5  24
TORSDOF 9
ENDMDL
MODEL 3
REMARK VINA RESULT:    -9.085      2.012      2.460
REMARK INTER + INTRA:         -13.164
REMARK INTER:                 -11.770
REMARK INTRA:                  -1.394
REMARK CONF_INDEPENDENT:        2.685
REMARK UNBOUND:                -1.394
REMARK  9 active torsions:
REMARK  status: ('A' for Active; 'I' for Inactive)
REMARK    1  A    between atoms: O_2  and  C_3 
REMARK    2  A    between atoms: C_3  and  C_5 
REMARK    3  A    between atoms: C_8  and  N_9 
REMARK    4  A    between atoms: N_9  and  C_10 
REMARK    5  A    between atoms: C_10  and  C_11 
REMARK       I    between atoms: C_11  and  N_13 
REMARK    6  A    between atoms: N_13  and  C_14 
REMARK    7  A    between atoms: C_18  and  C_19 
REMARK       I    between atoms: C_19  and  N_21 
REMARK    8  A    between atoms: N_21  and  C_22 
REMARK    9  A    between atoms: C_26  and  C_27 
ROOT
ATOM      1  C   UNL d   1      28.724 -14.233   2.357  0.00  0.00     0.035 A 
ATOM      2  C   UNL d   1      29.372 -13.116   1.822  0.00  0.00     0.029 A 
ATOM      3  C   UNL d   1      29.923 -12.154   2.678  0.00  0.00     0.003 A 
ATOM      4  C   UNL d   1      29.808 -12.296   4.064  0.00  0.00     0.017 A 
ATOM      5  C   UNL d   1      29.177 -13.420   4.611  0.00  0.00     0.034 A 
ATOM      6  C   UNL d   1      28.635 -14.372   3.745  0.00  0.00     0.046 A 
ENDROOT
BRANCH   1   7
ATOM      7  N   UNL d   1      28.204 -15.249   1.517  0.00  0.00    -0.326 N 
ATOM      8  C   UNL d   1      27.072 -15.050   0.721  0.00  0.00     0.239 C 
ATOM      9  O   UNL d   1      26.472 -13.975   0.637  0.00  0.00    -0.271 OA
ATOM     10  H   UNL d   1      28.757 -16.092   1.409  0.00  0.00     0.169 HD
BRANCH   8  11
ATOM     11  C   UNL d   1      26.598 -16.271  -0.089  0.00  0.00     0.223 C 
BRANCH  11  12
ATOM     12  N   UNL d   1      25.317 -15.981  -0.754  0.00  0.00    -0.381 N 
ATOM     13  H   UNL d   1      25.159 -14.992  -0.953  0.00  0.00     0.160 HD
BRANCH  12  14
ATOM     14  C   UNL d   1      24.227 -16.834  -0.726  0.00  0.00     0.028 A 
ATOM     15  C   UNL d   1      22.929 -16.339  -0.930  0.00  0.00     0.030 A 
ATOM     16  C   UNL d   1      21.805 -17.187  -0.894  0.00  0.00     0.020 A 
ATOM     17  C   UNL d   1      21.963 -18.569  -0.733  0.00  0.00     0.039 A 
ATOM     18  C   UNL d   1      23.250 -19.082  -0.576  0.00  0.00     0.020 A 
ATOM     19  C   UNL d   1      24.361 -18.221  -0.581  0.00  0.00     0.030 A 
BRANCH  17  20
ATOM     20  C   UNL d   1      20.793 -19.470  -0.891  0.00  0.00     0.292 C 
ATOM     21  O   UNL d   1      20.287 -19.707  -1.986  0.00  0.00    -0.259 OA
BRANCH  20  22
ATOM     22  O   UNL d   1      20.378 -19.975   0.298  0.00  0.00    -0.323 OA
ATOM     23  C   UNL d   1      19.025 -20.460   0.289  0.00  0.00     0.213 C 
ENDBRANCH  20  22
ENDBRANCH  17  20
ENDBRANCH  12  14
ENDBRANCH  11  12
ENDBRANCH   8  11
ENDBRANCH   1   7
BRANCH   5  24
ATOM     24  C   UNL d   1      29.147 -13.581   6.097  0.00  0.00     0.256 C 
ATOM     25  O   UNL d   1      28.057 -13.545   6.665  0.00  0.00    -0.267 OA
ATOM     26  N   UNL d   1      30.368 -13.674   6.757  0.00  0.00    -0.323 N 
ATOM     27  H   UNL d   1      31.228 -13.485   6.267  0.00  0.00     0.169 HD
BRANCH  26  28
ATOM     28  C   UNL d   1      30.474 -13.757   8.155  0.00  0.00     0.035 A 
ATOM     29  C   UNL d   1      31.610 -14.339   8.720  0.00  0.00     0.029 A 
ATOM     30  C   UNL d   1      31.719 -14.455  10.107  0.00  0.00     0.003 A 
ATOM     31  C   UNL d   1      30.697 -13.977  10.927  0.00  0.00     0.016 A 
ATOM     32  C   UNL d   1      29.535 -13.428  10.365  0.00  0.00     0.050 A 
ATOM     33  C   UNL d   1      29.440 -13.313   8.974  0.00  0.00     0.045 A 
BRANCH  32  34
ATOM     34  C   UNL d   1      28.389 -13.008  11.243  0.00  0.00     0.417 C 
ATOM     35  F   UNL d   1      28.785 -12.130  12.209  0.00  0.00    -0.166 F 
ATOM     36  F   UNL d   1      27.401 -12.381  10.551  0.00  0.00    -0.166 F 
ATOM     37  F   UNL d   1      27.795 -14.038  11.905  0.00  0.00    -0.166 F 
ENDBRANCH  32  34
ENDBRANCH  26  28
ENDBRANCH   5  24
TORSDOF 9
ENDMDL
MODEL 4
REMARK VINA RESULT:    -9.022      8.298     11.791
REMARK INTER + INTRA:         -12.857
REMARK INTER:                 -11.707
REMARK INTRA:                  -1.150
REMARK CONF_INDEPENDENT:        2.685
REMARK UNBOUND:                -1.150
REMARK  9 active torsions:
REMARK  status: ('A' for Active; 'I' for Inactive)
REMARK    1  A    between atoms: O_2  and  C_3 
REMARK    2  A    between atoms: C_3  and  C_5 
REMARK    3  A    between atoms: C_8  and  N_9 
REMARK    4  A    between atoms: N_9  and  C_10 
REMARK    5  A    between atoms: C_10  and  C_11 
REMARK       I    between atoms: C_11  and  N_13 
REMARK    6  A    between atoms: N_13  and  C_14 
REMARK    7  A    between atoms: C_18  and  C_19 
REMARK       I    between atoms: C_19  and  N_21 
REMARK    8  A    between atoms: N_21  and  C_22 
REMARK    9  A    between atoms: C_26  and  C_27 
ROOT
ATOM      1  C   UNL d   1      26.020 -15.568  -1.044  0.00  0.00     0.035 A 
ATOM      2  C   UNL d   1      27.116 -16.193  -0.443  0.00  0.00     0.029 A 
ATOM      3  C   UNL d   1      27.000 -17.509   0.022  0.00  0.00     0.003 A 
ATOM      4  C   UNL d   1      25.785 -18.192  -0.094  0.00  0.00     0.017 A 
ATOM      5  C   UNL d   1      24.686 -17.582  -0.709  0.00  0.00     0.034 A 
ATOM      6  C   UNL d   1      24.818 -16.271  -1.171  0.00  0.00     0.046 A 
ENDROOT
BRANCH   1   7
ATOM      7  N   UNL d   1      26.123 -14.257  -1.572  0.00  0.00    -0.326 N 
ATOM      8  C   UNL d   1      25.508 -13.887  -2.771  0.00  0.00     0.239 C 
ATOM      9  O   UNL d   1      24.787 -14.638  -3.433  0.00  0.00    -0.271 OA
ATOM     10  H   UNL d   1      26.551 -13.551  -0.983  0.00  0.00     0.169 HD
BRANCH   8  11
ATOM     11  C   UNL d   1      25.765 -12.442  -3.240  0.00  0.00     0.223 C 
BRANCH  11  12
ATOM     12  N   UNL d   1      25.698 -12.359  -4.708  0.00  0.00    -0.381 N 
ATOM     13  H   UNL d   1      24.769 -12.521  -5.098  0.00  0.00     0.160 HD
BRANCH  12  14
ATOM     14  C   UNL d   1      26.799 -12.501  -5.536  0.00  0.00     0.028 A 
ATOM     15  C   UNL d   1      27.412 -11.375  -6.106  0.00  0.00     0.030 A 
ATOM     16  C   UNL d   1      28.525 -11.498  -6.962  0.00  0.00     0.020 A 
ATOM     17  C   UNL d   1      29.102 -12.750  -7.200  0.00  0.00     0.039 A 
ATOM     18  C   UNL d   1      28.533 -13.875  -6.602  0.00  0.00     0.020 A 
ATOM     19  C   UNL d   1      27.403 -13.742  -5.778  0.00  0.00     0.030 A 
BRANCH  17  20
ATOM     20  C   UNL d   1      30.385 -12.845  -7.942  0.00  0.00     0.292 C 
ATOM     21  O   UNL d   1      31.233 -13.698  -7.687  0.00  0.00    -0.259 OA
BRANCH  20  22
ATOM     22  O   UNL d   1      30.486 -11.894  -8.904  0.00  0.00    -0.323 OA
ATOM     23  C   UNL d   1      29.765 -12.200 -10.109  0.00  0.00     0.213 C 
ENDBRANCH  20  22
ENDBRANCH  17  20
ENDBRANCH  12  14
ENDBRANCH  11  12
ENDBRANCH   8  11
ENDBRANCH   1   7
BRANCH   5  24
ATOM     24  C   UNL d   1      23.429 -18.372  -0.892  0.00  0.00     0.256 C 
ATOM     25  O   UNL d   1      23.266 -18.968  -1.954  0.00  0.00    -0.267 OA
ATOM     26  N   UNL d   1      22.480 -18.311   0.122  0.00  0.00    -0.323 N 
ATOM     27  H   UNL d   1      22.575 -17.641   0.870  0.00  0.00     0.169 HD
BRANCH  26  28
ATOM     28  C   UNL d   1      21.232 -18.950   0.038  0.00  0.00     0.035 A 
ATOM     29  C   UNL d   1      20.547 -18.955  -1.177  0.00  0.00     0.029 A 
ATOM     30  C   UNL d   1      19.293 -19.563  -1.270  0.00  0.00     0.003 A 
ATOM     31  C   UNL d   1      18.733 -20.175  -0.150  0.00  0.00     0.016 A 
ATOM     32  C   UNL d   1      19.397 -20.138   1.085  0.00  0.00     0.050 A 
ATOM     33  C   UNL d   1      20.655 -19.531   1.165  0.00  0.00     0.045 A 
BRANCH  32  34
ATOM     34  C   UNL d   1      18.748 -20.706   2.316  0.00  0.00     0.417 C 
ATOM     35  F   UNL d   1      18.274 -21.967   2.105  0.00  0.00    -0.166 F 
ATOM     36  F   UNL d   1      19.607 -20.801   3.366  0.00  0.00    -0.166 F 
ATOM     37  F   UNL d   1      17.683 -19.983   2.761  0.00  0.00    -0.166 F 
ENDBRANCH  32  34
ENDBRANCH  26  28
ENDBRANCH   5  24
TORSDOF 9
ENDMDL
MODEL 5
REMARK VINA RESULT:    -8.863      7.947     11.501
REMARK INTER + INTRA:         -12.606
REMARK INTER:                 -11.548
REMARK INTRA:                  -1.058
REMARK CONF_INDEPENDENT:        2.685
REMARK UNBOUND:                -1.058
REMARK  9 active torsions:
REMARK  status: ('A' for Active; 'I' for Inactive)
REMARK    1  A    between atoms: O_2  and  C_3 
REMARK    2  A    between atoms: C_3  and  C_5 
REMARK    3  A    between atoms: C_8  and  N_9 
REMARK    4  A    between atoms: N_9  and  C_10 
REMARK    5  A    between atoms: C_10  and  C_11 
REMARK       I    between atoms: C_11  and  N_13 
REMARK    6  A    between atoms: N_13  and  C_14 
REMARK    7  A    between atoms: C_18  and  C_19 
REMARK       I    between atoms: C_19  and  N_21 
REMARK    8  A    between atoms: N_21  and  C_22 
REMARK    9  A    between atoms: C_26  and  C_27 
ROOT
ATOM      1  C   UNL d   1      26.201 -16.010  -1.772  0.00  0.00     0.035 A 
ATOM      2  C   UNL d   1      27.062 -16.258  -0.700  0.00  0.00     0.029 A 
ATOM      3  C   UNL d   1      26.713 -17.206   0.271  0.00  0.00     0.003 A 
ATOM      4  C   UNL d   1      25.498 -17.891   0.182  0.00  0.00     0.017 A 
ATOM      5  C   UNL d   1      24.635 -17.663  -0.898  0.00  0.00     0.034 A 
ATOM      6  C   UNL d   1      24.998 -16.717  -1.858  0.00  0.00     0.046 A 
ENDROOT
BRANCH   1   7
ATOM      7  N   UNL d   1      26.551 -15.096  -2.796  0.00  0.00    -0.326 N 
ATOM      8  C   UNL d   1      25.589 -14.388  -3.523  0.00  0.00     0.239 C 
ATOM      9  O   UNL d   1      24.377 -14.452  -3.301  0.00  0.00    -0.271 OA
ATOM     10  H   UNL d   1      27.533 -14.869  -2.901  0.00  0.00     0.169 HD
BRANCH   8  11
ATOM     11  C   UNL d   1      26.128 -13.479  -4.643  0.00  0.00     0.223 C 
BRANCH  11  12
ATOM     12  N   UNL d   1      25.531 -12.137  -4.547  0.00  0.00    -0.381 N 
ATOM     13  H   UNL d   1      25.049 -11.828  -5.392  0.00  0.00     0.160 HD
BRANCH  12  14
ATOM     14  C   UNL d   1      25.927 -11.184  -3.623  0.00  0.00     0.028 A 
ATOM     15  C   UNL d   1      25.486  -9.856  -3.736  0.00  0.00     0.030 A 
ATOM     16  C   UNL d   1      25.887  -8.868  -2.815  0.00  0.00     0.020 A 
ATOM     17  C   UNL d   1      26.675  -9.207  -1.709  0.00  0.00     0.039 A 
ATOM     18  C   UNL d   1      27.083 -10.532  -1.558  0.00  0.00     0.020 A 
ATOM     19  C   UNL d   1      26.703 -11.501  -2.502  0.00  0.00     0.030 A 
BRANCH  17  20
ATOM     20  C   UNL d   1      26.929  -8.201  -0.645  0.00  0.00     0.292 C 
ATOM     21  O   UNL d   1      27.874  -7.416  -0.693  0.00  0.00    -0.259 OA
BRANCH  20  22
ATOM     22  O   UNL d   1      26.006  -8.269   0.346  0.00  0.00    -0.323 OA
ATOM     23  C   UNL d   1      26.382  -9.123   1.439  0.00  0.00     0.213 C 
ENDBRANCH  20  22
ENDBRANCH  17  20
ENDBRANCH  12  14
ENDBRANCH  11  12
ENDBRANCH   8  11
ENDBRANCH   1   7
BRANCH   5  24
ATOM     24  C   UNL d   1      23.383 -18.474  -1.005  0.00  0.00     0.256 C 
ATOM     25  O   UNL d   1      23.241 -19.197  -1.990  0.00  0.00    -0.267 OA
ATOM     26  N   UNL d   1      22.414 -18.292  -0.025  0.00  0.00    -0.323 N 
ATOM     27  H   UNL d   1      22.493 -17.535   0.636  0.00  0.00     0.169 HD
BRANCH  26  28
ATOM     28  C   UNL d   1      21.169 -18.942  -0.054  0.00  0.00     0.035 A 
ATOM     29  C   UNL d   1      20.423 -18.937  -1.233  0.00  0.00     0.029 A 
ATOM     30  C   UNL d   1      19.171 -19.554  -1.270  0.00  0.00     0.003 A 
ATOM     31  C   UNL d   1      18.673 -20.186  -0.130  0.00  0.00     0.016 A 
ATOM     32  C   UNL d   1      19.400 -20.159   1.069  0.00  0.00     0.050 A 
ATOM     33  C   UNL d   1      20.655 -19.542   1.092  0.00  0.00     0.045 A 
BRANCH  32  34
ATOM     34  C   UNL d   1      18.820 -20.749   2.324  0.00  0.00     0.417 C 
ATOM     35  F   UNL d   1      18.393 -22.031   2.133  0.00  0.00    -0.166 F 
ATOM     36  F   UNL d   1      19.718 -20.803   3.343  0.00  0.00    -0.166 F 
ATOM     37  F   UNL d   1      17.741 -20.071   2.805  0.00  0.00    -0.166 F 
ENDBRANCH  32  34
ENDBRANCH  26  28
ENDBRANCH   5  24
TORSDOF 9
ENDMDL
MODEL 6
REMARK VINA RESULT:    -8.839      8.302     11.751
REMARK INTER + INTRA:         -12.551
REMARK INTER:                 -11.524
REMARK INTRA:                  -1.027
REMARK CONF_INDEPENDENT:        2.685
REMARK UNBOUND:                -1.027
REMARK  9 active torsions:
REMARK  status: ('A' for Active; 'I' for Inactive)
REMARK    1  A    between atoms: O_2  and  C_3 
REMARK    2  A    between atoms: C_3  and  C_5 
REMARK    3  A    between atoms: C_8  and  N_9 
REMARK    4  A    between atoms: N_9  and  C_10 
REMARK    5  A    between atoms: C_10  and  C_11 
REMARK       I    between atoms: C_11  and  N_13 
REMARK    6  A    between atoms: N_13  and  C_14 
REMARK    7  A    between atoms: C_18  and  C_19 
REMARK       I    between atoms: C_19  and  N_21 
REMARK    8  A    between atoms: N_21  and  C_22 
REMARK    9  A    between atoms: C_26  and  C_27 
ROOT
ATOM      1  C   UNL d   1      26.305 -16.153  -1.855  0.00  0.00     0.035 A 
ATOM      2  C   UNL d   1      27.093 -16.313  -0.712  0.00  0.00     0.029 A 
ATOM      3  C   UNL d   1      26.661 -17.156   0.321  0.00  0.00     0.003 A 
ATOM      4  C   UNL d   1      25.435 -17.821   0.221  0.00  0.00     0.017 A 
ATOM      5  C   UNL d   1      24.647 -17.682  -0.928  0.00  0.00     0.034 A 
ATOM      6  C   UNL d   1      25.092 -16.841  -1.950  0.00  0.00     0.046 A 
ENDROOT
BRANCH   1   7
ATOM      7  N   UNL d   1      26.741 -15.350  -2.938  0.00  0.00    -0.326 N 
ATOM      8  C   UNL d   1      25.855 -14.576  -3.694  0.00  0.00     0.239 C 
ATOM      9  O   UNL d   1      24.649 -14.482  -3.453  0.00  0.00    -0.271 OA
ATOM     10  H   UNL d   1      27.741 -15.248  -3.069  0.00  0.00     0.169 HD
BRANCH   8  11
ATOM     11  C   UNL d   1      26.476 -13.806  -4.874  0.00  0.00     0.223 C 
BRANCH  11  12
ATOM     12  N   UNL d   1      27.044 -12.530  -4.412  0.00  0.00    -0.381 N 
ATOM     13  H   UNL d   1      27.659 -12.610  -3.600  0.00  0.00     0.160 HD
BRANCH  12  14
ATOM     14  C   UNL d   1      26.497 -11.293  -4.709  0.00  0.00     0.028 A 
ATOM     15  C   UNL d   1      25.859 -11.072  -5.940  0.00  0.00     0.030 A 
ATOM     16  C   UNL d   1      25.307  -9.818  -6.268  0.00  0.00     0.020 A 
ATOM     17  C   UNL d   1      25.308  -8.776  -5.333  0.00  0.00     0.039 A 
ATOM     18  C   UNL d   1      25.896  -8.994  -4.088  0.00  0.00     0.020 A 
ATOM     19  C   UNL d   1      26.473 -10.240  -3.786  0.00  0.00     0.030 A 
BRANCH  17  20
ATOM     20  C   UNL d   1      24.554  -7.528  -5.617  0.00  0.00     0.292 C 
ATOM     21  O   UNL d   1      25.090  -6.422  -5.620  0.00  0.00    -0.259 OA
BRANCH  20  22
ATOM     22  O   UNL d   1      23.243  -7.772  -5.861  0.00  0.00    -0.323 OA
ATOM     23  C   UNL d   1      22.342  -7.025  -5.026  0.00  0.00     0.213 C 
ENDBRANCH  20  22
ENDBRANCH  17  20
ENDBRANCH  12  14
ENDBRANCH  11  12
ENDBRANCH   8  11
ENDBRANCH   1   7
BRANCH   5  24
ATOM     24  C   UNL d   1      23.383 -18.474  -1.036  0.00  0.00     0.256 C 
ATOM     25  O   UNL d   1      23.215 -19.167  -2.038  0.00  0.00    -0.267 OA
ATOM     26  N   UNL d   1      22.433 -18.309  -0.034  0.00  0.00    -0.323 N 
ATOM     27  H   UNL d   1      22.534 -17.573   0.647  0.00  0.00     0.169 HD
BRANCH  26  28
ATOM     28  C   UNL d   1      21.180 -18.943  -0.059  0.00  0.00     0.035 A 
ATOM     29  C   UNL d   1      20.435 -18.937  -1.239  0.00  0.00     0.029 A 
ATOM     30  C   UNL d   1      19.175 -19.538  -1.273  0.00  0.00     0.003 A 
ATOM     31  C   UNL d   1      18.669 -20.155  -0.129  0.00  0.00     0.016 A 
ATOM     32  C   UNL d   1      19.394 -20.128   1.071  0.00  0.00     0.050 A 
ATOM     33  C   UNL d   1      20.657 -19.528   1.091  0.00  0.00     0.045 A 
BRANCH  32  34
ATOM     34  C   UNL d   1      18.805 -20.701   2.330  0.00  0.00     0.417 C 
ATOM     35  F   UNL d   1      18.320 -21.961   2.136  0.00  0.00    -0.166 F 
ATOM     36  F   UNL d   1      19.713 -20.801   3.336  0.00  0.00    -0.166 F 
ATOM     37  F   UNL d   1      17.763 -19.980   2.829  0.00  0.00    -0.166 F 
ENDBRANCH  32  34
ENDBRANCH  26  28
ENDBRANCH   5  24
TORSDOF 9
ENDMDL
MODEL 7
REMARK VINA RESULT:    -8.662      8.980     11.356
REMARK INTER + INTRA:         -12.447
REMARK INTER:                 -11.347
REMARK INTRA:                  -1.100
REMARK CONF_INDEPENDENT:        2.685
REMARK UNBOUND:                -1.100
REMARK  9 active torsions:
REMARK  status: ('A' for Active; 'I' for Inactive)
REMARK    1  A    between atoms: O_2  and  C_3 
REMARK    2  A    between atoms: C_3  and  C_5 
REMARK    3  A    between atoms: C_8  and  N_9 
REMARK    4  A    between atoms: N_9  and  C_10 
REMARK    5  A    between atoms: C_10  and  C_11 
REMARK       I    between atoms: C_11  and  N_13 
REMARK    6  A    between atoms: N_13  and  C_14 
REMARK    7  A    between atoms: C_18  and  C_19 
REMARK       I    between atoms: C_19  and  N_21 
REMARK    8  A    between atoms: N_21  and  C_22 
REMARK    9  A    between atoms: C_26  and  C_27 
ROOT
ATOM      1  C   UNL d   1      27.766 -14.563  -4.430  0.00  0.00     0.035 A 
ATOM      2  C   UNL d   1      28.319 -15.045  -5.619  0.00  0.00     0.029 A 
ATOM      3  C   UNL d   1      28.429 -14.199  -6.731  0.00  0.00     0.003 A 
ATOM      4  C   UNL d   1      27.967 -12.881  -6.661  0.00  0.00     0.017 A 
ATOM      5  C   UNL d   1      27.427 -12.383  -5.469  0.00  0.00     0.034 A 
ATOM      6  C   UNL d   1      27.328 -13.236  -4.369  0.00  0.00     0.046 A 
ENDROOT
BRANCH   1   7
ATOM      7  N   UNL d   1      27.691 -15.378  -3.274  0.00  0.00    -0.326 N 
ATOM      8  C   UNL d   1      26.470 -15.762  -2.711  0.00  0.00     0.239 C 
ATOM      9  O   UNL d   1      25.372 -15.478  -3.196  0.00  0.00    -0.271 OA
ATOM     10  H   UNL d   1      28.555 -15.789  -2.938  0.00  0.00     0.169 HD
BRANCH   8  11
ATOM     11  C   UNL d   1      26.559 -16.599  -1.421  0.00  0.00     0.223 C 
BRANCH  11  12
ATOM     12  N   UNL d   1      25.412 -16.315  -0.545  0.00  0.00    -0.381 N 
ATOM     13  H   UNL d   1      25.643 -15.780   0.294  0.00  0.00     0.160 HD
BRANCH  12  14
ATOM     14  C   UNL d   1      24.232 -17.039  -0.565  0.00  0.00     0.028 A 
ATOM     15  C   UNL d   1      23.016 -16.413  -0.880  0.00  0.00     0.030 A 
ATOM     16  C   UNL d   1      21.802 -17.128  -0.894  0.00  0.00     0.020 A 
ATOM     17  C   UNL d   1      21.790 -18.510  -0.671  0.00  0.00     0.039 A 
ATOM     18  C   UNL d   1      22.997 -19.155  -0.402  0.00  0.00     0.020 A 
ATOM     19  C   UNL d   1      24.196 -18.424  -0.359  0.00  0.00     0.030 A 
BRANCH  17  20
ATOM     20  C   UNL d   1      20.538 -19.282  -0.879  0.00  0.00     0.292 C 
ATOM     21  O   UNL d   1      20.198 -19.699  -1.984  0.00  0.00    -0.259 OA
BRANCH  20  22
ATOM     22  O   UNL d   1      19.850 -19.454   0.277  0.00  0.00    -0.323 OA
ATOM     23  C   UNL d   1      19.577 -20.828   0.597  0.00  0.00     0.213 C 
ENDBRANCH  20  22
ENDBRANCH  17  20
ENDBRANCH  12  14
ENDBRANCH  11  12
ENDBRANCH   8  11
ENDBRANCH   1   7
BRANCH   5  24
ATOM     24  C   UNL d   1      27.022 -10.945  -5.406  0.00  0.00     0.256 C 
ATOM     25  O   UNL d   1      27.889 -10.088  -5.567  0.00  0.00    -0.267 OA
ATOM     26  N   UNL d   1      25.700 -10.664  -5.079  0.00  0.00    -0.323 N 
ATOM     27  H   UNL d   1      25.089 -11.396  -4.751  0.00  0.00     0.169 HD
BRANCH  26  28
ATOM     28  C   UNL d   1      25.215  -9.356  -4.920  0.00  0.00     0.035 A 
ATOM     29  C   UNL d   1      24.365  -8.819  -5.888  0.00  0.00     0.029 A 
ATOM     30  C   UNL d   1      23.896  -7.510  -5.758  0.00  0.00     0.003 A 
ATOM     31  C   UNL d   1      24.269  -6.745  -4.654  0.00  0.00     0.016 A 
ATOM     32  C   UNL d   1      25.155  -7.263  -3.698  0.00  0.00     0.050 A 
ATOM     33  C   UNL d   1      25.614  -8.577  -3.836  0.00  0.00     0.045 A 
BRANCH  32  34
ATOM     34  C   UNL d   1      25.639  -6.404  -2.563  0.00  0.00     0.417 C 
ATOM     35  F   UNL d   1      25.180  -5.124  -2.663  0.00  0.00    -0.166 F 
ATOM     36  F   UNL d   1      25.224  -6.855  -1.350  0.00  0.00    -0.166 F 
ATOM     37  F   UNL d   1      26.995  -6.303  -2.487  0.00  0.00    -0.166 F 
ENDBRANCH  32  34
ENDBRANCH  26  28
ENDBRANCH   5  24
TORSDOF 9
ENDMDL
MODEL 8
REMARK VINA RESULT:    -8.560      7.510     10.769
REMARK INTER + INTRA:         -12.350
REMARK INTER:                 -11.244
REMARK INTRA:                  -1.106
REMARK CONF_INDEPENDENT:        2.685
REMARK UNBOUND:                -1.106
REMARK  9 active torsions:
REMARK  status: ('A' for Active; 'I' for Inactive)
REMARK    1  A    between atoms: O_2  and  C_3 
REMARK    2  A    between atoms: C_3  and  C_5 
REMARK    3  A    between atoms: C_8  and  N_9 
REMARK    4  A    between atoms: N_9  and  C_10 
REMARK    5  A    between atoms: C_10  and  C_11 
REMARK       I    between atoms: C_11  and  N_13 
REMARK    6  A    between atoms: N_13  and  C_14 
REMARK    7  A    between atoms: C_18  and  C_19 
REMARK       I    between atoms: C_19  and  N_21 
REMARK    8  A    between atoms: N_21  and  C_22 
REMARK    9  A    between atoms: C_26  and  C_27 
ROOT
ATOM      1  C   UNL d   1      26.286 -15.705   0.122  0.00  0.00     0.035 A 
ATOM      2  C   UNL d   1      27.379 -16.547   0.345  0.00  0.00     0.029 A 
ATOM      3  C   UNL d   1      27.214 -17.937   0.279  0.00  0.00     0.003 A 
ATOM      4  C   UNL d   1      25.956 -18.485   0.012  0.00  0.00     0.017 A 
ATOM      5  C   UNL d   1      24.858 -17.651  -0.231  0.00  0.00     0.034 A 
ATOM      6  C   UNL d   1      25.038 -16.268  -0.165  0.00  0.00     0.046 A 
ENDROOT
BRANCH   1   7
ATOM      7  N   UNL d   1      26.433 -14.296   0.129  0.00  0.00    -0.326 N 
ATOM      8  C   UNL d   1      27.641 -13.676   0.464  0.00  0.00     0.239 C 
ATOM      9  O   UNL d   1      28.680 -14.290   0.720  0.00  0.00    -0.271 OA
ATOM     10  H   UNL d   1      25.668 -13.746  -0.245  0.00  0.00     0.169 HD
BRANCH   8  11
ATOM     11  C   UNL d   1      27.622 -12.136   0.483  0.00  0.00     0.223 C 
BRANCH  11  12
ATOM     12  N   UNL d   1      27.309 -11.610  -0.856  0.00  0.00    -0.381 N 
ATOM     13  H   UNL d   1      26.858 -10.694  -0.855  0.00  0.00     0.160 HD
BRANCH  12  14
ATOM     14  C   UNL d   1      27.198 -12.403  -1.986  0.00  0.00     0.028 A 
ATOM     15  C   UNL d   1      28.339 -12.762  -2.719  0.00  0.00     0.030 A 
ATOM     16  C   UNL d   1      28.247 -13.557  -3.879  0.00  0.00     0.020 A 
ATOM     17  C   UNL d   1      27.014 -14.080  -4.285  0.00  0.00     0.039 A 
ATOM     18  C   UNL d   1      25.877 -13.770  -3.540  0.00  0.00     0.020 A 
ATOM     19  C   UNL d   1      25.978 -12.949  -2.404  0.00  0.00     0.030 A 
BRANCH  17  20
ATOM     20  C   UNL d   1      26.959 -15.070  -5.391  0.00  0.00     0.292 C 
ATOM     21  O   UNL d   1      25.904 -15.576  -5.770  0.00  0.00    -0.259 OA
BRANCH  20  22
ATOM     22  O   UNL d   1      28.188 -15.328  -5.903  0.00  0.00    -0.323 OA
ATOM     23  C   UNL d   1      28.562 -14.467  -6.992  0.00  0.00     0.213 C 
ENDBRANCH  20  22
ENDBRANCH  17  20
ENDBRANCH  12  14
ENDBRANCH  11  12
ENDBRANCH   8  11
ENDBRANCH   1   7
BRANCH   5  24
ATOM     24  C   UNL d   1      23.547 -18.270  -0.597  0.00  0.00     0.256 C 
ATOM     25  O   UNL d   1      23.306 -18.460  -1.787  0.00  0.00    -0.267 OA
ATOM     26  N   UNL d   1      22.642 -18.513   0.430  0.00  0.00    -0.323 N 
ATOM     27  H   UNL d   1      22.808 -18.143   1.354  0.00  0.00     0.169 HD
BRANCH  26  28
ATOM     28  C   UNL d   1      21.354 -19.025   0.207  0.00  0.00     0.035 A 
ATOM     29  C   UNL d   1      20.755 -18.847  -1.041  0.00  0.00     0.029 A 
ATOM     30  C   UNL d   1      19.463 -19.326  -1.270  0.00  0.00     0.003 A 
ATOM     31  C   UNL d   1      18.779 -19.993  -0.255  0.00  0.00     0.016 A 
ATOM     32  C   UNL d   1      19.359 -20.140   1.014  0.00  0.00     0.050 A 
ATOM     33  C   UNL d   1      20.655 -19.660   1.230  0.00  0.00     0.045 A 
BRANCH  32  34
ATOM     34  C   UNL d   1      18.582 -20.767   2.138  0.00  0.00     0.417 C 
ATOM     35  F   UNL d   1      17.496 -20.018   2.485  0.00  0.00    -0.166 F 
ATOM     36  F   UNL d   1      18.101 -21.998   1.822  0.00  0.00    -0.166 F 
ATOM     37  F   UNL d   1      19.301 -20.923   3.284  0.00  0.00    -0.166 F 
ENDBRANCH  32  34
ENDBRANCH  26  28
ENDBRANCH   5  24
TORSDOF 9
ENDMDL
MODEL 9
REMARK VINA RESULT:    -8.513      1.987      2.352
REMARK INTER + INTRA:         -12.476
REMARK INTER:                 -11.197
REMARK INTRA:                  -1.279
REMARK CONF_INDEPENDENT:        2.685
REMARK UNBOUND:                -1.279
REMARK  9 active torsions:
REMARK  status: ('A' for Active; 'I' for Inactive)
REMARK    1  A    between atoms: O_2  and  C_3 
REMARK    2  A    between atoms: C_3  and  C_5 
REMARK    3  A    between atoms: C_8  and  N_9 
REMARK    4  A    between atoms: N_9  and  C_10 
REMARK    5  A    between atoms: C_10  and  C_11 
REMARK       I    between atoms: C_11  and  N_13 
REMARK    6  A    between atoms: N_13  and  C_14 
REMARK    7  A    between atoms: C_18  and  C_19 
REMARK       I    between atoms: C_19  and  N_21 
REMARK    8  A    between atoms: N_21  and  C_22 
REMARK    9  A    between atoms: C_26  and  C_27 
ROOT
ATOM      1  C   UNL d   1      27.891 -13.945   2.601  0.00  0.00     0.035 A 
ATOM      2  C   UNL d   1      28.055 -12.721   1.948  0.00  0.00     0.029 A 
ATOM      3  C   UNL d   1      28.295 -11.559   2.693  0.00  0.00     0.003 A 
ATOM      4  C   UNL d   1      28.350 -11.617   4.089  0.00  0.00     0.017 A 
ATOM      5  C   UNL d   1      28.205 -12.841   4.753  0.00  0.00     0.034 A 
ATOM      6  C   UNL d   1      27.969 -13.991   3.996  0.00  0.00     0.046 A 
ENDROOT
BRANCH   1   7
ATOM      7  N   UNL d   1      27.700 -15.145   1.872  0.00  0.00    -0.326 N 
ATOM      8  C   UNL d   1      27.025 -15.172   0.647  0.00  0.00     0.239 C 
ATOM      9  O   UNL d   1      26.596 -14.165   0.078  0.00  0.00    -0.271 OA
ATOM     10  H   UNL d   1      28.185 -15.972   2.201  0.00  0.00     0.169 HD
BRANCH   8  11
ATOM     11  C   UNL d   1      26.849 -16.562   0.009  0.00  0.00     0.223 C 
BRANCH  11  12
ATOM     12  N   UNL d   1      25.761 -16.538  -0.982  0.00  0.00    -0.381 N 
ATOM     13  H   UNL d   1      25.792 -15.743  -1.623  0.00  0.00     0.160 HD
BRANCH  12  14
ATOM     14  C   UNL d   1      24.566 -17.220  -0.828  0.00  0.00     0.028 A 
ATOM     15  C   UNL d   1      23.342 -16.574  -1.056  0.00  0.00     0.030 A 
ATOM     16  C   UNL d   1      22.114 -17.246  -0.893  0.00  0.00     0.020 A 
ATOM     17  C   UNL d   1      22.087 -18.609  -0.576  0.00  0.00     0.039 A 
ATOM     18  C   UNL d   1      23.298 -19.277  -0.392  0.00  0.00     0.020 A 
ATOM     19  C   UNL d   1      24.514 -18.587  -0.525  0.00  0.00     0.030 A 
BRANCH  17  20
ATOM     20  C   UNL d   1      20.799 -19.348  -0.598  0.00  0.00     0.292 C 
ATOM     21  O   UNL d   1      20.258 -19.698  -1.645  0.00  0.00    -0.259 OA
BRANCH  20  22
ATOM     22  O   UNL d   1      20.323 -19.574   0.651  0.00  0.00    -0.323 OA
ATOM     23  C   UNL d   1      19.263 -20.543   0.708  0.00  0.00     0.213 C 
ENDBRANCH  20  22
ENDBRANCH  17  20
ENDBRANCH  12  14
ENDBRANCH  11  12
ENDBRANCH   8  11
ENDBRANCH   1   7
BRANCH   5  24
ATOM     24  C   UNL d   1      28.354 -12.878   6.240  0.00  0.00     0.256 C 
ATOM     25  O   UNL d   1      27.406 -12.508   6.930  0.00  0.00    -0.267 OA
ATOM     26  N   UNL d   1      29.593 -13.248   6.752  0.00  0.00    -0.323 N 
ATOM     27  H   UNL d   1      30.391 -13.335   6.143  0.00  0.00     0.169 HD
BRANCH  26  28
ATOM     28  C   UNL d   1      29.879 -13.254   8.127  0.00  0.00     0.035 A 
ATOM     29  C   UNL d   1      29.768 -14.447   8.843  0.00  0.00     0.029 A 
ATOM     30  C   UNL d   1      30.022 -14.464  10.216  0.00  0.00     0.003 A 
ATOM     31  C   UNL d   1      30.399 -13.291  10.868  0.00  0.00     0.016 A 
ATOM     32  C   UNL d   1      30.473 -12.080  10.163  0.00  0.00     0.050 A 
ATOM     33  C   UNL d   1      30.221 -12.077   8.787  0.00  0.00     0.045 A 
BRANCH  32  34
ATOM     34  C   UNL d   1      30.778 -10.796  10.883  0.00  0.00     0.417 C 
ATOM     35  F   UNL d   1      30.534  -9.705  10.102  0.00  0.00    -0.166 F 
ATOM     36  F   UNL d   1      30.023 -10.630  12.002  0.00  0.00    -0.166 F 
ATOM     37  F   UNL d   1      32.075 -10.682  11.280  0.00  0.00    -0.166 F 
ENDBRANCH  32  34
ENDBRANCH  26  28
ENDBRANCH   5  24
TORSDOF 9
ENDMDL
