MODEL 1
REMARK VINA RESULT:    -9.480      0.000      0.000
REMARK INTER + INTRA:         -14.442
REMARK INTER:                 -12.165
REMARK INTRA:                  -2.277
REMARK CONF_INDEPENDENT:        2.685
REMARK UNBOUND:                -2.277
REMARK  9 active torsions:
REMARK  status: ('A' for Active; 'I' for Inactive)
REMARK    1  A    between atoms: C_2  and  C_3 
REMARK       I    between atoms: C_2  and  N_11 
REMARK    2  A    between atoms: C_3  and  O_4 
REMARK    3  A    between atoms: O_4  and  C_5 
REMARK    4  A    between atoms: N_11  and  C_12 
REMARK    5  A    between atoms: C_15  and  C_16 
REMARK    6  A    between atoms: C_21  and  N_22 
REMARK       I    between atoms: N_22  and  C_23 
REMARK    7  A    between atoms: C_23  and  C_25 
REMARK    8  A    between atoms: C_25  and  O_26 
REMARK    9  A    between atoms: O_26  and  C_27 
ROOT
ATOM      1  C   UNL d   1      27.924 -13.942   2.330  0.00  0.00     0.139 C 
ATOM      2  N   UNL d   1      27.868 -12.824   3.027  0.00  0.00    -0.228 NA
ATOM      3  C   UNL d   1      28.022 -13.135   4.336  0.00  0.00     0.086 C 
ATOM      4  C   UNL d   1      27.837 -12.284   5.423  0.00  0.00     0.036 C 
ATOM      5  C   UNL d   1      28.144 -12.702   6.723  0.00  0.00     0.032 C 
ATOM      6  C   UNL d   1      28.654 -13.982   6.976  0.00  0.00     0.037 C 
ATOM      7  C   UNL d   1      28.812 -14.879   5.855  0.00  0.00     0.061 C 
ATOM      8  C   UNL d   1      28.388 -14.454   4.531  0.00  0.00     0.065 C 
ATOM      9  N   UNL d   1      28.105 -14.999   3.248  0.00  0.00    -0.338 N 
ATOM     10  H   UNL d   1      27.825 -15.954   3.064  0.00  0.00     0.167 HD
ENDROOT
BRANCH   1  11
ATOM     11  C   UNL d   1      27.799 -13.859   0.830  0.00  0.00     0.010 A 
ATOM     12  C   UNL d   1      27.117 -12.933   0.031  0.00  0.00     0.017 A 
ATOM     13  C   UNL d   1      27.061 -13.084  -1.398  0.00  0.00     0.030 A 
ATOM     14  C   UNL d   1      27.723 -14.132  -2.054  0.00  0.00     0.034 A 
ATOM     15  C   UNL d   1      28.508 -14.965  -1.279  0.00  0.00     0.030 A 
ATOM     16  C   UNL d   1      28.523 -14.843   0.116  0.00  0.00     0.017 A 
BRANCH  14  17
ATOM     17  N   UNL d   1      27.661 -14.290  -3.455  0.00  0.00    -0.325 N 
ATOM     18  C   UNL d   1      26.854 -15.138  -4.202  0.00  0.00     0.246 C 
ATOM     19  O   UNL d   1      27.030 -15.200  -5.417  0.00  0.00    -0.271 OA
ATOM     20  H   UNL d   1      28.260 -13.712  -4.035  0.00  0.00     0.169 HD
BRANCH  18  21
ATOM     21  C   UNL d   1      25.694 -15.870  -3.495  0.00  0.00     0.278 C 
BRANCH  21  22
ATOM     22  O   UNL d   1      25.442 -15.380  -2.182  0.00  0.00    -0.342 OA
BRANCH  22  23
ATOM     23  C   UNL d   1      24.923 -16.309  -1.316  0.00  0.00     0.069 A 
ATOM     24  C   UNL d   1      25.851 -17.050  -0.580  0.00  0.00     0.037 A 
ATOM     25  C   UNL d   1      25.434 -18.145   0.179  0.00  0.00     0.003 A 
ATOM     26  C   UNL d   1      24.080 -18.462   0.260  0.00  0.00     0.000 A 
ATOM     27  C   UNL d   1      23.146 -17.700  -0.441  0.00  0.00     0.003 A 
ATOM     28  C   UNL d   1      23.568 -16.631  -1.235  0.00  0.00     0.037 A 
ENDBRANCH  22  23
ENDBRANCH  21  22
ENDBRANCH  18  21
ENDBRANCH  14  17
ENDBRANCH   1  11
BRANCH   6  29
ATOM     29  N   UNL d   1      28.906 -14.282   8.379  0.00  0.00    -0.325 N 
ATOM     30  C   UNL d   1      28.642 -13.448   9.470  0.00  0.00     0.246 C 
ATOM     31  O   UNL d   1      28.072 -12.377   9.347  0.00  0.00    -0.271 OA
ATOM     32  H   UNL d   1      29.338 -15.182   8.570  0.00  0.00     0.169 HD
BRANCH  30  33
ATOM     33  C   UNL d   1      29.127 -13.933  10.890  0.00  0.00     0.278 C 
BRANCH  33  34
ATOM     34  O   UNL d   1      29.728 -15.228  10.706  0.00  0.00    -0.342 OA
BRANCH  34  35
ATOM     35  C   UNL d   1      31.085 -15.375  10.742  0.00  0.00     0.069 A 
ATOM     36  C   UNL d   1      31.599 -15.972  11.902  0.00  0.00     0.037 A 
ATOM     37  C   UNL d   1      32.979 -16.068  12.112  0.00  0.00     0.003 A 
ATOM     38  C   UNL d   1      33.859 -15.610  11.137  0.00  0.00     0.000 A 
ATOM     39  C   UNL d   1      33.356 -15.011   9.982  0.00  0.00     0.003 A 
ATOM     40  C   UNL d   1      31.973 -14.880   9.791  0.00  0.00     0.037 A 
ENDBRANCH  34  35
ENDBRANCH  33  34
ENDBRANCH  30  33
ENDBRANCH   6  29
TORSDOF 9
ENDMDL
MODEL 2
REMARK VINA RESULT:    -9.173      2.272      3.170
REMARK INTER + INTRA:         -14.151
REMARK INTER:                 -11.858
REMARK INTRA:                  -2.293
REMARK CONF_INDEPENDENT:        2.685
REMARK UNBOUND:                -2.293
REMARK  9 active torsions:
REMARK  status: ('A' for Active; 'I' for Inactive)
REMARK    1  A    between atoms: C_2  and  C_3 
REMARK       I    between atoms: C_2  and  N_11 
REMARK    2  A    between atoms: C_3  and  O_4 
REMARK    3  A    between atoms: O_4  and  C_5 
REMARK    4  A    between atoms: N_11  and  C_12 
REMARK    5  A    between atoms: C_15  and  C_16 
REMARK    6  A    between atoms: C_21  and  N_22 
REMARK       I    between atoms: N_22  and  C_23 
REMARK    7  A    between atoms: C_23  and  C_25 
REMARK    8  A    between atoms: C_25  and  O_26 
REMARK    9  A    between atoms: O_26  and  C_27 
ROOT
ATOM      1  C   UNL d   1      27.937 -14.258   3.207  0.00  0.00     0.139 C 
ATOM      2  N   UNL d   1      27.631 -13.086   3.730  0.00  0.00    -0.228 NA
ATOM      3  C   UNL d   1      28.024 -13.086   5.025  0.00  0.00     0.086 C 
ATOM      4  C   UNL d   1      27.723 -12.127   5.990  0.00  0.00     0.036 C 
ATOM      5  C   UNL d   1      28.292 -12.189   7.267  0.00  0.00     0.032 C 
ATOM      6  C   UNL d   1      29.189 -13.207   7.617  0.00  0.00     0.037 C 
ATOM      7  C   UNL d   1      29.475 -14.222   6.632  0.00  0.00     0.061 C 
ATOM      8  C   UNL d   1      28.789 -14.192   5.350  0.00  0.00     0.065 C 
ATOM      9  N   UNL d   1      28.534 -15.028   4.228  0.00  0.00    -0.338 N 
ATOM     10  H   UNL d   1      28.533 -16.039   4.238  0.00  0.00     0.167 HD
ENDROOT
BRANCH   1  11
ATOM     11  C   UNL d   1      27.616 -14.500   1.755  0.00  0.00     0.010 A 
ATOM     12  C   UNL d   1      27.760 -15.657   0.979  0.00  0.00     0.017 A 
ATOM     13  C   UNL d   1      27.462 -15.650  -0.428  0.00  0.00     0.030 A 
ATOM     14  C   UNL d   1      26.973 -14.504  -1.071  0.00  0.00     0.034 A 
ATOM     15  C   UNL d   1      26.701 -13.405  -0.279  0.00  0.00     0.030 A 
ATOM     16  C   UNL d   1      27.035 -13.400   1.081  0.00  0.00     0.017 A 
BRANCH  14  17
ATOM     17  N   UNL d   1      26.690 -14.490  -2.454  0.00  0.00    -0.325 N 
ATOM     18  C   UNL d   1      25.536 -14.895  -3.112  0.00  0.00     0.246 C 
ATOM     19  O   UNL d   1      25.530 -14.900  -4.341  0.00  0.00    -0.271 OA
ATOM     20  H   UNL d   1      27.395 -14.128  -3.088  0.00  0.00     0.169 HD
BRANCH  18  21
ATOM     21  C   UNL d   1      24.275 -15.198  -2.276  0.00  0.00     0.278 C 
BRANCH  21  22
ATOM     22  O   UNL d   1      24.561 -15.885  -1.062  0.00  0.00    -0.342 OA
BRANCH  22  23
ATOM     23  C   UNL d   1      23.748 -16.961  -0.809  0.00  0.00     0.069 A 
ATOM     24  C   UNL d   1      24.393 -18.180  -0.586  0.00  0.00     0.037 A 
ATOM     25  C   UNL d   1      23.655 -19.363  -0.513  0.00  0.00     0.003 A 
ATOM     26  C   UNL d   1      22.265 -19.324  -0.595  0.00  0.00     0.000 A 
ATOM     27  C   UNL d   1      21.615 -18.105  -0.779  0.00  0.00     0.003 A 
ATOM     28  C   UNL d   1      22.356 -16.925  -0.895  0.00  0.00     0.037 A 
ENDBRANCH  22  23
ENDBRANCH  21  22
ENDBRANCH  18  21
ENDBRANCH  14  17
ENDBRANCH   1  11
BRANCH   6  29
ATOM     29  N   UNL d   1      29.683 -13.152   8.986  0.00  0.00    -0.325 N 
ATOM     30  C   UNL d   1      28.913 -13.199  10.153  0.00  0.00     0.246 C 
ATOM     31  O   UNL d   1      27.708 -13.385  10.129  0.00  0.00    -0.271 OA
ATOM     32  H   UNL d   1      30.688 -13.046   9.093  0.00  0.00     0.169 HD
BRANCH  30  33
ATOM     33  C   UNL d   1      29.658 -12.985  11.526  0.00  0.00     0.278 C 
BRANCH  33  34
ATOM     34  O   UNL d   1      30.775 -12.116  11.263  0.00  0.00    -0.342 OA
BRANCH  34  35
ATOM     35  C   UNL d   1      30.595 -10.767  11.155  0.00  0.00     0.069 A 
ATOM     36  C   UNL d   1      30.465 -10.276   9.848  0.00  0.00     0.037 A 
ATOM     37  C   UNL d   1      30.396  -8.900   9.599  0.00  0.00     0.003 A 
ATOM     38  C   UNL d   1      30.407  -8.005  10.663  0.00  0.00     0.000 A 
ATOM     39  C   UNL d   1      30.540  -8.485  11.966  0.00  0.00     0.003 A 
ATOM     40  C   UNL d   1      30.649  -9.862  12.211  0.00  0.00     0.037 A 
ENDBRANCH  34  35
ENDBRANCH  33  34
ENDBRANCH  30  33
ENDBRANCH   6  29
TORSDOF 9
ENDMDL
MODEL 3
REMARK VINA RESULT:    -9.118      1.468      2.446
REMARK INTER + INTRA:         -14.050
REMARK INTER:                 -11.803
REMARK INTRA:                  -2.247
REMARK CONF_INDEPENDENT:        2.685
REMARK UNBOUND:                -2.247
REMARK  9 active torsions:
REMARK  status: ('A' for Active; 'I' for Inactive)
REMARK    1  A    between atoms: C_2  and  C_3 
REMARK       I    between atoms: C_2  and  N_11 
REMARK    2  A    between atoms: C_3  and  O_4 
REMARK    3  A    between atoms: O_4  and  C_5 
REMARK    4  A    between atoms: N_11  and  C_12 
REMARK    5  A    between atoms: C_15  and  C_16 
REMARK    6  A    between atoms: C_21  and  N_22 
REMARK       I    between atoms: N_22  and  C_23 
REMARK    7  A    between atoms: C_23  and  C_25 
REMARK    8  A    between atoms: C_25  and  O_26 
REMARK    9  A    between atoms: O_26  and  C_27 
ROOT
ATOM      1  C   UNL d   1      28.310 -13.732   2.550  0.00  0.00     0.139 C 
ATOM      2  N   UNL d   1      28.317 -12.672   3.334  0.00  0.00    -0.228 NA
ATOM      3  C   UNL d   1      28.770 -13.051   4.553  0.00  0.00     0.086 C 
ATOM      4  C   UNL d   1      28.755 -12.294   5.722  0.00  0.00     0.036 C 
ATOM      5  C   UNL d   1      29.363 -12.765   6.891  0.00  0.00     0.032 C 
ATOM      6  C   UNL d   1      30.012 -14.006   6.926  0.00  0.00     0.037 C 
ATOM      7  C   UNL d   1      29.997 -14.809   5.726  0.00  0.00     0.061 C 
ATOM      8  C   UNL d   1      29.270 -14.340   4.557  0.00  0.00     0.065 C 
ATOM      9  N   UNL d   1      28.763 -14.825   3.320  0.00  0.00    -0.338 N 
ATOM     10  H   UNL d   1      28.526 -15.787   3.119  0.00  0.00     0.167 HD
ENDROOT
BRANCH   1  11
ATOM     11  C   UNL d   1      27.863 -13.563   1.121  0.00  0.00     0.010 A 
ATOM     12  C   UNL d   1      27.478 -12.410   0.425  0.00  0.00     0.017 A 
ATOM     13  C   UNL d   1      27.007 -12.483  -0.931  0.00  0.00     0.030 A 
ATOM     14  C   UNL d   1      26.956 -13.699  -1.628  0.00  0.00     0.034 A 
ATOM     15  C   UNL d   1      27.465 -14.813  -0.989  0.00  0.00     0.030 A 
ATOM     16  C   UNL d   1      27.880 -14.747   0.347  0.00  0.00     0.017 A 
BRANCH  14  17
ATOM     17  N   UNL d   1      26.483 -13.776  -2.956  0.00  0.00    -0.325 N 
ATOM     18  C   UNL d   1      25.334 -14.390  -3.438  0.00  0.00     0.246 C 
ATOM     19  O   UNL d   1      25.155 -14.435  -4.653  0.00  0.00    -0.271 OA
ATOM     20  H   UNL d   1      27.018 -13.321  -3.688  0.00  0.00     0.169 HD
BRANCH  18  21
ATOM     21  C   UNL d   1      24.274 -14.875  -2.426  0.00  0.00     0.278 C 
BRANCH  21  22
ATOM     22  O   UNL d   1      24.842 -15.462  -1.260  0.00  0.00    -0.342 OA
BRANCH  22  23
ATOM     23  C   UNL d   1      24.166 -16.557  -0.784  0.00  0.00     0.069 A 
ATOM     24  C   UNL d   1      24.896 -17.745  -0.706  0.00  0.00     0.037 A 
ATOM     25  C   UNL d   1      24.251 -18.950  -0.421  0.00  0.00     0.003 A 
ATOM     26  C   UNL d   1      22.885 -18.961  -0.145  0.00  0.00     0.000 A 
ATOM     27  C   UNL d   1      22.161 -17.771  -0.183  0.00  0.00     0.003 A 
ATOM     28  C   UNL d   1      22.798 -16.571  -0.510  0.00  0.00     0.037 A 
ENDBRANCH  22  23
ENDBRANCH  21  22
ENDBRANCH  18  21
ENDBRANCH  14  17
ENDBRANCH   1  11
BRANCH   6  29
ATOM     29  N   UNL d   1      30.579 -14.372   8.217  0.00  0.00    -0.325 N 
ATOM     30  C   UNL d   1      31.622 -13.722   8.885  0.00  0.00     0.246 C 
ATOM     31  O   UNL d   1      32.117 -12.689   8.466  0.00  0.00    -0.271 OA
ATOM     32  H   UNL d   1      30.185 -15.200   8.657  0.00  0.00     0.169 HD
BRANCH  30  33
ATOM     33  C   UNL d   1      32.161 -14.382  10.211  0.00  0.00     0.278 C 
BRANCH  33  34
ATOM     34  O   UNL d   1      31.025 -14.964  10.879  0.00  0.00    -0.342 OA
BRANCH  34  35
ATOM     35  C   UNL d   1      29.877 -14.244  11.051  0.00  0.00     0.069 A 
ATOM     36  C   UNL d   1      28.714 -14.824  10.525  0.00  0.00     0.037 A 
ATOM     37  C   UNL d   1      27.498 -14.131  10.530  0.00  0.00     0.003 A 
ATOM     38  C   UNL d   1      27.426 -12.867  11.107  0.00  0.00     0.000 A 
ATOM     39  C   UNL d   1      28.580 -12.281  11.628  0.00  0.00     0.003 A 
ATOM     40  C   UNL d   1      29.806 -12.961  11.586  0.00  0.00     0.037 A 
ENDBRANCH  34  35
ENDBRANCH  33  34
ENDBRANCH  30  33
ENDBRANCH   6  29
TORSDOF 9
ENDMDL
MODEL 4
REMARK VINA RESULT:    -8.941      7.988     10.946
REMARK INTER + INTRA:         -13.404
REMARK INTER:                 -11.626
REMARK INTRA:                  -1.778
REMARK CONF_INDEPENDENT:        2.685
REMARK UNBOUND:                -1.778
REMARK  9 active torsions:
REMARK  status: ('A' for Active; 'I' for Inactive)
REMARK    1  A    between atoms: C_2  and  C_3 
REMARK       I    between atoms: C_2  and  N_11 
REMARK    2  A    between atoms: C_3  and  O_4 
REMARK    3  A    between atoms: O_4  and  C_5 
REMARK    4  A    between atoms: N_11  and  C_12 
REMARK    5  A    between atoms: C_15  and  C_16 
REMARK    6  A    between atoms: C_21  and  N_22 
REMARK       I    between atoms: N_22  and  C_23 
REMARK    7  A    between atoms: C_23  and  C_25 
REMARK    8  A    between atoms: C_25  and  O_26 
REMARK    9  A    between atoms: O_26  and  C_27 
ROOT
ATOM      1  C   UNL d   1      28.035 -14.723  -4.492  0.00  0.00     0.139 C 
ATOM      2  N   UNL d   1      28.581 -15.455  -3.541  0.00  0.00    -0.228 NA
ATOM      3  C   UNL d   1      27.601 -15.840  -2.689  0.00  0.00     0.086 C 
ATOM      4  C   UNL d   1      27.766 -16.458  -1.452  0.00  0.00     0.036 C 
ATOM      5  C   UNL d   1      26.660 -16.910  -0.722  0.00  0.00     0.032 C 
ATOM      6  C   UNL d   1      25.355 -16.764  -1.210  0.00  0.00     0.037 C 
ATOM      7  C   UNL d   1      25.179 -16.090  -2.475  0.00  0.00     0.061 C 
ATOM      8  C   UNL d   1      26.337 -15.540  -3.162  0.00  0.00     0.065 C 
ATOM      9  N   UNL d   1      26.655 -14.634  -4.211  0.00  0.00    -0.338 N 
ATOM     10  H   UNL d   1      26.067 -13.874  -4.530  0.00  0.00     0.167 HD
ENDROOT
BRANCH   1  11
ATOM     11  C   UNL d   1      28.925 -14.189  -5.585  0.00  0.00     0.010 A 
ATOM     12  C   UNL d   1      28.594 -13.619  -6.821  0.00  0.00     0.017 A 
ATOM     13  C   UNL d   1      29.614 -13.241  -7.762  0.00  0.00     0.030 A 
ATOM     14  C   UNL d   1      30.977 -13.382  -7.465  0.00  0.00     0.034 A 
ATOM     15  C   UNL d   1      31.304 -13.815  -6.194  0.00  0.00     0.030 A 
ATOM     16  C   UNL d   1      30.309 -14.225  -5.298  0.00  0.00     0.017 A 
BRANCH  14  17
ATOM     17  N   UNL d   1      31.981 -13.023  -8.390  0.00  0.00    -0.325 N 
ATOM     18  C   UNL d   1      32.921 -13.832  -9.015  0.00  0.00     0.246 C 
ATOM     19  O   UNL d   1      33.783 -13.303  -9.713  0.00  0.00    -0.271 OA
ATOM     20  H   UNL d   1      32.049 -12.053  -8.678  0.00  0.00     0.169 HD
BRANCH  18  21
ATOM     21  C   UNL d   1      32.769 -15.364  -8.906  0.00  0.00     0.278 C 
BRANCH  21  22
ATOM     22  O   UNL d   1      32.864 -15.842  -7.568  0.00  0.00    -0.342 OA
BRANCH  22  23
ATOM     23  C   UNL d   1      32.227 -17.035  -7.341  0.00  0.00     0.069 A 
ATOM     24  C   UNL d   1      31.018 -16.965  -6.645  0.00  0.00     0.037 A 
ATOM     25  C   UNL d   1      30.394 -18.131  -6.197  0.00  0.00     0.003 A 
ATOM     26  C   UNL d   1      30.942 -19.375  -6.502  0.00  0.00     0.000 A 
ATOM     27  C   UNL d   1      32.127 -19.451  -7.231  0.00  0.00     0.003 A 
ATOM     28  C   UNL d   1      32.775 -18.283  -7.642  0.00  0.00     0.037 A 
ENDBRANCH  22  23
ENDBRANCH  21  22
ENDBRANCH  18  21
ENDBRANCH  14  17
ENDBRANCH   1  11
BRANCH   6  29
ATOM     29  N   UNL d   1      24.306 -17.262  -0.331  0.00  0.00    -0.325 N 
ATOM     30  C   UNL d   1      23.315 -18.193  -0.659  0.00  0.00     0.246 C 
ATOM     31  O   UNL d   1      23.290 -18.763  -1.736  0.00  0.00    -0.271 OA
ATOM     32  H   UNL d   1      24.287 -16.869   0.606  0.00  0.00     0.169 HD
BRANCH  30  33
ATOM     33  C   UNL d   1      22.199 -18.478   0.418  0.00  0.00     0.278 C 
BRANCH  33  34
ATOM     34  O   UNL d   1      20.956 -18.619  -0.297  0.00  0.00    -0.342 OA
BRANCH  34  35
ATOM     35  C   UNL d   1      19.952 -19.397   0.204  0.00  0.00     0.069 A 
ATOM     36  C   UNL d   1      19.976 -19.598   1.592  0.00  0.00     0.037 A 
ATOM     37  C   UNL d   1      19.075 -20.472   2.209  0.00  0.00     0.003 A 
ATOM     38  C   UNL d   1      18.107 -21.117   1.446  0.00  0.00     0.000 A 
ATOM     39  C   UNL d   1      18.080 -20.927   0.064  0.00  0.00     0.003 A 
ATOM     40  C   UNL d   1      19.010 -20.081  -0.558  0.00  0.00     0.037 A 
ENDBRANCH  34  35
ENDBRANCH  33  34
ENDBRANCH  30  33
ENDBRANCH   6  29
TORSDOF 9
ENDMDL
MODEL 5
REMARK VINA RESULT:    -8.680      3.815     10.720
REMARK INTER + INTRA:         -13.814
REMARK INTER:                 -11.365
REMARK INTRA:                  -2.449
REMARK CONF_INDEPENDENT:        2.685
REMARK UNBOUND:                -2.449
REMARK  9 active torsions:
REMARK  status: ('A' for Active; 'I' for Inactive)
REMARK    1  A    between atoms: C_2  and  C_3 
REMARK       I    between atoms: C_2  and  N_11 
REMARK    2  A    between atoms: C_3  and  O_4 
REMARK    3  A    between atoms: O_4  and  C_5 
REMARK    4  A    between atoms: N_11  and  C_12 
REMARK    5  A    between atoms: C_15  and  C_16 
REMARK    6  A    between atoms: C_21  and  N_22 
REMARK       I    between atoms: N_22  and  C_23 
REMARK    7  A    between atoms: C_23  and  C_25 
REMARK    8  A    between atoms: C_25  and  O_26 
REMARK    9  A    between atoms: O_26  and  C_27 
ROOT
ATOM      1  C   UNL d   1      28.882 -14.741   0.969  0.00  0.00     0.139 C 
ATOM      2  N   UNL d   1      27.991 -14.096   0.242  0.00  0.00    -0.228 NA
ATOM      3  C   UNL d   1      27.075 -14.992  -0.196  0.00  0.00     0.086 C 
ATOM      4  C   UNL d   1      26.078 -14.772  -1.143  0.00  0.00     0.036 C 
ATOM      5  C   UNL d   1      25.120 -15.754  -1.421  0.00  0.00     0.032 C 
ATOM      6  C   UNL d   1      25.125 -16.985  -0.752  0.00  0.00     0.037 C 
ATOM      7  C   UNL d   1      26.179 -17.231   0.204  0.00  0.00     0.061 C 
ATOM      8  C   UNL d   1      27.219 -16.234   0.396  0.00  0.00     0.065 C 
ATOM      9  N   UNL d   1      28.514 -16.104   0.970  0.00  0.00    -0.338 N 
ATOM     10  H   UNL d   1      29.169 -16.860   1.119  0.00  0.00     0.167 HD
ENDROOT
BRANCH   1  11
ATOM     11  C   UNL d   1      30.004 -13.952   1.594  0.00  0.00     0.010 A 
ATOM     12  C   UNL d   1      31.275 -14.365   2.012  0.00  0.00     0.017 A 
ATOM     13  C   UNL d   1      32.176 -13.453   2.663  0.00  0.00     0.030 A 
ATOM     14  C   UNL d   1      31.841 -12.106   2.865  0.00  0.00     0.034 A 
ATOM     15  C   UNL d   1      30.644 -11.667   2.331  0.00  0.00     0.030 A 
ATOM     16  C   UNL d   1      29.750 -12.567   1.738  0.00  0.00     0.017 A 
BRANCH  14  17
ATOM     17  N   UNL d   1      32.718 -11.211   3.515  0.00  0.00    -0.325 N 
ATOM     18  C   UNL d   1      32.531 -10.513   4.701  0.00  0.00     0.246 C 
ATOM     19  O   UNL d   1      33.382  -9.696   5.044  0.00  0.00    -0.271 OA
ATOM     20  H   UNL d   1      33.627 -11.037   3.099  0.00  0.00     0.169 HD
BRANCH  18  21
ATOM     21  C   UNL d   1      31.330 -10.884   5.596  0.00  0.00     0.278 C 
BRANCH  21  22
ATOM     22  O   UNL d   1      31.256 -12.277   5.883  0.00  0.00    -0.342 OA
BRANCH  22  23
ATOM     23  C   UNL d   1      30.029 -12.844   5.648  0.00  0.00     0.069 A 
ATOM     24  C   UNL d   1      30.020 -14.224   5.432  0.00  0.00     0.037 A 
ATOM     25  C   UNL d   1      28.856 -14.860   4.995  0.00  0.00     0.003 A 
ATOM     26  C   UNL d   1      27.680 -14.131   4.837  0.00  0.00     0.000 A 
ATOM     27  C   UNL d   1      27.675 -12.760   5.089  0.00  0.00     0.003 A 
ATOM     28  C   UNL d   1      28.850 -12.115   5.485  0.00  0.00     0.037 A 
ENDBRANCH  22  23
ENDBRANCH  21  22
ENDBRANCH  18  21
ENDBRANCH  14  17
ENDBRANCH   1  11
BRANCH   6  29
ATOM     29  N   UNL d   1      24.081 -17.915  -1.161  0.00  0.00    -0.325 N 
ATOM     30  C   UNL d   1      22.702 -17.748  -0.993  0.00  0.00     0.246 C 
ATOM     31  O   UNL d   1      22.222 -16.721  -0.544  0.00  0.00    -0.271 OA
ATOM     32  H   UNL d   1      24.398 -18.780  -1.590  0.00  0.00     0.169 HD
BRANCH  30  33
ATOM     33  C   UNL d   1      21.768 -18.954  -1.392  0.00  0.00     0.278 C 
BRANCH  33  34
ATOM     34  O   UNL d   1      20.452 -18.645  -0.895  0.00  0.00    -0.342 OA
BRANCH  34  35
ATOM     35  C   UNL d   1      19.899 -19.385   0.110  0.00  0.00     0.069 A 
ATOM     36  C   UNL d   1      18.780 -20.152  -0.248  0.00  0.00     0.037 A 
ATOM     37  C   UNL d   1      18.052 -20.857   0.717  0.00  0.00     0.003 A 
ATOM     38  C   UNL d   1      18.468 -20.841   2.044  0.00  0.00     0.000 A 
ATOM     39  C   UNL d   1      19.577 -20.076   2.409  0.00  0.00     0.003 A 
ATOM     40  C   UNL d   1      20.281 -19.338   1.447  0.00  0.00     0.037 A 
ENDBRANCH  34  35
ENDBRANCH  33  34
ENDBRANCH  30  33
ENDBRANCH   6  29
TORSDOF 9
ENDMDL
MODEL 6
REMARK VINA RESULT:    -8.470      2.278      4.536
REMARK INTER + INTRA:         -13.397
REMARK INTER:                 -11.154
REMARK INTRA:                  -2.243
REMARK CONF_INDEPENDENT:        2.685
REMARK UNBOUND:                -2.243
REMARK  9 active torsions:
REMARK  status: ('A' for Active; 'I' for Inactive)
REMARK    1  A    between atoms: C_2  and  C_3 
REMARK       I    between atoms: C_2  and  N_11 
REMARK    2  A    between atoms: C_3  and  O_4 
REMARK    3  A    between atoms: O_4  and  C_5 
REMARK    4  A    between atoms: N_11  and  C_12 
REMARK    5  A    between atoms: C_15  and  C_16 
REMARK    6  A    between atoms: C_21  and  N_22 
REMARK       I    between atoms: N_22  and  C_23 
REMARK    7  A    between atoms: C_23  and  C_25 
REMARK    8  A    between atoms: C_25  and  O_26 
REMARK    9  A    between atoms: O_26  and  C_27 
ROOT
ATOM      1  C   UNL d   1      27.836 -14.287   2.156  0.00  0.00     0.139 C 
ATOM      2  N   UNL d   1      27.156 -13.733   3.141  0.00  0.00    -0.228 NA
ATOM      3  C   UNL d   1      27.874 -13.873   4.281  0.00  0.00     0.086 C 
ATOM      4  C   UNL d   1      27.443 -13.605   5.578  0.00  0.00     0.036 C 
ATOM      5  C   UNL d   1      28.328 -13.682   6.660  0.00  0.00     0.032 C 
ATOM      6  C   UNL d   1      29.675 -14.021   6.477  0.00  0.00     0.037 C 
ATOM      7  C   UNL d   1      30.116 -14.336   5.139  0.00  0.00     0.061 C 
ATOM      8  C   UNL d   1      29.152 -14.349   4.050  0.00  0.00     0.065 C 
ATOM      9  N   UNL d   1      29.025 -14.809   2.710  0.00  0.00    -0.338 N 
ATOM     10  H   UNL d   1      29.543 -15.575   2.301  0.00  0.00     0.167 HD
ENDROOT
BRANCH   1  11
ATOM     11  C   UNL d   1      27.251 -14.241   0.768  0.00  0.00     0.010 A 
ATOM     12  C   UNL d   1      27.020 -13.150  -0.079  0.00  0.00     0.017 A 
ATOM     13  C   UNL d   1      26.371 -13.322  -1.351  0.00  0.00     0.030 A 
ATOM     14  C   UNL d   1      25.988 -14.588  -1.817  0.00  0.00     0.034 A 
ATOM     15  C   UNL d   1      26.340 -15.678  -1.043  0.00  0.00     0.030 A 
ATOM     16  C   UNL d   1      26.929 -15.504   0.215  0.00  0.00     0.017 A 
BRANCH  14  17
ATOM     17  N   UNL d   1      25.341 -14.759  -3.060  0.00  0.00    -0.325 N 
ATOM     18  C   UNL d   1      25.902 -14.933  -4.318  0.00  0.00     0.246 C 
ATOM     19  O   UNL d   1      25.158 -14.958  -5.296  0.00  0.00    -0.271 OA
ATOM     20  H   UNL d   1      24.326 -14.780  -3.079  0.00  0.00     0.169 HD
BRANCH  18  21
ATOM     21  C   UNL d   1      27.417 -15.210  -4.422  0.00  0.00     0.278 C 
BRANCH  21  22
ATOM     22  O   UNL d   1      27.829 -15.574  -5.735  0.00  0.00    -0.342 OA
BRANCH  22  23
ATOM     23  C   UNL d   1      28.781 -14.752  -6.283  0.00  0.00     0.069 A 
ATOM     24  C   UNL d   1      28.329 -13.519  -6.759  0.00  0.00     0.037 A 
ATOM     25  C   UNL d   1      29.178 -12.698  -7.504  0.00  0.00     0.003 A 
ATOM     26  C   UNL d   1      30.502 -13.075  -7.718  0.00  0.00     0.000 A 
ATOM     27  C   UNL d   1      30.968 -14.287  -7.210  0.00  0.00     0.003 A 
ATOM     28  C   UNL d   1      30.107 -15.129  -6.501  0.00  0.00     0.037 A 
ENDBRANCH  22  23
ENDBRANCH  21  22
ENDBRANCH  18  21
ENDBRANCH  14  17
ENDBRANCH   1  11
BRANCH   6  29
ATOM     29  N   UNL d   1      30.469 -14.082   7.697  0.00  0.00    -0.325 N 
ATOM     30  C   UNL d   1      31.550 -13.259   8.030  0.00  0.00     0.246 C 
ATOM     31  O   UNL d   1      31.888 -12.316   7.334  0.00  0.00    -0.271 OA
ATOM     32  H   UNL d   1      30.218 -14.815   8.355  0.00  0.00     0.169 HD
BRANCH  30  33
ATOM     33  C   UNL d   1      32.346 -13.601   9.347  0.00  0.00     0.278 C 
BRANCH  33  34
ATOM     34  O   UNL d   1      31.474 -14.405  10.164  0.00  0.00    -0.342 OA
BRANCH  34  35
ATOM     35  C   UNL d   1      30.254 -13.932  10.552  0.00  0.00     0.069 A 
ATOM     36  C   UNL d   1      29.195 -14.848  10.474  0.00  0.00     0.037 A 
ATOM     37  C   UNL d   1      27.878 -14.451  10.727  0.00  0.00     0.003 A 
ATOM     38  C   UNL d   1      27.614 -13.140  11.110  0.00  0.00     0.000 A 
ATOM     39  C   UNL d   1      28.661 -12.221  11.185  0.00  0.00     0.003 A 
ATOM     40  C   UNL d   1      29.976 -12.612  10.892  0.00  0.00     0.037 A 
ENDBRANCH  34  35
ENDBRANCH  33  34
ENDBRANCH  30  33
ENDBRANCH   6  29
TORSDOF 9
ENDMDL
MODEL 7
REMARK VINA RESULT:    -8.306      1.795     12.345
REMARK INTER + INTRA:         -13.096
REMARK INTER:                 -10.991
REMARK INTRA:                  -2.106
REMARK CONF_INDEPENDENT:        2.685
REMARK UNBOUND:                -2.106
REMARK  9 active torsions:
REMARK  status: ('A' for Active; 'I' for Inactive)
REMARK    1  A    between atoms: C_2  and  C_3 
REMARK       I    between atoms: C_2  and  N_11 
REMARK    2  A    between atoms: C_3  and  O_4 
REMARK    3  A    between atoms: O_4  and  C_5 
REMARK    4  A    between atoms: N_11  and  C_12 
REMARK    5  A    between atoms: C_15  and  C_16 
REMARK    6  A    between atoms: C_21  and  N_22 
REMARK       I    between atoms: N_22  and  C_23 
REMARK    7  A    between atoms: C_23  and  C_25 
REMARK    8  A    between atoms: C_25  and  O_26 
REMARK    9  A    between atoms: O_26  and  C_27 
ROOT
ATOM      1  C   UNL d   1      28.226 -13.635   3.645  0.00  0.00     0.139 C 
ATOM      2  N   UNL d   1      27.834 -12.639   2.874  0.00  0.00    -0.228 NA
ATOM      3  C   UNL d   1      27.720 -13.105   1.608  0.00  0.00     0.086 C 
ATOM      4  C   UNL d   1      27.519 -12.349   0.455  0.00  0.00     0.036 C 
ATOM      5  C   UNL d   1      27.302 -12.969  -0.782  0.00  0.00     0.032 C 
ATOM      6  C   UNL d   1      27.269 -14.364  -0.902  0.00  0.00     0.037 C 
ATOM      7  C   UNL d   1      27.513 -15.150   0.285  0.00  0.00     0.061 C 
ATOM      8  C   UNL d   1      27.839 -14.481   1.534  0.00  0.00     0.065 C 
ATOM      9  N   UNL d   1      28.378 -14.769   2.818  0.00  0.00    -0.338 N 
ATOM     10  H   UNL d   1      28.991 -15.542   3.037  0.00  0.00     0.167 HD
ENDROOT
BRANCH   1  11
ATOM     11  C   UNL d   1      28.406 -13.372   5.117  0.00  0.00     0.010 A 
ATOM     12  C   UNL d   1      29.134 -14.085   6.079  0.00  0.00     0.017 A 
ATOM     13  C   UNL d   1      29.109 -13.700   7.465  0.00  0.00     0.030 A 
ATOM     14  C   UNL d   1      28.397 -12.574   7.903  0.00  0.00     0.034 A 
ATOM     15  C   UNL d   1      27.793 -11.794   6.936  0.00  0.00     0.030 A 
ATOM     16  C   UNL d   1      27.781 -12.196   5.595  0.00  0.00     0.017 A 
BRANCH  14  17
ATOM     17  N   UNL d   1      28.362 -12.201   9.264  0.00  0.00    -0.325 N 
ATOM     18  C   UNL d   1      28.143 -12.996  10.381  0.00  0.00     0.246 C 
ATOM     19  O   UNL d   1      28.045 -12.455  11.480  0.00  0.00    -0.271 OA
ATOM     20  H   UNL d   1      28.530 -11.229   9.504  0.00  0.00     0.169 HD
BRANCH  18  21
ATOM     21  C   UNL d   1      28.156 -14.530  10.212  0.00  0.00     0.278 C 
BRANCH  21  22
ATOM     22  O   UNL d   1      28.875 -15.200  11.242  0.00  0.00    -0.342 OA
BRANCH  22  23
ATOM     23  C   UNL d   1      30.212 -15.372  10.986  0.00  0.00     0.069 A 
ATOM     24  C   UNL d   1      31.019 -15.659  12.089  0.00  0.00     0.037 A 
ATOM     25  C   UNL d   1      32.409 -15.659  11.964  0.00  0.00     0.003 A 
ATOM     26  C   UNL d   1      32.997 -15.440  10.720  0.00  0.00     0.000 A 
ATOM     27  C   UNL d   1      32.194 -15.192   9.608  0.00  0.00     0.003 A 
ATOM     28  C   UNL d   1      30.804 -15.149   9.741  0.00  0.00     0.037 A 
ENDBRANCH  22  23
ENDBRANCH  21  22
ENDBRANCH  18  21
ENDBRANCH  14  17
ENDBRANCH   1  11
BRANCH   6  29
ATOM     29  N   UNL d   1      27.054 -14.864  -2.253  0.00  0.00    -0.325 N 
ATOM     30  C   UNL d   1      25.852 -14.842  -2.969  0.00  0.00     0.246 C 
ATOM     31  O   UNL d   1      24.849 -14.299  -2.539  0.00  0.00    -0.271 OA
ATOM     32  H   UNL d   1      27.859 -15.291  -2.703  0.00  0.00     0.169 HD
BRANCH  30  33
ATOM     33  C   UNL d   1      25.826 -15.567  -4.369  0.00  0.00     0.278 C 
BRANCH  33  34
ATOM     34  O   UNL d   1      27.183 -15.589  -4.853  0.00  0.00    -0.342 OA
BRANCH  34  35
ATOM     35  C   UNL d   1      27.681 -14.540  -5.571  0.00  0.00     0.069 A 
ATOM     36  C   UNL d   1      27.023 -13.315  -5.389  0.00  0.00     0.037 A 
ATOM     37  C   UNL d   1      27.361 -12.196  -6.158  0.00  0.00     0.003 A 
ATOM     38  C   UNL d   1      28.396 -12.280  -7.083  0.00  0.00     0.000 A 
ATOM     39  C   UNL d   1      29.052 -13.497  -7.273  0.00  0.00     0.003 A 
ATOM     40  C   UNL d   1      28.685 -14.628  -6.530  0.00  0.00     0.037 A 
ENDBRANCH  34  35
ENDBRANCH  33  34
ENDBRANCH  30  33
ENDBRANCH   6  29
TORSDOF 9
ENDMDL
MODEL 8
REMARK VINA RESULT:    -7.496      2.689      4.063
REMARK INTER + INTRA:         -13.169
REMARK INTER:                 -10.181
REMARK INTRA:                  -2.988
REMARK CONF_INDEPENDENT:        2.685
REMARK UNBOUND:                -2.988
REMARK  9 active torsions:
REMARK  status: ('A' for Active; 'I' for Inactive)
REMARK    1  A    between atoms: C_2  and  C_3 
REMARK       I    between atoms: C_2  and  N_11 
REMARK    2  A    between atoms: C_3  and  O_4 
REMARK    3  A    between atoms: O_4  and  C_5 
REMARK    4  A    between atoms: N_11  and  C_12 
REMARK    5  A    between atoms: C_15  and  C_16 
REMARK    6  A    between atoms: C_21  and  N_22 
REMARK       I    between atoms: N_22  and  C_23 
REMARK    7  A    between atoms: C_23  and  C_25 
REMARK    8  A    between atoms: C_25  and  O_26 
REMARK    9  A    between atoms: O_26  and  C_27 
ROOT
ATOM      1  C   UNL d   1      28.993 -14.963   0.076  0.00  0.00     0.139 C 
ATOM      2  N   UNL d   1      27.956 -14.181   0.307  0.00  0.00    -0.228 NA
ATOM      3  C   UNL d   1      27.920 -13.907   1.632  0.00  0.00     0.086 C 
ATOM      4  C   UNL d   1      26.889 -13.281   2.328  0.00  0.00     0.036 C 
ATOM      5  C   UNL d   1      27.030 -12.954   3.682  0.00  0.00     0.032 C 
ATOM      6  C   UNL d   1      28.211 -13.236   4.380  0.00  0.00     0.037 C 
ATOM      7  C   UNL d   1      29.268 -13.918   3.672  0.00  0.00     0.061 C 
ATOM      8  C   UNL d   1      29.054 -14.338   2.296  0.00  0.00     0.065 C 
ATOM      9  N   UNL d   1      29.622 -15.200   1.318  0.00  0.00    -0.338 N 
ATOM     10  H   UNL d   1      30.187 -16.016   1.511  0.00  0.00     0.167 HD
ENDROOT
BRANCH   1  11
ATOM     11  C   UNL d   1      29.264 -15.393  -1.342  0.00  0.00     0.010 A 
ATOM     12  C   UNL d   1      28.895 -16.564  -2.017  0.00  0.00     0.017 A 
ATOM     13  C   UNL d   1      29.330 -16.813  -3.365  0.00  0.00     0.030 A 
ATOM     14  C   UNL d   1      30.099 -15.879  -4.074  0.00  0.00     0.034 A 
ATOM     15  C   UNL d   1      30.346 -14.667  -3.458  0.00  0.00     0.030 A 
ATOM     16  C   UNL d   1      29.961 -14.446  -2.130  0.00  0.00     0.017 A 
BRANCH  14  17
ATOM     17  N   UNL d   1      30.537 -16.125  -5.394  0.00  0.00    -0.325 N 
ATOM     18  C   UNL d   1      29.969 -15.714  -6.592  0.00  0.00     0.246 C 
ATOM     19  O   UNL d   1      30.450 -16.126  -7.645  0.00  0.00    -0.271 OA
ATOM     20  H   UNL d   1      31.389 -16.659  -5.529  0.00  0.00     0.169 HD
BRANCH  18  21
ATOM     21  C   UNL d   1      28.840 -14.661  -6.554  0.00  0.00     0.278 C 
BRANCH  21  22
ATOM     22  O   UNL d   1      27.588 -15.200  -6.145  0.00  0.00    -0.342 OA
BRANCH  22  23
ATOM     23  C   UNL d   1      27.021 -14.571  -5.065  0.00  0.00     0.069 A 
ATOM     24  C   UNL d   1      26.256 -15.375  -4.217  0.00  0.00     0.037 A 
ATOM     25  C   UNL d   1      25.484 -14.798  -3.207  0.00  0.00     0.003 A 
ATOM     26  C   UNL d   1      25.526 -13.420  -2.998  0.00  0.00     0.000 A 
ATOM     27  C   UNL d   1      26.319 -12.619  -3.818  0.00  0.00     0.003 A 
ATOM     28  C   UNL d   1      27.058 -13.192  -4.856  0.00  0.00     0.037 A 
ENDBRANCH  22  23
ENDBRANCH  21  22
ENDBRANCH  18  21
ENDBRANCH  14  17
ENDBRANCH   1  11
BRANCH   6  29
ATOM     29  N   UNL d   1      28.203 -12.857   5.787  0.00  0.00    -0.325 N 
ATOM     30  C   UNL d   1      28.570 -11.616   6.318  0.00  0.00     0.246 C 
ATOM     31  O   UNL d   1      28.861 -10.666   5.611  0.00  0.00    -0.271 OA
ATOM     32  H   UNL d   1      27.925 -13.583   6.442  0.00  0.00     0.169 HD
BRANCH  30  33
ATOM     33  C   UNL d   1      28.612 -11.481   7.889  0.00  0.00     0.278 C 
BRANCH  33  34
ATOM     34  O   UNL d   1      27.913 -12.620   8.425  0.00  0.00    -0.342 OA
BRANCH  34  35
ATOM     35  C   UNL d   1      28.370 -13.250   9.547  0.00  0.00     0.069 A 
ATOM     36  C   UNL d   1      29.250 -14.320   9.325  0.00  0.00     0.037 A 
ATOM     37  C   UNL d   1      29.692 -15.120  10.385  0.00  0.00     0.003 A 
ATOM     38  C   UNL d   1      29.295 -14.825  11.685  0.00  0.00     0.000 A 
ATOM     39  C   UNL d   1      28.416 -13.765  11.913  0.00  0.00     0.003 A 
ATOM     40  C   UNL d   1      27.943 -12.989  10.845  0.00  0.00     0.037 A 
ENDBRANCH  34  35
ENDBRANCH  33  34
ENDBRANCH  30  33
ENDBRANCH   6  29
TORSDOF 9
ENDMDL
MODEL 9
REMARK VINA RESULT:    -7.313      1.870      2.775
REMARK INTER + INTRA:         -13.071
REMARK INTER:                  -9.998
REMARK INTRA:                  -3.073
REMARK CONF_INDEPENDENT:        2.685
REMARK UNBOUND:                -3.073
REMARK  9 active torsions:
REMARK  status: ('A' for Active; 'I' for Inactive)
REMARK    1  A    between atoms: C_2  and  C_3 
REMARK       I    between atoms: C_2  and  N_11 
REMARK    2  A    between atoms: C_3  and  O_4 
REMARK    3  A    between atoms: O_4  and  C_5 
REMARK    4  A    between atoms: N_11  and  C_12 
REMARK    5  A    between atoms: C_15  and  C_16 
REMARK    6  A    between atoms: C_21  and  N_22 
REMARK       I    between atoms: N_22  and  C_23 
REMARK    7  A    between atoms: C_23  and  C_25 
REMARK    8  A    between atoms: C_25  and  O_26 
REMARK    9  A    between atoms: O_26  and  C_27 
ROOT
ATOM      1  C   UNL d   1      29.076 -14.271   1.382  0.00  0.00     0.139 C 
ATOM      2  N   UNL d   1      28.199 -14.692   2.272  0.00  0.00    -0.228 NA
ATOM      3  C   UNL d   1      28.565 -14.214   3.484  0.00  0.00     0.086 C 
ATOM      4  C   UNL d   1      28.030 -14.572   4.719  0.00  0.00     0.036 C 
ATOM      5  C   UNL d   1      28.421 -13.913   5.891  0.00  0.00     0.032 C 
ATOM      6  C   UNL d   1      29.354 -12.868   5.862  0.00  0.00     0.037 C 
ATOM      7  C   UNL d   1      29.938 -12.519   4.588  0.00  0.00     0.061 C 
ATOM      8  C   UNL d   1      29.590 -13.289   3.405  0.00  0.00     0.065 C 
ATOM      9  N   UNL d   1      30.042 -13.509   2.074  0.00  0.00    -0.338 N 
ATOM     10  H   UNL d   1      30.989 -13.375   1.746  0.00  0.00     0.167 HD
ENDROOT
BRANCH   1  11
ATOM     11  C   UNL d   1      28.874 -14.656  -0.061  0.00  0.00     0.010 A 
ATOM     12  C   UNL d   1      28.783 -15.921  -0.654  0.00  0.00     0.017 A 
ATOM     13  C   UNL d   1      28.666 -16.067  -2.080  0.00  0.00     0.030 A 
ATOM     14  C   UNL d   1      28.590 -14.954  -2.930  0.00  0.00     0.034 A 
ATOM     15  C   UNL d   1      28.541 -13.708  -2.334  0.00  0.00     0.030 A 
ATOM     16  C   UNL d   1      28.702 -13.568  -0.950  0.00  0.00     0.017 A 
BRANCH  14  17
ATOM     17  N   UNL d   1      28.487 -15.093  -4.331  0.00  0.00    -0.325 N 
ATOM     18  C   UNL d   1      27.373 -14.925  -5.144  0.00  0.00     0.246 C 
ATOM     19  O   UNL d   1      27.469 -15.199  -6.338  0.00  0.00    -0.271 OA
ATOM     20  H   UNL d   1      29.321 -15.334  -4.856  0.00  0.00     0.169 HD
BRANCH  18  21
ATOM     21  C   UNL d   1      26.105 -14.284  -4.540  0.00  0.00     0.278 C 
BRANCH  21  22
ATOM     22  O   UNL d   1      25.156 -15.244  -4.088  0.00  0.00    -0.342 OA
BRANCH  22  23
ATOM     23  C   UNL d   1      25.322 -15.642  -2.785  0.00  0.00     0.069 A 
ATOM     24  C   UNL d   1      25.072 -16.989  -2.516  0.00  0.00     0.037 A 
ATOM     25  C   UNL d   1      25.024 -17.447  -1.198  0.00  0.00     0.003 A 
ATOM     26  C   UNL d   1      25.294 -16.573  -0.146  0.00  0.00     0.000 A 
ATOM     27  C   UNL d   1      25.584 -15.236  -0.413  0.00  0.00     0.003 A 
ATOM     28  C   UNL d   1      25.589 -14.768  -1.730  0.00  0.00     0.037 A 
ENDBRANCH  22  23
ENDBRANCH  21  22
ENDBRANCH  18  21
ENDBRANCH  14  17
ENDBRANCH   1  11
BRANCH   6  29
ATOM     29  N   UNL d   1      29.679 -12.292   7.160  0.00  0.00    -0.325 N 
ATOM     30  C   UNL d   1      29.303 -11.029   7.630  0.00  0.00     0.246 C 
ATOM     31  O   UNL d   1      28.563 -10.295   6.998  0.00  0.00    -0.271 OA
ATOM     32  H   UNL d   1      30.257 -12.865   7.769  0.00  0.00     0.169 HD
BRANCH  30  33
ATOM     33  C   UNL d   1      29.889 -10.566   9.018  0.00  0.00     0.278 C 
BRANCH  33  34
ATOM     34  O   UNL d   1      30.544 -11.710   9.598  0.00  0.00    -0.342 OA
BRANCH  34  35
ATOM     35  C   UNL d   1      29.825 -12.656  10.269  0.00  0.00     0.069 A 
ATOM     36  C   UNL d   1      30.550 -13.775  10.702  0.00  0.00     0.037 A 
ATOM     37  C   UNL d   1      29.905 -14.867  11.294  0.00  0.00     0.003 A 
ATOM     38  C   UNL d   1      28.531 -14.825  11.504  0.00  0.00     0.000 A 
ATOM     39  C   UNL d   1      27.801 -13.717  11.072  0.00  0.00     0.003 A 
ATOM     40  C   UNL d   1      28.444 -12.641  10.443  0.00  0.00     0.037 A 
ENDBRANCH  34  35
ENDBRANCH  33  34
ENDBRANCH  30  33
ENDBRANCH   6  29
TORSDOF 9
ENDMDL
