MODEL 1
REMARK VINA RESULT:    -8.057      0.000      0.000
REMARK INTER + INTRA:         -11.335
REMARK INTER:                  -9.846
REMARK INTRA:                  -1.489
REMARK CONF_INDEPENDENT:        1.790
REMARK UNBOUND:                -1.489
REMARK  6 active torsions:
REMARK  status: ('A' for Active; 'I' for Inactive)
REMARK    1  A    between atoms: C_2  and  C_3 
REMARK    2  A    between atoms: C_6  and  C_7 
REMARK       I    between atoms: C_7  and  N_9 
REMARK    3  A    between atoms: N_9  and  N_10 
REMARK       I    between atoms: N_10  and  C_11 
REMARK    4  A    between atoms: C_11  and  C_13 
REMARK    5  A    between atoms: C_14  and  C_15 
REMARK    6  A    between atoms: C_18  and  N_19 
ROOT
ATOM      1  N   UNL d   1      24.472 -16.029  -2.283  0.00  0.00    -0.264 N 
ATOM      2  C   UNL d   1      24.780 -17.072  -1.425  0.00  0.00     0.259 C 
ATOM      3  O   UNL d   1      25.915 -17.544  -1.337  0.00  0.00    -0.267 OA
ATOM      4  H   UNL d   1      23.548 -15.614  -2.396  0.00  0.00     0.190 HD
ENDROOT
BRANCH   1   5
ATOM      5  N   UNL d   1      25.516 -15.453  -3.066  0.00  0.00    -0.263 N 
ATOM      6  C   UNL d   1      25.231 -14.483  -4.022  0.00  0.00     0.270 C 
ATOM      7  O   UNL d   1      24.079 -14.074  -4.206  0.00  0.00    -0.266 OA
ATOM      8  H   UNL d   1      26.440 -15.837  -2.892  0.00  0.00     0.190 HD
BRANCH   6   9
ATOM      9  C   UNL d   1      26.365 -13.951  -4.868  0.00  0.00     0.033 A 
ATOM     10  C   UNL d   1      27.317 -14.851  -5.386  0.00  0.00     0.017 A 
ATOM     11  C   UNL d   1      28.442 -14.395  -6.092  0.00  0.00     0.008 A 
ATOM     12  C   UNL d   1      28.584 -13.036  -6.390  0.00  0.00    -0.059 A 
ATOM     13  C   UNL d   1      27.641 -12.136  -5.884  0.00  0.00     0.008 A 
ATOM     14  C   UNL d   1      26.543 -12.588  -5.136  0.00  0.00     0.017 A 
BRANCH  12  15
ATOM     15  C   UNL d   1      29.619 -12.572  -7.389  0.00  0.00     0.034 C 
ATOM     16  C   UNL d   1      28.965 -12.463  -8.764  0.00  0.00     0.010 C 
ENDBRANCH  12  15
ENDBRANCH   6   9
ENDBRANCH   1   5
BRANCH   2  17
ATOM     17  C   UNL d   1      23.635 -17.601  -0.612  0.00  0.00     0.076 C 
ATOM     18  C   UNL d   1      22.661 -18.354  -1.167  0.00  0.00     0.017 C 
BRANCH  18  19
ATOM     19  C   UNL d   1      21.438 -18.832  -0.476  0.00  0.00    -0.036 A 
ATOM     20  C   UNL d   1      21.393 -18.950   0.926  0.00  0.00     0.014 A 
ATOM     21  C   UNL d   1      20.317 -19.589   1.569  0.00  0.00     0.037 A 
ATOM     22  C   UNL d   1      19.234 -20.051   0.810  0.00  0.00     0.102 A 
ATOM     23  C   UNL d   1      19.253 -19.928  -0.582  0.00  0.00     0.037 A 
ATOM     24  C   UNL d   1      20.351 -19.327  -1.214  0.00  0.00     0.014 A 
BRANCH  22  25
ATOM     25  N   UNL d   1      18.053 -20.621   1.475  0.00  0.00    -0.116 N 
ATOM     26  O   UNL d   1      17.660 -20.082   2.519  0.00  0.00    -0.532 OA
ATOM     27  O   UNL d   1      17.503 -21.595   0.938  0.00  0.00    -0.532 OA
ENDBRANCH  22  25
ENDBRANCH  18  19
ENDBRANCH   2  17
TORSDOF 6
ENDMDL
MODEL 2
REMARK VINA RESULT:    -7.470      0.677      1.251
REMARK INTER + INTRA:         -10.760
REMARK INTER:                  -9.260
REMARK INTRA:                  -1.501
REMARK CONF_INDEPENDENT:        1.790
REMARK UNBOUND:                -1.501
REMARK  6 active torsions:
REMARK  status: ('A' for Active; 'I' for Inactive)
REMARK    1  A    between atoms: C_2  and  C_3 
REMARK    2  A    between atoms: C_6  and  C_7 
REMARK       I    between atoms: C_7  and  N_9 
REMARK    3  A    between atoms: N_9  and  N_10 
REMARK       I    between atoms: N_10  and  C_11 
REMARK    4  A    between atoms: C_11  and  C_13 
REMARK    5  A    between atoms: C_14  and  C_15 
REMARK    6  A    between atoms: C_18  and  N_19 
ROOT
ATOM      1  N   UNL d   1      24.453 -16.080  -2.023  0.00  0.00    -0.264 N 
ATOM      2  C   UNL d   1      24.921 -17.139  -1.261  0.00  0.00     0.259 C 
ATOM      3  O   UNL d   1      26.122 -17.397  -1.154  0.00  0.00    -0.267 OA
ATOM      4  H   UNL d   1      23.473 -15.835  -2.149  0.00  0.00     0.190 HD
ENDROOT
BRANCH   1   5
ATOM      5  N   UNL d   1      25.397 -15.233  -2.674  0.00  0.00    -0.263 N 
ATOM      6  C   UNL d   1      24.972 -14.256  -3.569  0.00  0.00     0.270 C 
ATOM      7  O   UNL d   1      23.773 -14.075  -3.808  0.00  0.00    -0.266 OA
ATOM      8  H   UNL d   1      26.370 -15.436  -2.462  0.00  0.00     0.190 HD
BRANCH   6   9
ATOM      9  C   UNL d   1      26.018 -13.427  -4.281  0.00  0.00     0.033 A 
ATOM     10  C   UNL d   1      27.294 -13.977  -4.507  0.00  0.00     0.017 A 
ATOM     11  C   UNL d   1      28.328 -13.213  -5.072  0.00  0.00     0.008 A 
ATOM     12  C   UNL d   1      28.076 -11.913  -5.525  0.00  0.00    -0.059 A 
ATOM     13  C   UNL d   1      26.810 -11.361  -5.310  0.00  0.00     0.008 A 
ATOM     14  C   UNL d   1      25.791 -12.110  -4.699  0.00  0.00     0.017 A 
BRANCH  12  15
ATOM     15  C   UNL d   1      29.082 -11.194  -6.393  0.00  0.00     0.034 C 
ATOM     16  C   UNL d   1      29.371 -12.045  -7.627  0.00  0.00     0.010 C 
ENDBRANCH  12  15
ENDBRANCH   6   9
ENDBRANCH   1   5
BRANCH   2  17
ATOM     17  C   UNL d   1      23.868 -17.963  -0.581  0.00  0.00     0.076 C 
ATOM     18  C   UNL d   1      22.656 -18.165  -1.141  0.00  0.00     0.017 C 
BRANCH  18  19
ATOM     19  C   UNL d   1      21.515 -18.869  -0.504  0.00  0.00    -0.036 A 
ATOM     20  C   UNL d   1      20.428 -19.332  -1.269  0.00  0.00     0.014 A 
ATOM     21  C   UNL d   1      19.259 -19.815  -0.653  0.00  0.00     0.037 A 
ATOM     22  C   UNL d   1      19.201 -19.909   0.743  0.00  0.00     0.102 A 
ATOM     23  C   UNL d   1      20.277 -19.469   1.519  0.00  0.00     0.037 A 
ATOM     24  C   UNL d   1      21.420 -18.950   0.894  0.00  0.00     0.014 A 
BRANCH  22  25
ATOM     25  N   UNL d   1      18.030 -20.513   1.397  0.00  0.00    -0.116 N 
ATOM     26  O   UNL d   1      17.662 -20.036   2.480  0.00  0.00    -0.532 OA
ATOM     27  O   UNL d   1      17.463 -21.450   0.814  0.00  0.00    -0.532 OA
ENDBRANCH  22  25
ENDBRANCH  18  19
ENDBRANCH   2  17
TORSDOF 6
ENDMDL
MODEL 3
REMARK VINA RESULT:    -7.453      8.528     11.930
REMARK INTER + INTRA:          -9.902
REMARK INTER:                  -9.243
REMARK INTRA:                  -0.660
REMARK CONF_INDEPENDENT:        1.790
REMARK UNBOUND:                -0.660
REMARK  6 active torsions:
REMARK  status: ('A' for Active; 'I' for Inactive)
REMARK    1  A    between atoms: C_2  and  C_3 
REMARK    2  A    between atoms: C_6  and  C_7 
REMARK       I    between atoms: C_7  and  N_9 
REMARK    3  A    between atoms: N_9  and  N_10 
REMARK       I    between atoms: N_10  and  C_11 
REMARK    4  A    between atoms: C_11  and  C_13 
REMARK    5  A    between atoms: C_14  and  C_15 
REMARK    6  A    between atoms: C_18  and  N_19 
ROOT
ATOM      1  N   UNL d   1      28.553 -15.192   4.372  0.00  0.00    -0.264 N 
ATOM      2  C   UNL d   1      27.731 -14.442   3.545  0.00  0.00     0.259 C 
ATOM      3  O   UNL d   1      26.980 -13.565   3.977  0.00  0.00    -0.267 OA
ATOM      4  H   UNL d   1      29.180 -15.931   4.061  0.00  0.00     0.190 HD
ENDROOT
BRANCH   1   5
ATOM      5  N   UNL d   1      28.560 -14.910   5.770  0.00  0.00    -0.263 N 
ATOM      6  C   UNL d   1      28.801 -13.620   6.231  0.00  0.00     0.270 C 
ATOM      7  O   UNL d   1      28.991 -12.679   5.451  0.00  0.00    -0.266 OA
ATOM      8  H   UNL d   1      28.421 -15.719   6.368  0.00  0.00     0.190 HD
BRANCH   6   9
ATOM      9  C   UNL d   1      28.861 -13.388   7.724  0.00  0.00     0.033 A 
ATOM     10  C   UNL d   1      29.233 -14.450   8.570  0.00  0.00     0.017 A 
ATOM     11  C   UNL d   1      29.206 -14.312   9.967  0.00  0.00     0.008 A 
ATOM     12  C   UNL d   1      28.911 -13.074  10.548  0.00  0.00    -0.059 A 
ATOM     13  C   UNL d   1      28.546 -12.012   9.714  0.00  0.00     0.008 A 
ATOM     14  C   UNL d   1      28.525 -12.166   8.319  0.00  0.00     0.017 A 
BRANCH  12  15
ATOM     15  C   UNL d   1      29.164 -12.835  12.018  0.00  0.00     0.034 C 
ATOM     16  C   UNL d   1      30.000 -11.568  12.177  0.00  0.00     0.010 C 
ENDBRANCH  12  15
ENDBRANCH   6   9
ENDBRANCH   1   5
BRANCH   2  17
ATOM     17  C   UNL d   1      27.805 -14.775   2.083  0.00  0.00     0.076 C 
ATOM     18  C   UNL d   1      26.995 -14.181   1.181  0.00  0.00     0.017 C 
BRANCH  18  19
ATOM     19  C   UNL d   1      26.915 -14.517  -0.262  0.00  0.00    -0.036 A 
ATOM     20  C   UNL d   1      27.453 -13.658  -1.240  0.00  0.00     0.014 A 
ATOM     21  C   UNL d   1      27.204 -13.868  -2.609  0.00  0.00     0.037 A 
ATOM     22  C   UNL d   1      26.473 -14.991  -3.015  0.00  0.00     0.102 A 
ATOM     23  C   UNL d   1      25.945 -15.864  -2.059  0.00  0.00     0.037 A 
ATOM     24  C   UNL d   1      26.164 -15.621  -0.696  0.00  0.00     0.014 A 
BRANCH  22  25
ATOM     25  N   UNL d   1      26.298 -15.284  -4.445  0.00  0.00    -0.116 N 
ATOM     26  O   UNL d   1      25.155 -15.200  -4.917  0.00  0.00    -0.532 OA
ATOM     27  O   UNL d   1      27.309 -15.575  -5.102  0.00  0.00    -0.532 OA
ENDBRANCH  22  25
ENDBRANCH  18  19
ENDBRANCH   2  17
TORSDOF 6
ENDMDL
MODEL 4
REMARK VINA RESULT:    -6.924      2.895     11.133
REMARK INTER + INTRA:         -10.104
REMARK INTER:                  -8.714
REMARK INTRA:                  -1.390
REMARK CONF_INDEPENDENT:        1.790
REMARK UNBOUND:                -1.390
REMARK  6 active torsions:
REMARK  status: ('A' for Active; 'I' for Inactive)
REMARK    1  A    between atoms: C_2  and  C_3 
REMARK    2  A    between atoms: C_6  and  C_7 
REMARK       I    between atoms: C_7  and  N_9 
REMARK    3  A    between atoms: N_9  and  N_10 
REMARK       I    between atoms: N_10  and  C_11 
REMARK    4  A    between atoms: C_11  and  C_13 
REMARK    5  A    between atoms: C_14  and  C_15 
REMARK    6  A    between atoms: C_18  and  N_19 
ROOT
ATOM      1  N   UNL d   1      24.308 -16.947  -1.805  0.00  0.00    -0.264 N 
ATOM      2  C   UNL d   1      25.185 -16.026  -1.255  0.00  0.00     0.259 C 
ATOM      3  O   UNL d   1      25.056 -15.590  -0.110  0.00  0.00    -0.267 OA
ATOM      4  H   UNL d   1      24.370 -17.327  -2.748  0.00  0.00     0.190 HD
ENDROOT
BRANCH   1   5
ATOM      5  N   UNL d   1      23.239 -17.440  -1.001  0.00  0.00    -0.263 N 
ATOM      6  C   UNL d   1      22.590 -18.625  -1.337  0.00  0.00     0.270 C 
ATOM      7  O   UNL d   1      22.932 -19.295  -2.318  0.00  0.00    -0.266 OA
ATOM      8  H   UNL d   1      22.982 -16.844  -0.220  0.00  0.00     0.190 HD
BRANCH   6   9
ATOM      9  C   UNL d   1      21.420 -19.070  -0.488  0.00  0.00     0.033 A 
ATOM     10  C   UNL d   1      20.276 -19.598  -1.116  0.00  0.00     0.017 A 
ATOM     11  C   UNL d   1      19.128 -19.931  -0.379  0.00  0.00     0.008 A 
ATOM     12  C   UNL d   1      19.137 -19.845   1.017  0.00  0.00    -0.059 A 
ATOM     13  C   UNL d   1      20.272 -19.327   1.650  0.00  0.00     0.008 A 
ATOM     14  C   UNL d   1      21.401 -18.947   0.908  0.00  0.00     0.017 A 
BRANCH  12  15
ATOM     15  C   UNL d   1      18.030 -20.471   1.834  0.00  0.00     0.034 C 
ATOM     16  C   UNL d   1      17.667 -21.821   1.221  0.00  0.00     0.010 C 
ENDBRANCH  12  15
ENDBRANCH   6   9
ENDBRANCH   1   5
BRANCH   2  17
ATOM     17  C   UNL d   1      26.304 -15.581  -2.152  0.00  0.00     0.076 C 
ATOM     18  C   UNL d   1      26.158 -15.533  -3.494  0.00  0.00     0.017 C 
BRANCH  18  19
ATOM     19  C   UNL d   1      27.230 -15.212  -4.468  0.00  0.00    -0.036 A 
ATOM     20  C   UNL d   1      28.495 -15.826  -4.386  0.00  0.00     0.014 A 
ATOM     21  C   UNL d   1      29.572 -15.381  -5.176  0.00  0.00     0.037 A 
ATOM     22  C   UNL d   1      29.367 -14.362  -6.113  0.00  0.00     0.102 A 
ATOM     23  C   UNL d   1      28.114 -13.751  -6.220  0.00  0.00     0.037 A 
ATOM     24  C   UNL d   1      27.060 -14.175  -5.398  0.00  0.00     0.014 A 
BRANCH  22  25
ATOM     25  N   UNL d   1      30.452 -13.961  -7.021  0.00  0.00    -0.116 N 
ATOM     26  O   UNL d   1      30.592 -12.752  -7.258  0.00  0.00    -0.532 OA
ATOM     27  O   UNL d   1      31.182 -14.854  -7.477  0.00  0.00    -0.532 OA
ENDBRANCH  22  25
ENDBRANCH  18  19
ENDBRANCH   2  17
TORSDOF 6
ENDMDL
MODEL 5
REMARK VINA RESULT:    -6.704      8.105     11.763
REMARK INTER + INTRA:          -9.962
REMARK INTER:                  -8.494
REMARK INTRA:                  -1.468
REMARK CONF_INDEPENDENT:        1.790
REMARK UNBOUND:                -1.468
REMARK  6 active torsions:
REMARK  status: ('A' for Active; 'I' for Inactive)
REMARK    1  A    between atoms: C_2  and  C_3 
REMARK    2  A    between atoms: C_6  and  C_7 
REMARK       I    between atoms: C_7  and  N_9 
REMARK    3  A    between atoms: N_9  and  N_10 
REMARK       I    between atoms: N_10  and  C_11 
REMARK    4  A    between atoms: C_11  and  C_13 
REMARK    5  A    between atoms: C_14  and  C_15 
REMARK    6  A    between atoms: C_18  and  N_19 
ROOT
ATOM      1  N   UNL d   1      28.273 -14.393   3.468  0.00  0.00    -0.264 N 
ATOM      2  C   UNL d   1      27.415 -13.783   2.566  0.00  0.00     0.259 C 
ATOM      3  O   UNL d   1      26.716 -12.814   2.870  0.00  0.00    -0.267 OA
ATOM      4  H   UNL d   1      28.861 -15.200   3.265  0.00  0.00     0.190 HD
ENDROOT
BRANCH   1   5
ATOM      5  N   UNL d   1      28.380 -13.856   4.784  0.00  0.00    -0.263 N 
ATOM      6  C   UNL d   1      29.279 -14.397   5.698  0.00  0.00     0.270 C 
ATOM      7  O   UNL d   1      30.024 -15.336   5.395  0.00  0.00    -0.266 OA
ATOM      8  H   UNL d   1      27.732 -13.101   4.991  0.00  0.00     0.190 HD
BRANCH   6   9
ATOM      9  C   UNL d   1      29.307 -13.832   7.101  0.00  0.00     0.033 A 
ATOM     10  C   UNL d   1      28.332 -12.891   7.483  0.00  0.00     0.017 A 
ATOM     11  C   UNL d   1      28.377 -12.264   8.739  0.00  0.00     0.008 A 
ATOM     12  C   UNL d   1      29.337 -12.645   9.683  0.00  0.00    -0.059 A 
ATOM     13  C   UNL d   1      30.306 -13.583   9.313  0.00  0.00     0.008 A 
ATOM     14  C   UNL d   1      30.290 -14.173   8.039  0.00  0.00     0.017 A 
BRANCH  12  15
ATOM     15  C   UNL d   1      29.218 -12.201  11.122  0.00  0.00     0.034 C 
ATOM     16  C   UNL d   1      28.281 -13.155  11.858  0.00  0.00     0.010 C 
ENDBRANCH  12  15
ENDBRANCH   6   9
ENDBRANCH   1   5
BRANCH   2  17
ATOM     17  C   UNL d   1      27.383 -14.386   1.192  0.00  0.00     0.076 C 
ATOM     18  C   UNL d   1      26.997 -13.670   0.114  0.00  0.00     0.017 C 
BRANCH  18  19
ATOM     19  C   UNL d   1      26.828 -14.202  -1.261  0.00  0.00    -0.036 A 
ATOM     20  C   UNL d   1      27.688 -15.195  -1.767  0.00  0.00     0.014 A 
ATOM     21  C   UNL d   1      27.662 -15.554  -3.128  0.00  0.00     0.037 A 
ATOM     22  C   UNL d   1      26.716 -14.972  -3.979  0.00  0.00     0.102 A 
ATOM     23  C   UNL d   1      25.843 -13.996  -3.491  0.00  0.00     0.037 A 
ATOM     24  C   UNL d   1      25.907 -13.615  -2.142  0.00  0.00     0.014 A 
BRANCH  22  25
ATOM     25  N   UNL d   1      26.603 -15.416  -5.376  0.00  0.00    -0.116 N 
ATOM     26  O   UNL d   1      25.547 -15.963  -5.726  0.00  0.00    -0.532 OA
ATOM     27  O   UNL d   1      27.562 -15.196  -6.131  0.00  0.00    -0.532 OA
ENDBRANCH  22  25
ENDBRANCH  18  19
ENDBRANCH   2  17
TORSDOF 6
ENDMDL
MODEL 6
REMARK VINA RESULT:    -6.511      8.612     11.953
REMARK INTER + INTRA:          -9.016
REMARK INTER:                  -8.301
REMARK INTRA:                  -0.715
REMARK CONF_INDEPENDENT:        1.790
REMARK UNBOUND:                -0.715
REMARK  6 active torsions:
REMARK  status: ('A' for Active; 'I' for Inactive)
REMARK    1  A    between atoms: C_2  and  C_3 
REMARK    2  A    between atoms: C_6  and  C_7 
REMARK       I    between atoms: C_7  and  N_9 
REMARK    3  A    between atoms: N_9  and  N_10 
REMARK       I    between atoms: N_10  and  C_11 
REMARK    4  A    between atoms: C_11  and  C_13 
REMARK    5  A    between atoms: C_14  and  C_15 
REMARK    6  A    between atoms: C_18  and  N_19 
ROOT
ATOM      1  N   UNL d   1      29.124 -14.531   3.799  0.00  0.00    -0.264 N 
ATOM      2  C   UNL d   1      28.522 -13.378   3.321  0.00  0.00     0.259 C 
ATOM      3  O   UNL d   1      28.443 -12.346   3.991  0.00  0.00    -0.267 OA
ATOM      4  H   UNL d   1      29.203 -15.407   3.287  0.00  0.00     0.190 HD
ENDROOT
BRANCH   1   5
ATOM      5  N   UNL d   1      29.709 -14.511   5.099  0.00  0.00    -0.263 N 
ATOM      6  C   UNL d   1      28.953 -14.151   6.210  0.00  0.00     0.270 C 
ATOM      7  O   UNL d   1      27.755 -13.862   6.112  0.00  0.00    -0.266 OA
ATOM      8  H   UNL d   1      30.700 -14.734   5.124  0.00  0.00     0.190 HD
BRANCH   6   9
ATOM      9  C   UNL d   1      29.638 -14.084   7.556  0.00  0.00     0.033 A 
ATOM     10  C   UNL d   1      28.919 -14.440   8.713  0.00  0.00     0.017 A 
ATOM     11  C   UNL d   1      29.479 -14.298   9.993  0.00  0.00     0.008 A 
ATOM     12  C   UNL d   1      30.812 -13.899  10.138  0.00  0.00    -0.059 A 
ATOM     13  C   UNL d   1      31.536 -13.548   8.994  0.00  0.00     0.008 A 
ATOM     14  C   UNL d   1      30.958 -13.642   7.719  0.00  0.00     0.017 A 
BRANCH  12  15
ATOM     15  C   UNL d   1      31.511 -14.025  11.472  0.00  0.00     0.034 C 
ATOM     16  C   UNL d   1      31.264 -15.425  12.029  0.00  0.00     0.010 C 
ENDBRANCH  12  15
ENDBRANCH   6   9
ENDBRANCH   1   5
BRANCH   2  17
ATOM     17  C   UNL d   1      27.959 -13.468   1.933  0.00  0.00     0.076 C 
ATOM     18  C   UNL d   1      28.032 -14.608   1.213  0.00  0.00     0.017 C 
BRANCH  18  19
ATOM     19  C   UNL d   1      27.605 -14.767  -0.200  0.00  0.00    -0.036 A 
ATOM     20  C   UNL d   1      27.638 -13.681  -1.096  0.00  0.00     0.014 A 
ATOM     21  C   UNL d   1      27.048 -13.773  -2.370  0.00  0.00     0.037 A 
ATOM     22  C   UNL d   1      26.485 -14.985  -2.787  0.00  0.00     0.102 A 
ATOM     23  C   UNL d   1      26.458 -16.079  -1.917  0.00  0.00     0.037 A 
ATOM     24  C   UNL d   1      27.011 -15.962  -0.634  0.00  0.00     0.014 A 
BRANCH  22  25
ATOM     25  N   UNL d   1      25.964 -15.129  -4.154  0.00  0.00    -0.116 N 
ATOM     26  O   UNL d   1      26.730 -15.575  -5.021  0.00  0.00    -0.532 OA
ATOM     27  O   UNL d   1      24.781 -14.819  -4.356  0.00  0.00    -0.532 OA
ENDBRANCH  22  25
ENDBRANCH  18  19
ENDBRANCH   2  17
TORSDOF 6
ENDMDL
MODEL 7
REMARK VINA RESULT:    -6.170      4.171     12.148
REMARK INTER + INTRA:          -9.413
REMARK INTER:                  -7.960
REMARK INTRA:                  -1.452
REMARK CONF_INDEPENDENT:        1.790
REMARK UNBOUND:                -1.452
REMARK  6 active torsions:
REMARK  status: ('A' for Active; 'I' for Inactive)
REMARK    1  A    between atoms: C_2  and  C_3 
REMARK    2  A    between atoms: C_6  and  C_7 
REMARK       I    between atoms: C_7  and  N_9 
REMARK    3  A    between atoms: N_9  and  N_10 
REMARK       I    between atoms: N_10  and  C_11 
REMARK    4  A    between atoms: C_11  and  C_13 
REMARK    5  A    between atoms: C_14  and  C_15 
REMARK    6  A    between atoms: C_18  and  N_19 
ROOT
ATOM      1  N   UNL d   1      27.020 -15.312  -3.566  0.00  0.00    -0.264 N 
ATOM      2  C   UNL d   1      27.103 -15.145  -4.940  0.00  0.00     0.259 C 
ATOM      3  O   UNL d   1      26.245 -15.578  -5.712  0.00  0.00    -0.267 OA
ATOM      4  H   UNL d   1      27.708 -14.980  -2.892  0.00  0.00     0.190 HD
ENDROOT
BRANCH   1   5
ATOM      5  N   UNL d   1      25.880 -15.974  -3.023  0.00  0.00    -0.263 N 
ATOM      6  C   UNL d   1      25.780 -16.202  -1.654  0.00  0.00     0.270 C 
ATOM      7  O   UNL d   1      26.655 -15.820  -0.869  0.00  0.00    -0.266 OA
ATOM      8  H   UNL d   1      25.201 -16.287  -3.711  0.00  0.00     0.190 HD
BRANCH   6   9
ATOM      9  C   UNL d   1      24.582 -16.966  -1.137  0.00  0.00     0.033 A 
ATOM     10  C   UNL d   1      23.328 -16.326  -1.086  0.00  0.00     0.017 A 
ATOM     11  C   UNL d   1      22.209 -16.960  -0.522  0.00  0.00     0.008 A 
ATOM     12  C   UNL d   1      22.293 -18.289  -0.093  0.00  0.00    -0.059 A 
ATOM     13  C   UNL d   1      23.533 -18.934  -0.145  0.00  0.00     0.008 A 
ATOM     14  C   UNL d   1      24.663 -18.282  -0.664  0.00  0.00     0.017 A 
BRANCH  12  15
ATOM     15  C   UNL d   1      21.042 -19.070   0.237  0.00  0.00     0.034 C 
ATOM     16  C   UNL d   1      20.265 -19.327  -1.051  0.00  0.00     0.010 C 
ENDBRANCH  12  15
ENDBRANCH   6   9
ENDBRANCH   1   5
BRANCH   2  17
ATOM     17  C   UNL d   1      28.315 -14.409  -5.431  0.00  0.00     0.076 C 
ATOM     18  C   UNL d   1      28.779 -14.569  -6.689  0.00  0.00     0.017 C 
BRANCH  18  19
ATOM     19  C   UNL d   1      30.024 -13.974  -7.234  0.00  0.00    -0.036 A 
ATOM     20  C   UNL d   1      29.988 -12.807  -8.020  0.00  0.00     0.014 A 
ATOM     21  C   UNL d   1      31.133 -12.355  -8.704  0.00  0.00     0.037 A 
ATOM     22  C   UNL d   1      32.347 -13.033  -8.542  0.00  0.00     0.102 A 
ATOM     23  C   UNL d   1      32.406 -14.185  -7.753  0.00  0.00     0.037 A 
ATOM     24  C   UNL d   1      31.249 -14.649  -7.111  0.00  0.00     0.014 A 
BRANCH  22  25
ATOM     25  N   UNL d   1      33.575 -12.511  -9.161  0.00  0.00    -0.116 N 
ATOM     26  O   UNL d   1      34.544 -13.277  -9.259  0.00  0.00    -0.532 OA
ATOM     27  O   UNL d   1      33.561 -11.341  -9.573  0.00  0.00    -0.532 OA
ENDBRANCH  22  25
ENDBRANCH  18  19
ENDBRANCH   2  17
TORSDOF 6
ENDMDL
MODEL 8
REMARK VINA RESULT:    -5.750      3.208     11.512
REMARK INTER + INTRA:          -8.995
REMARK INTER:                  -7.539
REMARK INTRA:                  -1.455
REMARK CONF_INDEPENDENT:        1.790
REMARK UNBOUND:                -1.455
REMARK  6 active torsions:
REMARK  status: ('A' for Active; 'I' for Inactive)
REMARK    1  A    between atoms: C_2  and  C_3 
REMARK    2  A    between atoms: C_6  and  C_7 
REMARK       I    between atoms: C_7  and  N_9 
REMARK    3  A    between atoms: N_9  and  N_10 
REMARK       I    between atoms: N_10  and  C_11 
REMARK    4  A    between atoms: C_11  and  C_13 
REMARK    5  A    between atoms: C_14  and  C_15 
REMARK    6  A    between atoms: C_18  and  N_19 
ROOT
ATOM      1  N   UNL d   1      25.206 -16.162  -2.080  0.00  0.00    -0.264 N 
ATOM      2  C   UNL d   1      25.183 -15.023  -2.870  0.00  0.00     0.259 C 
ATOM      3  O   UNL d   1      24.132 -14.502  -3.249  0.00  0.00    -0.267 OA
ATOM      4  H   UNL d   1      26.048 -16.632  -1.752  0.00  0.00     0.190 HD
ENDROOT
BRANCH   1   5
ATOM      5  N   UNL d   1      23.968 -16.728  -1.656  0.00  0.00    -0.263 N 
ATOM      6  C   UNL d   1      23.946 -17.898  -0.902  0.00  0.00     0.270 C 
ATOM      7  O   UNL d   1      24.989 -18.465  -0.557  0.00  0.00    -0.266 OA
ATOM      8  H   UNL d   1      23.140 -16.238  -1.984  0.00  0.00     0.190 HD
BRANCH   6   9
ATOM      9  C   UNL d   1      22.605 -18.492  -0.534  0.00  0.00     0.033 A 
ATOM     10  C   UNL d   1      21.751 -18.950  -1.556  0.00  0.00     0.017 A 
ATOM     11  C   UNL d   1      20.457 -19.416  -1.271  0.00  0.00     0.008 A 
ATOM     12  C   UNL d   1      20.028 -19.535   0.056  0.00  0.00    -0.059 A 
ATOM     13  C   UNL d   1      20.871 -19.087   1.077  0.00  0.00     0.008 A 
ATOM     14  C   UNL d   1      22.146 -18.575   0.787  0.00  0.00     0.017 A 
BRANCH  12  15
ATOM     15  C   UNL d   1      18.769 -20.302   0.389  0.00  0.00     0.034 C 
ATOM     16  C   UNL d   1      18.855 -20.788   1.834  0.00  0.00     0.010 C 
ENDBRANCH  12  15
ENDBRANCH   6   9
ENDBRANCH   1   5
BRANCH   2  17
ATOM     17  C   UNL d   1      26.526 -14.468  -3.246  0.00  0.00     0.076 C 
ATOM     18  C   UNL d   1      26.846 -14.201  -4.530  0.00  0.00     0.017 C 
BRANCH  18  19
ATOM     19  C   UNL d   1      28.176 -13.756  -5.014  0.00  0.00    -0.036 A 
ATOM     20  C   UNL d   1      29.101 -13.148  -4.144  0.00  0.00     0.014 A 
ATOM     21  C   UNL d   1      30.274 -12.544  -4.635  0.00  0.00     0.037 A 
ATOM     22  C   UNL d   1      30.566 -12.612  -6.002  0.00  0.00     0.102 A 
ATOM     23  C   UNL d   1      29.668 -13.226  -6.880  0.00  0.00     0.037 A 
ATOM     24  C   UNL d   1      28.482 -13.787  -6.384  0.00  0.00     0.014 A 
BRANCH  22  25
ATOM     25  N   UNL d   1      31.839 -12.083  -6.515  0.00  0.00    -0.116 N 
ATOM     26  O   UNL d   1      32.849 -12.791  -6.397  0.00  0.00    -0.532 OA
ATOM     27  O   UNL d   1      31.823 -10.969  -7.059  0.00  0.00    -0.532 OA
ENDBRANCH  22  25
ENDBRANCH  18  19
ENDBRANCH   2  17
TORSDOF 6
ENDMDL
MODEL 9
REMARK VINA RESULT:    -5.665      3.912      4.635
REMARK INTER + INTRA:          -8.950
REMARK INTER:                  -7.455
REMARK INTRA:                  -1.496
REMARK CONF_INDEPENDENT:        1.790
REMARK UNBOUND:                -1.496
REMARK  6 active torsions:
REMARK  status: ('A' for Active; 'I' for Inactive)
REMARK    1  A    between atoms: C_2  and  C_3 
REMARK    2  A    between atoms: C_6  and  C_7 
REMARK       I    between atoms: C_7  and  N_9 
REMARK    3  A    between atoms: N_9  and  N_10 
REMARK       I    between atoms: N_10  and  C_11 
REMARK    4  A    between atoms: C_11  and  C_13 
REMARK    5  A    between atoms: C_14  and  C_15 
REMARK    6  A    between atoms: C_18  and  N_19 
ROOT
ATOM      1  N   UNL d   1      25.597 -17.029  -0.860  0.00  0.00    -0.264 N 
ATOM      2  C   UNL d   1      24.572 -16.304  -1.446  0.00  0.00     0.259 C 
ATOM      3  O   UNL d   1      24.775 -15.271  -2.088  0.00  0.00    -0.267 OA
ATOM      4  H   UNL d   1      25.477 -17.880  -0.314  0.00  0.00     0.190 HD
ENDROOT
BRANCH   1   5
ATOM      5  N   UNL d   1      26.941 -16.586  -1.040  0.00  0.00    -0.263 N 
ATOM      6  C   UNL d   1      27.998 -17.278  -0.457  0.00  0.00     0.270 C 
ATOM      7  O   UNL d   1      27.812 -18.303   0.209  0.00  0.00    -0.266 OA
ATOM      8  H   UNL d   1      27.039 -15.729  -1.576  0.00  0.00     0.190 HD
BRANCH   6   9
ATOM      9  C   UNL d   1      29.397 -16.730  -0.626  0.00  0.00     0.033 A 
ATOM     10  C   UNL d   1      30.292 -17.385  -1.494  0.00  0.00     0.017 A 
ATOM     11  C   UNL d   1      31.630 -16.974  -1.607  0.00  0.00     0.008 A 
ATOM     12  C   UNL d   1      32.075 -15.830  -0.935  0.00  0.00    -0.059 A 
ATOM     13  C   UNL d   1      31.192 -15.171  -0.074  0.00  0.00     0.008 A 
ATOM     14  C   UNL d   1      29.868 -15.613   0.076  0.00  0.00     0.017 A 
BRANCH  12  15
ATOM     15  C   UNL d   1      33.412 -15.211  -1.273  0.00  0.00     0.034 C 
ATOM     16  C   UNL d   1      34.073 -14.727   0.015  0.00  0.00     0.010 C 
ENDBRANCH  12  15
ENDBRANCH   6   9
ENDBRANCH   1   5
BRANCH   2  17
ATOM     17  C   UNL d   1      23.190 -16.852  -1.239  0.00  0.00     0.076 C 
ATOM     18  C   UNL d   1      22.949 -17.850  -0.362  0.00  0.00     0.017 C 
BRANCH  18  19
ATOM     19  C   UNL d   1      21.645 -18.531  -0.165  0.00  0.00    -0.036 A 
ATOM     20  C   UNL d   1      21.231 -18.951   1.114  0.00  0.00     0.014 A 
ATOM     21  C   UNL d   1      20.099 -19.771   1.278  0.00  0.00     0.037 A 
ATOM     22  C   UNL d   1      19.327 -20.115   0.163  0.00  0.00     0.102 A 
ATOM     23  C   UNL d   1      19.714 -19.695  -1.113  0.00  0.00     0.037 A 
ATOM     24  C   UNL d   1      20.867 -18.913  -1.268  0.00  0.00     0.014 A 
BRANCH  22  25
ATOM     25  N   UNL d   1      18.082 -20.879   0.331  0.00  0.00    -0.116 N 
ATOM     26  O   UNL d   1      17.242 -20.826  -0.580  0.00  0.00    -0.532 OA
ATOM     27  O   UNL d   1      17.953 -21.554   1.364  0.00  0.00    -0.532 OA
ENDBRANCH  22  25
ENDBRANCH  18  19
ENDBRANCH   2  17
TORSDOF 6
ENDMDL
