MODEL 1
REMARK VINA RESULT:    -7.808      0.000      0.000
REMARK INTER + INTRA:          -9.208
REMARK INTER:                  -8.703
REMARK INTRA:                  -0.505
REMARK CONF_INDEPENDENT:        0.895
REMARK UNBOUND:                -0.505
REMARK  3 active torsions:
REMARK  status: ('A' for Active; 'I' for Inactive)
REMARK       I    between atoms: C_2  and  N_3 
REMARK    1  A    between atoms: C_2  and  C_12 
REMARK    2  A    between atoms: N_3  and  N_4 
REMARK    3  A    between atoms: N_4  and  C_5 
ROOT
ATOM      1  O   UNL d   1      23.551 -16.239  -0.262  0.00  0.00    -0.264 OA
ATOM      2  C   UNL d   1      23.583 -17.466  -0.332  0.00  0.00     0.286 C 
ATOM      3  N   UNL d   1      24.736 -18.196  -0.608  0.00  0.00    -0.264 N 
ATOM      4  H   UNL d   1      24.756 -19.206  -0.662  0.00  0.00     0.190 HD
ENDROOT
BRANCH   2   5
ATOM      5  C   UNL d   1      22.310 -18.277  -0.181  0.00  0.00     0.106 A 
ATOM      6  C   UNL d   1      21.807 -18.575   1.027  0.00  0.00     0.048 A 
ATOM      7  C   UNL d   1      20.561 -19.351   1.131  0.00  0.00    -0.018 A 
ATOM      8  C   UNL d   1      20.028 -19.700   2.378  0.00  0.00     0.012 A 
ATOM      9  C   UNL d   1      19.894 -19.768  -0.030  0.00  0.00     0.042 A 
ATOM     10  C   UNL d   1      18.855 -20.460   2.460  0.00  0.00     0.001 A 
ATOM     11  C   UNL d   1      18.203 -20.878   1.300  0.00  0.00     0.001 A 
ATOM     12  C   UNL d   1      18.721 -20.533   0.051  0.00  0.00     0.018 A 
ATOM     13  C   UNL d   1      20.458 -19.378  -1.347  0.00  0.00     0.257 A 
ATOM     14  O   UNL d   1      19.905 -19.700  -2.396  0.00  0.00    -0.267 OA
ATOM     15  N   UNL d   1      21.627 -18.644  -1.326  0.00  0.00    -0.318 N 
ATOM     16  H   UNL d   1      21.985 -18.345  -2.227  0.00  0.00     0.169 HD
ENDBRANCH   2   5
BRANCH   3  17
ATOM     17  N   UNL d   1      25.956 -17.512  -0.712  0.00  0.00    -0.298 N 
ATOM     18  H   UNL d   1      26.782 -17.940  -0.296  0.00  0.00     0.187 HD
BRANCH  17  19
ATOM     19  C   UNL d   1      26.052 -16.329  -1.459  0.00  0.00     0.048 A 
ATOM     20  C   UNL d   1      25.509 -16.204  -2.746  0.00  0.00     0.034 A 
ATOM     21  C   UNL d   1      25.639 -15.015  -3.478  0.00  0.00     0.044 A 
ATOM     22  C   UNL d   1      26.339 -13.943  -2.939  0.00  0.00     0.116 A 
ATOM     23  F   UNL d   1      26.475 -12.813  -3.647  0.00  0.00    -0.206 F 
ATOM     24  C   UNL d   1      26.899 -14.037  -1.674  0.00  0.00     0.044 A 
ATOM     25  C   UNL d   1      26.752 -15.223  -0.938  0.00  0.00     0.034 A 
ENDBRANCH  17  19
ENDBRANCH   3  17
TORSDOF 3
ENDMDL
MODEL 2
REMARK VINA RESULT:    -7.721      3.421      8.275
REMARK INTER + INTRA:          -9.248
REMARK INTER:                  -8.615
REMARK INTRA:                  -0.632
REMARK CONF_INDEPENDENT:        0.895
REMARK UNBOUND:                -0.632
REMARK  3 active torsions:
REMARK  status: ('A' for Active; 'I' for Inactive)
REMARK       I    between atoms: C_2  and  N_3 
REMARK    1  A    between atoms: C_2  and  C_12 
REMARK    2  A    between atoms: N_3  and  N_4 
REMARK    3  A    between atoms: N_4  and  C_5 
ROOT
ATOM      1  O   UNL d   1      22.155 -15.944  -0.893  0.00  0.00    -0.264 OA
ATOM      2  C   UNL d   1      22.734 -17.029  -0.855  0.00  0.00     0.286 C 
ATOM      3  N   UNL d   1      22.077 -18.255  -0.813  0.00  0.00    -0.264 N 
ATOM      4  H   UNL d   1      22.559 -19.145  -0.784  0.00  0.00     0.190 HD
ENDROOT
BRANCH   2   5
ATOM      5  C   UNL d   1      24.247 -17.089  -0.783  0.00  0.00     0.106 A 
ATOM      6  C   UNL d   1      25.019 -16.386  -1.628  0.00  0.00     0.048 A 
ATOM      7  C   UNL d   1      26.484 -16.459  -1.516  0.00  0.00    -0.018 A 
ATOM      8  C   UNL d   1      27.313 -15.759  -2.400  0.00  0.00     0.012 A 
ATOM      9  C   UNL d   1      27.074 -17.253  -0.521  0.00  0.00     0.042 A 
ATOM     10  C   UNL d   1      28.706 -15.858  -2.297  0.00  0.00     0.001 A 
ATOM     11  C   UNL d   1      29.283 -16.657  -1.309  0.00  0.00     0.001 A 
ATOM     12  C   UNL d   1      28.469 -17.356  -0.418  0.00  0.00     0.018 A 
ATOM     13  C   UNL d   1      26.186 -17.977   0.424  0.00  0.00     0.257 A 
ATOM     14  O   UNL d   1      26.648 -18.672   1.326  0.00  0.00    -0.267 OA
ATOM     15  N   UNL d   1      24.827 -17.831   0.229  0.00  0.00    -0.318 N 
ATOM     16  H   UNL d   1      24.226 -18.295   0.903  0.00  0.00     0.169 HD
ENDBRANCH   2   5
BRANCH   3  17
ATOM     17  N   UNL d   1      20.679 -18.273  -0.923  0.00  0.00    -0.298 N 
ATOM     18  H   UNL d   1      20.242 -17.630  -1.583  0.00  0.00     0.187 HD
BRANCH  17  19
ATOM     19  C   UNL d   1      19.917 -19.222  -0.227  0.00  0.00     0.048 A 
ATOM     20  C   UNL d   1      20.250 -19.654   1.066  0.00  0.00     0.034 A 
ATOM     21  C   UNL d   1      19.481 -20.620   1.731  0.00  0.00     0.044 A 
ATOM     22  C   UNL d   1      18.382 -21.185   1.098  0.00  0.00     0.116 A 
ATOM     23  F   UNL d   1      17.657 -22.119   1.730  0.00  0.00    -0.206 F 
ATOM     24  C   UNL d   1      18.031 -20.790  -0.184  0.00  0.00     0.044 A 
ATOM     25  C   UNL d   1      18.794 -19.811  -0.840  0.00  0.00     0.034 A 
ENDBRANCH  17  19
ENDBRANCH   3  17
TORSDOF 3
ENDMDL
MODEL 3
REMARK VINA RESULT:    -7.206      3.232      8.177
REMARK INTER + INTRA:          -9.076
REMARK INTER:                  -8.101
REMARK INTRA:                  -0.975
REMARK CONF_INDEPENDENT:        0.895
REMARK UNBOUND:                -0.975
REMARK  3 active torsions:
REMARK  status: ('A' for Active; 'I' for Inactive)
REMARK       I    between atoms: C_2  and  N_3 
REMARK    1  A    between atoms: C_2  and  C_12 
REMARK    2  A    between atoms: N_3  and  N_4 
REMARK    3  A    between atoms: N_4  and  C_5 
ROOT
ATOM      1  O   UNL d   1      25.413 -17.925   0.783  0.00  0.00    -0.264 OA
ATOM      2  C   UNL d   1      24.762 -17.497  -0.170  0.00  0.00     0.286 C 
ATOM      3  N   UNL d   1      23.417 -17.788  -0.381  0.00  0.00    -0.264 N 
ATOM      4  H   UNL d   1      22.887 -17.431  -1.166  0.00  0.00     0.190 HD
ENDROOT
BRANCH   2   5
ATOM      5  C   UNL d   1      25.430 -16.655  -1.239  0.00  0.00     0.106 A 
ATOM      6  C   UNL d   1      24.756 -15.706  -1.908  0.00  0.00     0.048 A 
ATOM      7  C   UNL d   1      25.444 -14.899  -2.928  0.00  0.00    -0.018 A 
ATOM      8  C   UNL d   1      24.761 -13.922  -3.661  0.00  0.00     0.012 A 
ATOM      9  C   UNL d   1      26.806 -15.112  -3.192  0.00  0.00     0.042 A 
ATOM     10  C   UNL d   1      25.423 -13.179  -4.645  0.00  0.00     0.001 A 
ATOM     11  C   UNL d   1      26.775 -13.405  -4.907  0.00  0.00     0.001 A 
ATOM     12  C   UNL d   1      27.470 -14.372  -4.181  0.00  0.00     0.018 A 
ATOM     13  C   UNL d   1      27.527 -16.139  -2.397  0.00  0.00     0.257 A 
ATOM     14  O   UNL d   1      28.723 -16.355  -2.574  0.00  0.00    -0.267 OA
ATOM     15  N   UNL d   1      26.783 -16.832  -1.463  0.00  0.00    -0.318 N 
ATOM     16  H   UNL d   1      27.291 -17.502  -0.894  0.00  0.00     0.169 HD
ENDBRANCH   2   5
BRANCH   3  17
ATOM     17  N   UNL d   1      22.727 -18.523   0.594  0.00  0.00    -0.298 N 
ATOM     18  H   UNL d   1      23.158 -18.623   1.513  0.00  0.00     0.187 HD
BRANCH  17  19
ATOM     19  C   UNL d   1      21.438 -19.013   0.343  0.00  0.00     0.048 A 
ATOM     20  C   UNL d   1      20.564 -19.396   1.371  0.00  0.00     0.034 A 
ATOM     21  C   UNL d   1      19.286 -19.902   1.090  0.00  0.00     0.044 A 
ATOM     22  C   UNL d   1      18.878 -20.055  -0.229  0.00  0.00     0.116 A 
ATOM     23  F   UNL d   1      17.663 -20.554  -0.496  0.00  0.00    -0.206 F 
ATOM     24  C   UNL d   1      19.721 -19.698  -1.270  0.00  0.00     0.044 A 
ATOM     25  C   UNL d   1      20.992 -19.177  -0.984  0.00  0.00     0.034 A 
ENDBRANCH  17  19
ENDBRANCH   3  17
TORSDOF 3
ENDMDL
MODEL 4
REMARK VINA RESULT:    -6.855      1.662      2.043
REMARK INTER + INTRA:          -8.290
REMARK INTER:                  -7.750
REMARK INTRA:                  -0.540
REMARK CONF_INDEPENDENT:        0.895
REMARK UNBOUND:                -0.540
REMARK  3 active torsions:
REMARK  status: ('A' for Active; 'I' for Inactive)
REMARK       I    between atoms: C_2  and  N_3 
REMARK    1  A    between atoms: C_2  and  C_12 
REMARK    2  A    between atoms: N_3  and  N_4 
REMARK    3  A    between atoms: N_4  and  C_5 
ROOT
ATOM      1  O   UNL d   1      23.982 -16.553  -1.576  0.00  0.00    -0.264 OA
ATOM      2  C   UNL d   1      23.990 -17.599  -0.927  0.00  0.00     0.286 C 
ATOM      3  N   UNL d   1      25.152 -18.238  -0.504  0.00  0.00    -0.264 N 
ATOM      4  H   UNL d   1      25.151 -19.097   0.031  0.00  0.00     0.190 HD
ENDROOT
BRANCH   2   5
ATOM      5  C   UNL d   1      22.690 -18.308  -0.599  0.00  0.00     0.106 A 
ATOM      6  C   UNL d   1      22.293 -18.493   0.670  0.00  0.00     0.048 A 
ATOM      7  C   UNL d   1      21.017 -19.174   0.947  0.00  0.00    -0.018 A 
ATOM      8  C   UNL d   1      20.591 -19.405   2.259  0.00  0.00     0.012 A 
ATOM      9  C   UNL d   1      20.212 -19.617  -0.114  0.00  0.00     0.042 A 
ATOM     10  C   UNL d   1      19.387 -20.075   2.507  0.00  0.00     0.001 A 
ATOM     11  C   UNL d   1      18.598 -20.520   1.446  0.00  0.00     0.001 A 
ATOM     12  C   UNL d   1      19.008 -20.292   0.132  0.00  0.00     0.018 A 
ATOM     13  C   UNL d   1      20.665 -19.350  -1.503  0.00  0.00     0.257 A 
ATOM     14  O   UNL d   1      19.992 -19.700  -2.470  0.00  0.00    -0.267 OA
ATOM     15  N   UNL d   1      21.874 -18.700  -1.645  0.00  0.00    -0.318 N 
ATOM     16  H   UNL d   1      22.159 -18.484  -2.595  0.00  0.00     0.169 HD
ENDBRANCH   2   5
BRANCH   3  17
ATOM     17  N   UNL d   1      26.385 -17.612  -0.734  0.00  0.00    -0.298 N 
ATOM     18  H   UNL d   1      27.024 -18.042  -1.403  0.00  0.00     0.187 HD
BRANCH  17  19
ATOM     19  C   UNL d   1      26.683 -16.376  -0.142  0.00  0.00     0.048 A 
ATOM     20  C   UNL d   1      26.221 -15.160  -0.665  0.00  0.00     0.034 A 
ATOM     21  C   UNL d   1      26.552 -13.936  -0.064  0.00  0.00     0.044 A 
ATOM     22  C   UNL d   1      27.373 -13.916   1.056  0.00  0.00     0.116 A 
ATOM     23  F   UNL d   1      27.701 -12.745   1.619  0.00  0.00    -0.206 F 
ATOM     24  C   UNL d   1      27.858 -15.099   1.592  0.00  0.00     0.044 A 
ATOM     25  C   UNL d   1      27.510 -16.322   0.997  0.00  0.00     0.034 A 
ENDBRANCH  17  19
ENDBRANCH   3  17
TORSDOF 3
ENDMDL
MODEL 5
REMARK VINA RESULT:    -6.841      3.223      8.263
REMARK INTER + INTRA:          -8.523
REMARK INTER:                  -7.736
REMARK INTRA:                  -0.787
REMARK CONF_INDEPENDENT:        0.895
REMARK UNBOUND:                -0.787
REMARK  3 active torsions:
REMARK  status: ('A' for Active; 'I' for Inactive)
REMARK       I    between atoms: C_2  and  N_3 
REMARK    1  A    between atoms: C_2  and  C_12 
REMARK    2  A    between atoms: N_3  and  N_4 
REMARK    3  A    between atoms: N_4  and  C_5 
ROOT
ATOM      1  O   UNL d   1      25.493 -17.485   0.415  0.00  0.00    -0.264 OA
ATOM      2  C   UNL d   1      24.759 -17.149  -0.513  0.00  0.00     0.286 C 
ATOM      3  N   UNL d   1      23.485 -17.671  -0.721  0.00  0.00    -0.264 N 
ATOM      4  H   UNL d   1      22.885 -17.388  -1.485  0.00  0.00     0.190 HD
ENDROOT
BRANCH   2   5
ATOM      5  C   UNL d   1      25.245 -16.161  -1.556  0.00  0.00     0.106 A 
ATOM      6  C   UNL d   1      26.542 -16.078  -1.894  0.00  0.00     0.048 A 
ATOM      7  C   UNL d   1      26.971 -15.117  -2.922  0.00  0.00    -0.018 A 
ATOM      8  C   UNL d   1      28.320 -14.989  -3.274  0.00  0.00     0.012 A 
ATOM      9  C   UNL d   1      26.026 -14.297  -3.556  0.00  0.00     0.042 A 
ATOM     10  C   UNL d   1      28.716 -14.053  -4.236  0.00  0.00     0.001 A 
ATOM     11  C   UNL d   1      27.770 -13.235  -4.855  0.00  0.00     0.001 A 
ATOM     12  C   UNL d   1      26.422 -13.355  -4.517  0.00  0.00     0.018 A 
ATOM     13  C   UNL d   1      24.596 -14.453  -3.188  0.00  0.00     0.257 A 
ATOM     14  O   UNL d   1      23.723 -13.774  -3.724  0.00  0.00    -0.267 OA
ATOM     15  N   UNL d   1      24.306 -15.389  -2.216  0.00  0.00    -0.318 N 
ATOM     16  H   UNL d   1      23.324 -15.520  -1.999  0.00  0.00     0.169 HD
ENDBRANCH   2   5
BRANCH   3  17
ATOM     17  N   UNL d   1      22.957 -18.554   0.232  0.00  0.00    -0.298 N 
ATOM     18  H   UNL d   1      23.535 -18.791   1.038  0.00  0.00     0.187 HD
BRANCH  17  19
ATOM     19  C   UNL d   1      21.635 -19.010   0.133  0.00  0.00     0.048 A 
ATOM     20  C   UNL d   1      20.860 -19.324   1.258  0.00  0.00     0.034 A 
ATOM     21  C   UNL d   1      19.546 -19.798   1.128  0.00  0.00     0.044 A 
ATOM     22  C   UNL d   1      19.001 -19.987  -0.136  0.00  0.00     0.116 A 
ATOM     23  F   UNL d   1      17.751 -20.454  -0.258  0.00  0.00    -0.206 F 
ATOM     24  C   UNL d   1      19.744 -19.697  -1.270  0.00  0.00     0.044 A 
ATOM     25  C   UNL d   1      21.052 -19.208  -1.134  0.00  0.00     0.034 A 
ENDBRANCH  17  19
ENDBRANCH   3  17
TORSDOF 3
ENDMDL
MODEL 6
REMARK VINA RESULT:    -6.789      5.411      9.034
REMARK INTER + INTRA:          -8.253
REMARK INTER:                  -7.684
REMARK INTRA:                  -0.569
REMARK CONF_INDEPENDENT:        0.895
REMARK UNBOUND:                -0.569
REMARK  3 active torsions:
REMARK  status: ('A' for Active; 'I' for Inactive)
REMARK       I    between atoms: C_2  and  N_3 
REMARK    1  A    between atoms: C_2  and  C_12 
REMARK    2  A    between atoms: N_3  and  N_4 
REMARK    3  A    between atoms: N_4  and  C_5 
ROOT
ATOM      1  O   UNL d   1      26.470 -14.033   0.804  0.00  0.00    -0.264 OA
ATOM      2  C   UNL d   1      27.405 -14.519   1.439  0.00  0.00     0.286 C 
ATOM      3  N   UNL d   1      28.105 -15.653   1.039  0.00  0.00    -0.264 N 
ATOM      4  H   UNL d   1      28.876 -16.046   1.565  0.00  0.00     0.190 HD
ENDROOT
BRANCH   2   5
ATOM      5  C   UNL d   1      27.818 -13.925   2.772  0.00  0.00     0.106 A 
ATOM      6  C   UNL d   1      27.758 -12.603   3.000  0.00  0.00     0.048 A 
ATOM      7  C   UNL d   1      28.154 -12.067   4.312  0.00  0.00    -0.018 A 
ATOM      8  C   UNL d   1      28.127 -10.691   4.569  0.00  0.00     0.012 A 
ATOM      9  C   UNL d   1      28.581 -12.936   5.327  0.00  0.00     0.042 A 
ATOM     10  C   UNL d   1      28.530 -10.194   5.815  0.00  0.00     0.001 A 
ATOM     11  C   UNL d   1      28.962 -11.066   6.814  0.00  0.00     0.001 A 
ATOM     12  C   UNL d   1      28.989 -12.439   6.573  0.00  0.00     0.018 A 
ATOM     13  C   UNL d   1      28.588 -14.395   5.050  0.00  0.00     0.257 A 
ATOM     14  O   UNL d   1      28.936 -15.204   5.907  0.00  0.00    -0.267 OA
ATOM     15  N   UNL d   1      28.192 -14.786   3.787  0.00  0.00    -0.318 N 
ATOM     16  H   UNL d   1      28.159 -15.787   3.617  0.00  0.00     0.169 HD
ENDBRANCH   2   5
BRANCH   3  17
ATOM     17  N   UNL d   1      27.805 -16.225  -0.206  0.00  0.00    -0.298 N 
ATOM     18  H   UNL d   1      28.564 -16.335  -0.878  0.00  0.00     0.187 HD
BRANCH  17  19
ATOM     19  C   UNL d   1      26.523 -16.726  -0.474  0.00  0.00     0.048 A 
ATOM     20  C   UNL d   1      25.663 -16.134  -1.410  0.00  0.00     0.034 A 
ATOM     21  C   UNL d   1      24.378 -16.645  -1.644  0.00  0.00     0.044 A 
ATOM     22  C   UNL d   1      23.929 -17.742  -0.921  0.00  0.00     0.116 A 
ATOM     23  F   UNL d   1      22.695 -18.220  -1.135  0.00  0.00    -0.206 F 
ATOM     24  C   UNL d   1      24.749 -18.346   0.020  0.00  0.00     0.044 A 
ATOM     25  C   UNL d   1      26.040 -17.841   0.239  0.00  0.00     0.034 A 
ENDBRANCH  17  19
ENDBRANCH   3  17
TORSDOF 3
ENDMDL
MODEL 7
REMARK VINA RESULT:    -6.654      5.571      8.875
REMARK INTER + INTRA:          -8.343
REMARK INTER:                  -7.549
REMARK INTRA:                  -0.794
REMARK CONF_INDEPENDENT:        0.895
REMARK UNBOUND:                -0.794
REMARK  3 active torsions:
REMARK  status: ('A' for Active; 'I' for Inactive)
REMARK       I    between atoms: C_2  and  N_3 
REMARK    1  A    between atoms: C_2  and  C_12 
REMARK    2  A    between atoms: N_3  and  N_4 
REMARK    3  A    between atoms: N_4  and  C_5 
ROOT
ATOM      1  O   UNL d   1      26.667 -13.680   0.690  0.00  0.00    -0.264 OA
ATOM      2  C   UNL d   1      27.391 -14.281   1.483  0.00  0.00     0.286 C 
ATOM      3  N   UNL d   1      27.933 -15.539   1.236  0.00  0.00    -0.264 N 
ATOM      4  H   UNL d   1      28.530 -16.027   1.891  0.00  0.00     0.190 HD
ENDROOT
BRANCH   2   5
ATOM      5  C   UNL d   1      27.690 -13.691   2.848  0.00  0.00     0.106 A 
ATOM      6  C   UNL d   1      28.155 -14.450   3.854  0.00  0.00     0.048 A 
ATOM      7  C   UNL d   1      28.446 -13.837   5.159  0.00  0.00    -0.018 A 
ATOM      8  C   UNL d   1      28.906 -14.607   6.234  0.00  0.00     0.012 A 
ATOM      9  C   UNL d   1      28.250 -12.461   5.350  0.00  0.00     0.042 A 
ATOM     10  C   UNL d   1      29.155 -14.014   7.477  0.00  0.00     0.001 A 
ATOM     11  C   UNL d   1      28.949 -12.647   7.659  0.00  0.00     0.001 A 
ATOM     12  C   UNL d   1      28.496 -11.866   6.596  0.00  0.00     0.018 A 
ATOM     13  C   UNL d   1      27.780 -11.649   4.198  0.00  0.00     0.257 A 
ATOM     14  O   UNL d   1      27.609 -10.437   4.303  0.00  0.00    -0.267 OA
ATOM     15  N   UNL d   1      27.544 -12.327   3.019  0.00  0.00    -0.318 N 
ATOM     16  H   UNL d   1      27.263 -11.761   2.225  0.00  0.00     0.169 HD
ENDBRANCH   2   5
BRANCH   3  17
ATOM     17  N   UNL d   1      27.734 -16.120  -0.025  0.00  0.00    -0.298 N 
ATOM     18  H   UNL d   1      28.541 -16.213  -0.642  0.00  0.00     0.187 HD
BRANCH  17  19
ATOM     19  C   UNL d   1      26.487 -16.654  -0.380  0.00  0.00     0.048 A 
ATOM     20  C   UNL d   1      25.638 -16.033  -1.307  0.00  0.00     0.034 A 
ATOM     21  C   UNL d   1      24.386 -16.578  -1.627  0.00  0.00     0.044 A 
ATOM     22  C   UNL d   1      23.959 -17.743  -1.002  0.00  0.00     0.116 A 
ATOM     23  F   UNL d   1      22.756 -18.254  -1.299  0.00  0.00    -0.206 F 
ATOM     24  C   UNL d   1      24.768 -18.377  -0.072  0.00  0.00     0.044 A 
ATOM     25  C   UNL d   1      26.027 -17.836   0.233  0.00  0.00     0.034 A 
ENDBRANCH  17  19
ENDBRANCH   3  17
TORSDOF 3
ENDMDL
MODEL 8
REMARK VINA RESULT:    -6.593      3.251      7.954
REMARK INTER + INTRA:          -8.128
REMARK INTER:                  -7.488
REMARK INTRA:                  -0.640
REMARK CONF_INDEPENDENT:        0.895
REMARK UNBOUND:                -0.640
REMARK  3 active torsions:
REMARK  status: ('A' for Active; 'I' for Inactive)
REMARK       I    between atoms: C_2  and  N_3 
REMARK    1  A    between atoms: C_2  and  C_12 
REMARK    2  A    between atoms: N_3  and  N_4 
REMARK    3  A    between atoms: N_4  and  C_5 
ROOT
ATOM      1  O   UNL d   1      21.833 -16.536  -0.862  0.00  0.00    -0.264 OA
ATOM      2  C   UNL d   1      22.741 -17.299  -1.188  0.00  0.00     0.286 C 
ATOM      3  N   UNL d   1      22.547 -18.637  -1.518  0.00  0.00    -0.264 N 
ATOM      4  H   UNL d   1      23.298 -19.259  -1.788  0.00  0.00     0.190 HD
ENDROOT
BRANCH   2   5
ATOM      5  C   UNL d   1      24.181 -16.823  -1.184  0.00  0.00     0.106 A 
ATOM      6  C   UNL d   1      25.167 -17.575  -0.669  0.00  0.00     0.048 A 
ATOM      7  C   UNL d   1      26.554 -17.084  -0.697  0.00  0.00    -0.018 A 
ATOM      8  C   UNL d   1      27.598 -17.834  -0.144  0.00  0.00     0.012 A 
ATOM      9  C   UNL d   1      26.847 -15.838  -1.272  0.00  0.00     0.042 A 
ATOM     10  C   UNL d   1      28.909 -17.343  -0.156  0.00  0.00     0.001 A 
ATOM     11  C   UNL d   1      29.189 -16.099  -0.722  0.00  0.00     0.001 A 
ATOM     12  C   UNL d   1      28.159 -15.343  -1.282  0.00  0.00     0.018 A 
ATOM     13  C   UNL d   1      25.735 -15.059  -1.873  0.00  0.00     0.257 A 
ATOM     14  O   UNL d   1      25.937 -13.970  -2.406  0.00  0.00    -0.267 OA
ATOM     15  N   UNL d   1      24.476 -15.618  -1.795  0.00  0.00    -0.318 N 
ATOM     16  H   UNL d   1      23.727 -15.100  -2.244  0.00  0.00     0.169 HD
ENDBRANCH   2   5
BRANCH   3  17
ATOM     17  N   UNL d   1      21.235 -19.128  -1.587  0.00  0.00    -0.298 N 
ATOM     18  H   UNL d   1      20.847 -19.333  -2.507  0.00  0.00     0.187 HD
BRANCH  17  19
ATOM     19  C   UNL d   1      20.520 -19.430  -0.418  0.00  0.00     0.048 A 
ATOM     20  C   UNL d   1      21.021 -19.155   0.863  0.00  0.00     0.034 A 
ATOM     21  C   UNL d   1      20.293 -19.487   2.015  0.00  0.00     0.044 A 
ATOM     22  C   UNL d   1      19.064 -20.122   1.897  0.00  0.00     0.116 A 
ATOM     23  F   UNL d   1      18.377 -20.452   3.001  0.00  0.00    -0.206 F 
ATOM     24  C   UNL d   1      18.545 -20.420   0.647  0.00  0.00     0.044 A 
ATOM     25  C   UNL d   1      19.269 -20.071  -0.504  0.00  0.00     0.034 A 
ENDBRANCH  17  19
ENDBRANCH   3  17
TORSDOF 3
ENDMDL
MODEL 9
REMARK VINA RESULT:    -6.296      4.246      6.556
REMARK INTER + INTRA:          -8.009
REMARK INTER:                  -7.191
REMARK INTRA:                  -0.818
REMARK CONF_INDEPENDENT:        0.895
REMARK UNBOUND:                -0.818
REMARK  3 active torsions:
REMARK  status: ('A' for Active; 'I' for Inactive)
REMARK       I    between atoms: C_2  and  N_3 
REMARK    1  A    between atoms: C_2  and  C_12 
REMARK    2  A    between atoms: N_3  and  N_4 
REMARK    3  A    between atoms: N_4  and  C_5 
ROOT
ATOM      1  O   UNL d   1      24.596 -14.076  -4.694  0.00  0.00    -0.264 OA
ATOM      2  C   UNL d   1      25.074 -13.855  -3.582  0.00  0.00     0.286 C 
ATOM      3  N   UNL d   1      25.582 -12.620  -3.190  0.00  0.00    -0.264 N 
ATOM      4  H   UNL d   1      25.972 -12.444  -2.272  0.00  0.00     0.190 HD
ENDROOT
BRANCH   2   5
ATOM      5  C   UNL d   1      25.202 -14.973  -2.566  0.00  0.00     0.106 A 
ATOM      6  C   UNL d   1      26.401 -15.402  -2.141  0.00  0.00     0.048 A 
ATOM      7  C   UNL d   1      26.483 -16.480  -1.142  0.00  0.00    -0.018 A 
ATOM      8  C   UNL d   1      27.719 -16.966  -0.702  0.00  0.00     0.012 A 
ATOM      9  C   UNL d   1      25.309 -17.050  -0.626  0.00  0.00     0.042 A 
ATOM     10  C   UNL d   1      27.781 -18.009   0.231  0.00  0.00     0.001 A 
ATOM     11  C   UNL d   1      26.608 -18.575   0.732  0.00  0.00     0.001 A 
ATOM     12  C   UNL d   1      25.369 -18.097   0.305  0.00  0.00     0.018 A 
ATOM     13  C   UNL d   1      24.003 -16.515  -1.086  0.00  0.00     0.257 A 
ATOM     14  O   UNL d   1      22.944 -16.963  -0.654  0.00  0.00    -0.267 OA
ATOM     15  N   UNL d   1      24.045 -15.499  -2.020  0.00  0.00    -0.318 N 
ATOM     16  H   UNL d   1      23.151 -15.110  -2.300  0.00  0.00     0.169 HD
ENDBRANCH   2   5
BRANCH   3  17
ATOM     17  N   UNL d   1      25.453 -11.531  -4.065  0.00  0.00    -0.298 N 
ATOM     18  H   UNL d   1      25.064 -11.705  -4.992  0.00  0.00     0.187 HD
BRANCH  17  19
ATOM     19  C   UNL d   1      25.748 -10.229  -3.637  0.00  0.00     0.048 A 
ATOM     20  C   UNL d   1      26.560  -9.967  -2.524  0.00  0.00     0.034 A 
ATOM     21  C   UNL d   1      26.822  -8.654  -2.106  0.00  0.00     0.044 A 
ATOM     22  C   UNL d   1      26.252  -7.586  -2.787  0.00  0.00     0.116 A 
ATOM     23  F   UNL d   1      26.491  -6.332  -2.377  0.00  0.00    -0.206 F 
ATOM     24  C   UNL d   1      25.435  -7.809  -3.885  0.00  0.00     0.044 A 
ATOM     25  C   UNL d   1      25.189  -9.124  -4.308  0.00  0.00     0.034 A 
ENDBRANCH  17  19
ENDBRANCH   3  17
TORSDOF 3
ENDMDL
