MODEL 1
REMARK VINA RESULT:    -8.142      0.000      0.000
REMARK INTER + INTRA:         -15.185
REMARK INTER:                 -10.826
REMARK INTRA:                  -4.359
REMARK CONF_INDEPENDENT:        2.685
REMARK UNBOUND:                -4.359
REMARK  9 active torsions:
REMARK  status: ('A' for Active; 'I' for Inactive)
REMARK    1  A    between atoms: O_2  and  C_3 
REMARK    2  A    between atoms: C_7  and  C_6 
REMARK    3  A    between atoms: C_7  and  N_17 
REMARK    4  A    between atoms: C_7  and  C_8 
REMARK       I    between atoms: C_8  and  N_10 
REMARK    5  A    between atoms: N_10  and  C_11 
REMARK    6  A    between atoms: N_17  and  C_18 
REMARK       I    between atoms: N_17  and  C_24 
REMARK    7  A    between atoms: C_18  and  C_19 
REMARK    8  A    between atoms: C_24  and  C_26 
REMARK    9  A    between atoms: C_29  and  C_30 
REMARK       I    between atoms: C_30  and  N_31 
ROOT
ATOM      1  N   UNL d   1      27.083 -16.490  -1.965  0.00  0.00    -0.329 N 
ATOM      2  C   UNL d   1      28.441 -16.604  -2.163  0.00  0.00     0.265 C 
ATOM      3  O   UNL d   1      29.103 -17.445  -1.562  0.00  0.00    -0.267 OA
ENDROOT
BRANCH   1   4
ATOM      4  C   UNL d   1      26.649 -17.422  -0.965  0.00  0.00     0.207 C 
BRANCH   4   5
ATOM      5  C   UNL d   1      27.170 -17.086   0.324  0.00  0.00     0.225 C 
ATOM      6  O   UNL d   1      26.651 -17.822   1.219  0.00  0.00    -0.277 OA
ATOM      7  N   UNL d   1      28.058 -15.617   0.488  0.00  0.00    -0.256 NA
ATOM      8  H   UNL d   1      28.155 -15.129  -0.416  0.00  0.00     0.130 HD
BRANCH   7   9
ATOM      9  C   UNL d   1      27.404 -14.344   1.760  0.00  0.00     0.063 C 
ATOM     10  C   UNL d   1      28.048 -14.584   3.837  0.00  0.00     0.020 C 
ATOM     11  C   UNL d   1      27.676 -13.355   5.104  0.00  0.00     0.002 C 
ATOM     12  C   UNL d   1      28.040 -11.830   4.532  0.00  0.00     0.000 C 
ATOM     13  C   UNL d   1      27.339 -11.204   2.927  0.00  0.00     0.002 C 
ATOM     14  C   UNL d   1      27.470 -12.319   1.351  0.00  0.00     0.020 C 
ENDBRANCH   7   9
ENDBRANCH   4   5
BRANCH   4  15
ATOM     15  C   UNL d   1      25.114 -17.487  -0.799  0.00  0.00    -0.027 C 
ATOM     16  C   UNL d   1      24.524 -18.732  -0.520  0.00  0.00     0.012 C 
ATOM     17  C   UNL d   1      23.153 -18.838  -0.541  0.00  0.00     0.037 C 
ATOM     18  C   UNL d   1      22.384 -17.674  -0.589  0.00  0.00     0.068 C 
ATOM     19  C   UNL d   1      22.985 -16.418  -0.519  0.00  0.00     0.037 C 
ATOM     20  C   UNL d   1      24.356 -16.327  -0.575  0.00  0.00     0.012 C 
BRANCH  18  21
ATOM     21  O   UNL d   1      21.030 -17.831  -0.618  0.00  0.00    -0.356 OA
ATOM     22  C   UNL d   1      20.635 -19.199  -0.656  0.00  0.00     0.210 C 
ENDBRANCH  18  21
ENDBRANCH   4  15
ENDBRANCH   1   4
BRANCH   1  23
ATOM     23  C   UNL d   1      26.199 -15.733  -2.870  0.00  0.00     0.150 C 
BRANCH  23  24
ATOM     24  C   UNL d   1      26.209 -14.281  -2.729  0.00  0.00     0.048 C 
ATOM     25  C   UNL d   1      26.918 -13.017  -1.714  0.00  0.00     0.019 C 
ATOM     26  C   UNL d   1      26.656 -11.457  -2.174  0.00  0.00     0.012 C 
ATOM     27  C   UNL d   1      25.912 -11.469  -3.888  0.00  0.00     0.067 C 
ATOM     28  S   UNL d   1      25.334 -13.507  -4.646  0.00  0.00    -0.149 SA
ENDBRANCH  23  24
ENDBRANCH   1  23
BRANCH   2  29
ATOM     29  C   UNL d   1      28.988 -15.614  -3.018  0.00  0.00     0.120 A 
ATOM     30  S   UNL d   1      28.913 -15.742  -4.701  0.00  0.00     0.020 SA
ATOM     31  N   UNL d   1      29.634 -14.262  -5.009  0.00  0.00    -0.203 NA
ATOM     32  C   UNL d   1      29.948 -13.684  -3.837  0.00  0.00     0.160 A 
ATOM     33  C   UNL d   1      29.619 -14.447  -2.675  0.00  0.00     0.085 A 
ATOM     34  N   UNL d   1      29.895 -14.044  -1.409  0.00  0.00    -0.396 N 
ATOM     35  H   UNL d   1      30.194 -13.075  -1.243  0.00  0.00     0.156 HD
ATOM     36  H   UNL d   1      29.639 -14.550  -0.568  0.00  0.00     0.156 HD
BRANCH  32  37
ATOM     37  C   UNL d   1      30.599 -12.370  -3.707  0.00  0.00     0.271 C 
ATOM     38  N   UNL d   1      31.087 -11.772  -4.828  0.00  0.00    -0.365 N 
ATOM     39  H   UNL d   1      31.015 -12.200  -5.739  0.00  0.00     0.159 HD
ATOM     40  H   UNL d   1      31.551 -10.883  -4.708  0.00  0.00     0.159 HD
ATOM     41  O   UNL d   1      30.716 -11.791  -2.624  0.00  0.00    -0.266 OA
ENDBRANCH  32  37
ENDBRANCH   2  29
TORSDOF 9
ENDMDL
MODEL 2
REMARK VINA RESULT:    -7.953      1.745      2.387
REMARK INTER + INTRA:         -14.439
REMARK INTER:                 -10.637
REMARK INTRA:                  -3.801
REMARK CONF_INDEPENDENT:        2.685
REMARK UNBOUND:                -3.801
REMARK  9 active torsions:
REMARK  status: ('A' for Active; 'I' for Inactive)
REMARK    1  A    between atoms: O_2  and  C_3 
REMARK    2  A    between atoms: C_7  and  C_6 
REMARK    3  A    between atoms: C_7  and  N_17 
REMARK    4  A    between atoms: C_7  and  C_8 
REMARK       I    between atoms: C_8  and  N_10 
REMARK    5  A    between atoms: N_10  and  C_11 
REMARK    6  A    between atoms: N_17  and  C_18 
REMARK       I    between atoms: N_17  and  C_24 
REMARK    7  A    between atoms: C_18  and  C_19 
REMARK    8  A    between atoms: C_24  and  C_26 
REMARK    9  A    between atoms: C_29  and  C_30 
REMARK       I    between atoms: C_30  and  N_31 
ROOT
ATOM      1  N   UNL d   1      27.978 -15.497  -2.557  0.00  0.00    -0.329 N 
ATOM      2  C   UNL d   1      29.288 -15.837  -2.816  0.00  0.00     0.265 C 
ATOM      3  O   UNL d   1      30.017 -16.280  -1.933  0.00  0.00    -0.267 OA
ENDROOT
BRANCH   1   4
ATOM      4  C   UNL d   1      27.683 -15.691  -1.167  0.00  0.00     0.207 C 
BRANCH   4   5
ATOM      5  C   UNL d   1      27.536 -14.442  -0.485  0.00  0.00     0.225 C 
ATOM      6  O   UNL d   1      28.224 -13.540  -1.055  0.00  0.00    -0.277 OA
ATOM      7  N   UNL d   1      26.811 -14.447   1.079  0.00  0.00    -0.256 NA
ATOM      8  H   UNL d   1      26.512 -15.396   1.356  0.00  0.00     0.130 HD
BRANCH   7   9
ATOM      9  C   UNL d   1      27.847 -13.730   2.520  0.00  0.00     0.063 C 
ATOM     10  C   UNL d   1      27.404 -11.681   3.147  0.00  0.00     0.020 C 
ATOM     11  C   UNL d   1      28.157 -10.942   4.610  0.00  0.00     0.002 C 
ATOM     12  C   UNL d   1      28.048 -12.003   5.894  0.00  0.00     0.000 C 
ATOM     13  C   UNL d   1      28.678 -13.748   5.766  0.00  0.00     0.002 C 
ATOM     14  C   UNL d   1      28.148 -14.824   4.247  0.00  0.00     0.020 C 
ENDBRANCH   7   9
ENDBRANCH   4   5
BRANCH   4  15
ATOM     15  C   UNL d   1      26.375 -16.472  -0.912  0.00  0.00    -0.027 C 
ATOM     16  C   UNL d   1      26.403 -17.546  -0.005  0.00  0.00     0.012 C 
ATOM     17  C   UNL d   1      25.296 -18.356   0.102  0.00  0.00     0.037 C 
ATOM     18  C   UNL d   1      24.100 -17.951  -0.494  0.00  0.00     0.068 C 
ATOM     19  C   UNL d   1      23.994 -16.703  -1.107  0.00  0.00     0.037 C 
ATOM     20  C   UNL d   1      25.126 -15.940  -1.272  0.00  0.00     0.012 C 
BRANCH  18  21
ATOM     21  O   UNL d   1      23.034 -18.791  -0.368  0.00  0.00    -0.356 OA
ATOM     22  C   UNL d   1      21.833 -18.239  -0.896  0.00  0.00     0.210 C 
ENDBRANCH  18  21
ENDBRANCH   4  15
ENDBRANCH   1   4
BRANCH   1  23
ATOM     23  C   UNL d   1      26.982 -15.266  -3.619  0.00  0.00     0.150 C 
BRANCH  23  24
ATOM     24  C   UNL d   1      26.475 -13.904  -3.753  0.00  0.00     0.048 C 
ATOM     25  C   UNL d   1      25.779 -12.608  -2.772  0.00  0.00     0.019 C 
ATOM     26  C   UNL d   1      25.533 -11.159  -3.515  0.00  0.00     0.012 C 
ATOM     27  C   UNL d   1      26.386 -11.202  -5.178  0.00  0.00     0.067 C 
ATOM     28  S   UNL d   1      27.184 -13.221  -5.772  0.00  0.00    -0.149 SA
ENDBRANCH  23  24
ENDBRANCH   1  23
BRANCH   2  29
ATOM     29  C   UNL d   1      29.718 -15.528  -4.131  0.00  0.00     0.120 A 
ATOM     30  S   UNL d   1      30.021 -16.728  -5.280  0.00  0.00     0.020 SA
ATOM     31  N   UNL d   1      30.377 -15.671  -6.530  0.00  0.00    -0.203 NA
ATOM     32  C   UNL d   1      30.285 -14.412  -6.068  0.00  0.00     0.160 A 
ATOM     33  C   UNL d   1      29.939 -14.295  -4.686  0.00  0.00     0.085 A 
ATOM     34  N   UNL d   1      29.837 -13.108  -4.036  0.00  0.00    -0.396 N 
ATOM     35  H   UNL d   1      29.833 -12.235  -4.579  0.00  0.00     0.156 HD
ATOM     36  H   UNL d   1      29.558 -12.998  -3.068  0.00  0.00     0.156 HD
BRANCH  32  37
ATOM     37  C   UNL d   1      30.529 -13.209  -6.881  0.00  0.00     0.271 C 
ATOM     38  N   UNL d   1      30.233 -13.250  -8.208  0.00  0.00    -0.365 N 
ATOM     39  H   UNL d   1      29.852 -14.074  -8.648  0.00  0.00     0.159 HD
ATOM     40  H   UNL d   1      30.433 -12.420  -8.748  0.00  0.00     0.159 HD
ATOM     41  O   UNL d   1      30.989 -12.168  -6.404  0.00  0.00    -0.266 OA
ENDBRANCH  32  37
ENDBRANCH   2  29
TORSDOF 9
ENDMDL
MODEL 3
REMARK VINA RESULT:    -7.685      3.548      6.514
REMARK INTER + INTRA:         -14.077
REMARK INTER:                 -10.369
REMARK INTRA:                  -3.707
REMARK CONF_INDEPENDENT:        2.685
REMARK UNBOUND:                -3.707
REMARK  9 active torsions:
REMARK  status: ('A' for Active; 'I' for Inactive)
REMARK    1  A    between atoms: O_2  and  C_3 
REMARK    2  A    between atoms: C_7  and  C_6 
REMARK    3  A    between atoms: C_7  and  N_17 
REMARK    4  A    between atoms: C_7  and  C_8 
REMARK       I    between atoms: C_8  and  N_10 
REMARK    5  A    between atoms: N_10  and  C_11 
REMARK    6  A    between atoms: N_17  and  C_18 
REMARK       I    between atoms: N_17  and  C_24 
REMARK    7  A    between atoms: C_18  and  C_19 
REMARK    8  A    between atoms: C_24  and  C_26 
REMARK    9  A    between atoms: C_29  and  C_30 
REMARK       I    between atoms: C_30  and  N_31 
ROOT
ATOM      1  N   UNL d   1      27.589 -13.535  -5.037  0.00  0.00    -0.329 N 
ATOM      2  C   UNL d   1      27.654 -14.798  -5.582  0.00  0.00     0.265 C 
ATOM      3  O   UNL d   1      26.640 -15.467  -5.760  0.00  0.00    -0.267 OA
ENDROOT
BRANCH   1   4
ATOM      4  C   UNL d   1      26.235 -13.212  -4.697  0.00  0.00     0.207 C 
BRANCH   4   5
ATOM      5  C   UNL d   1      25.933 -13.577  -3.347  0.00  0.00     0.225 C 
ATOM      6  O   UNL d   1      26.929 -13.351  -2.593  0.00  0.00    -0.277 OA
ATOM      7  N   UNL d   1      24.526 -14.527  -3.053  0.00  0.00    -0.256 NA
ATOM      8  H   UNL d   1      24.003 -14.711  -3.924  0.00  0.00     0.130 HD
BRANCH   7   9
ATOM      9  C   UNL d   1      24.780 -16.208  -2.172  0.00  0.00     0.063 C 
ATOM     10  C   UNL d   1      26.701 -16.536  -1.178  0.00  0.00     0.020 C 
ATOM     11  C   UNL d   1      27.012 -17.981  -0.146  0.00  0.00     0.002 C 
ATOM     12  C   UNL d   1      25.740 -18.200   0.913  0.00  0.00     0.000 C 
ATOM     13  C   UNL d   1      23.985 -18.315   0.309  0.00  0.00     0.002 C 
ATOM     14  C   UNL d   1      23.327 -16.967  -0.914  0.00  0.00     0.020 C 
ENDBRANCH   7   9
ENDBRANCH   4   5
BRANCH   4  15
ATOM     15  C   UNL d   1      25.905 -11.707  -4.814  0.00  0.00    -0.027 C 
ATOM     16  C   UNL d   1      25.952 -10.919  -3.651  0.00  0.00     0.012 C 
ATOM     17  C   UNL d   1      25.496  -9.622  -3.706  0.00  0.00     0.037 C 
ATOM     18  C   UNL d   1      25.237  -9.048  -4.951  0.00  0.00     0.068 C 
ATOM     19  C   UNL d   1      25.524  -9.736  -6.130  0.00  0.00     0.037 C 
ATOM     20  C   UNL d   1      25.907 -11.055  -6.058  0.00  0.00     0.012 C 
BRANCH  18  21
ATOM     21  O   UNL d   1      24.777  -7.764  -4.954  0.00  0.00    -0.356 OA
ATOM     22  C   UNL d   1      23.427  -7.664  -5.395  0.00  0.00     0.210 C 
ENDBRANCH  18  21
ENDBRANCH   4  15
ENDBRANCH   1   4
BRANCH   1  23
ATOM     23  C   UNL d   1      28.709 -12.578  -5.092  0.00  0.00     0.150 C 
BRANCH  23  24
ATOM     24  C   UNL d   1      29.205 -12.080  -3.812  0.00  0.00     0.048 C 
ATOM     25  C   UNL d   1      29.086 -10.658  -2.767  0.00  0.00     0.019 C 
ATOM     26  C   UNL d   1      29.802 -10.759  -1.286  0.00  0.00     0.012 C 
ATOM     27  C   UNL d   1      30.294 -12.538  -0.994  0.00  0.00     0.067 C 
ATOM     28  S   UNL d   1      30.060 -13.883  -2.783  0.00  0.00    -0.149 SA
ENDBRANCH  23  24
ENDBRANCH   1  23
BRANCH   2  29
ATOM     29  C   UNL d   1      28.973 -15.268  -5.803  0.00  0.00     0.120 A 
ATOM     30  S   UNL d   1      29.655 -16.498  -4.867  0.00  0.00     0.020 SA
ATOM     31  N   UNL d   1      31.097 -16.569  -5.717  0.00  0.00    -0.203 NA
ATOM     32  C   UNL d   1      31.066 -15.646  -6.694  0.00  0.00     0.160 A 
ATOM     33  C   UNL d   1      29.874 -14.861  -6.752  0.00  0.00     0.085 A 
ATOM     34  N   UNL d   1      29.678 -13.858  -7.645  0.00  0.00    -0.396 N 
ATOM     35  H   UNL d   1      30.327 -13.755  -8.435  0.00  0.00     0.156 HD
ATOM     36  H   UNL d   1      28.828 -13.313  -7.729  0.00  0.00     0.156 HD
BRANCH  32  37
ATOM     37  C   UNL d   1      32.161 -15.412  -7.649  0.00  0.00     0.271 C 
ATOM     38  N   UNL d   1      33.342 -16.060  -7.456  0.00  0.00    -0.365 N 
ATOM     39  H   UNL d   1      33.487 -16.693  -6.684  0.00  0.00     0.159 HD
ATOM     40  H   UNL d   1      34.086 -15.863  -8.111  0.00  0.00     0.159 HD
ATOM     41  O   UNL d   1      32.048 -14.654  -8.616  0.00  0.00    -0.266 OA
ENDBRANCH  32  37
ENDBRANCH   2  29
TORSDOF 9
ENDMDL
MODEL 4
REMARK VINA RESULT:    -7.630      2.406      3.158
REMARK INTER + INTRA:         -14.106
REMARK INTER:                 -10.314
REMARK INTRA:                  -3.791
REMARK CONF_INDEPENDENT:        2.685
REMARK UNBOUND:                -3.791
REMARK  9 active torsions:
REMARK  status: ('A' for Active; 'I' for Inactive)
REMARK    1  A    between atoms: O_2  and  C_3 
REMARK    2  A    between atoms: C_7  and  C_6 
REMARK    3  A    between atoms: C_7  and  N_17 
REMARK    4  A    between atoms: C_7  and  C_8 
REMARK       I    between atoms: C_8  and  N_10 
REMARK    5  A    between atoms: N_10  and  C_11 
REMARK    6  A    between atoms: N_17  and  C_18 
REMARK       I    between atoms: N_17  and  C_24 
REMARK    7  A    between atoms: C_18  and  C_19 
REMARK    8  A    between atoms: C_24  and  C_26 
REMARK    9  A    between atoms: C_29  and  C_30 
REMARK       I    between atoms: C_30  and  N_31 
ROOT
ATOM      1  N   UNL d   1      26.086 -15.283  -2.198  0.00  0.00    -0.329 N 
ATOM      2  C   UNL d   1      25.832 -15.229  -3.551  0.00  0.00     0.265 C 
ATOM      3  O   UNL d   1      25.489 -16.231  -4.174  0.00  0.00    -0.267 OA
ENDROOT
BRANCH   1   4
ATOM      4  C   UNL d   1      25.942 -16.626  -1.721  0.00  0.00     0.207 C 
BRANCH   4   5
ATOM      5  C   UNL d   1      26.688 -16.837  -0.519  0.00  0.00     0.225 C 
ATOM      6  O   UNL d   1      25.912 -16.880   0.485  0.00  0.00    -0.277 OA
ATOM      7  N   UNL d   1      28.399 -16.642  -0.576  0.00  0.00    -0.256 NA
ATOM      8  H   UNL d   1      28.724 -16.417  -1.530  0.00  0.00     0.130 HD
BRANCH   7   9
ATOM      9  C   UNL d   1      29.167 -15.350   0.610  0.00  0.00     0.063 C 
ATOM     10  C   UNL d   1      27.990 -14.777   2.362  0.00  0.00     0.020 C 
ATOM     11  C   UNL d   1      28.660 -13.726   3.665  0.00  0.00     0.002 C 
ATOM     12  C   UNL d   1      30.173 -14.275   4.109  0.00  0.00     0.000 C 
ATOM     13  C   UNL d   1      31.519 -14.528   2.851  0.00  0.00     0.002 C 
ATOM     14  C   UNL d   1      31.124 -15.539   1.249  0.00  0.00     0.020 C 
ENDBRANCH   7   9
ENDBRANCH   4   5
BRANCH   4  15
ATOM     15  C   UNL d   1      24.483 -17.016  -1.389  0.00  0.00    -0.027 C 
ATOM     16  C   UNL d   1      24.211 -18.349  -1.035  0.00  0.00     0.012 C 
ATOM     17  C   UNL d   1      22.901 -18.749  -0.907  0.00  0.00     0.037 C 
ATOM     18  C   UNL d   1      21.896 -17.781  -0.883  0.00  0.00     0.068 C 
ATOM     19  C   UNL d   1      22.212 -16.423  -0.892  0.00  0.00     0.037 C 
ATOM     20  C   UNL d   1      23.517 -16.040  -1.097  0.00  0.00     0.012 C 
BRANCH  18  21
ATOM     21  O   UNL d   1      20.613 -18.227  -0.764  0.00  0.00    -0.356 OA
ATOM     22  C   UNL d   1      20.510 -19.394   0.046  0.00  0.00     0.210 C 
ENDBRANCH  18  21
ENDBRANCH   4  15
ENDBRANCH   1   4
BRANCH   1  23
ATOM     23  C   UNL d   1      26.188 -14.080  -1.352  0.00  0.00     0.150 C 
BRANCH  23  24
ATOM     24  C   UNL d   1      27.506 -13.462  -1.253  0.00  0.00     0.048 C 
ATOM     25  C   UNL d   1      28.992 -13.268  -2.193  0.00  0.00     0.019 C 
ATOM     26  C   UNL d   1      30.147 -12.274  -1.566  0.00  0.00     0.012 C 
ATOM     27  C   UNL d   1      29.401 -11.345  -0.126  0.00  0.00     0.067 C 
ATOM     28  S   UNL d   1      27.355 -12.053   0.489  0.00  0.00    -0.149 SA
ENDBRANCH  23  24
ENDBRANCH   1  23
BRANCH   2  29
ATOM     29  C   UNL d   1      26.105 -13.971  -4.144  0.00  0.00     0.120 A 
ATOM     30  S   UNL d   1      25.211 -12.588  -3.764  0.00  0.00     0.020 SA
ATOM     31  N   UNL d   1      26.111 -11.546  -4.719  0.00  0.00    -0.203 NA
ATOM     32  C   UNL d   1      27.072 -12.252  -5.340  0.00  0.00     0.160 A 
ATOM     33  C   UNL d   1      27.077 -13.653  -5.056  0.00  0.00     0.085 A 
ATOM     34  N   UNL d   1      27.947 -14.529  -5.618  0.00  0.00    -0.396 N 
ATOM     35  H   UNL d   1      28.757 -14.170  -6.138  0.00  0.00     0.156 HD
ATOM     36  H   UNL d   1      27.994 -15.519  -5.404  0.00  0.00     0.156 HD
BRANCH  32  37
ATOM     37  C   UNL d   1      28.060 -11.675  -6.266  0.00  0.00     0.271 C 
ATOM     38  N   UNL d   1      28.016 -10.337  -6.512  0.00  0.00    -0.365 N 
ATOM     39  H   UNL d   1      27.332  -9.734  -6.080  0.00  0.00     0.159 HD
ATOM     40  H   UNL d   1      28.689  -9.970  -7.170  0.00  0.00     0.159 HD
ATOM     41  O   UNL d   1      28.924 -12.356  -6.823  0.00  0.00    -0.266 OA
ENDBRANCH  32  37
ENDBRANCH   2  29
TORSDOF 9
ENDMDL
MODEL 5
REMARK VINA RESULT:    -7.625      3.736      6.868
REMARK INTER + INTRA:         -14.277
REMARK INTER:                 -10.309
REMARK INTRA:                  -3.968
REMARK CONF_INDEPENDENT:        2.685
REMARK UNBOUND:                -3.968
REMARK  9 active torsions:
REMARK  status: ('A' for Active; 'I' for Inactive)
REMARK    1  A    between atoms: O_2  and  C_3 
REMARK    2  A    between atoms: C_7  and  C_6 
REMARK    3  A    between atoms: C_7  and  N_17 
REMARK    4  A    between atoms: C_7  and  C_8 
REMARK       I    between atoms: C_8  and  N_10 
REMARK    5  A    between atoms: N_10  and  C_11 
REMARK    6  A    between atoms: N_17  and  C_18 
REMARK       I    between atoms: N_17  and  C_24 
REMARK    7  A    between atoms: C_18  and  C_19 
REMARK    8  A    between atoms: C_24  and  C_26 
REMARK    9  A    between atoms: C_29  and  C_30 
REMARK       I    between atoms: C_30  and  N_31 
ROOT
ATOM      1  N   UNL d   1      27.646 -13.106  -5.081  0.00  0.00    -0.329 N 
ATOM      2  C   UNL d   1      27.841 -14.437  -5.377  0.00  0.00     0.265 C 
ATOM      3  O   UNL d   1      26.891 -15.187  -5.586  0.00  0.00    -0.267 OA
ENDROOT
BRANCH   1   4
ATOM      4  C   UNL d   1      26.244 -12.814  -5.013  0.00  0.00     0.207 C 
BRANCH   4   5
ATOM      5  C   UNL d   1      25.659 -13.331  -3.815  0.00  0.00     0.225 C 
ATOM      6  O   UNL d   1      26.106 -12.713  -2.800  0.00  0.00    -0.277 OA
ATOM      7  N   UNL d   1      24.805 -14.825  -3.903  0.00  0.00    -0.256 NA
ATOM      8  H   UNL d   1      24.773 -15.189  -4.869  0.00  0.00     0.130 HD
BRANCH   7   9
ATOM      9  C   UNL d   1      25.419 -16.246  -2.776  0.00  0.00     0.063 C 
ATOM     10  C   UNL d   1      27.282 -15.917  -1.677  0.00  0.00     0.020 C 
ATOM     11  C   UNL d   1      27.880 -17.079  -0.434  0.00  0.00     0.002 C 
ATOM     12  C   UNL d   1      26.634 -17.485   0.600  0.00  0.00     0.000 C 
ATOM     13  C   UNL d   1      25.017 -18.142  -0.042  0.00  0.00     0.002 C 
ATOM     14  C   UNL d   1      24.123 -17.191  -1.472  0.00  0.00     0.020 C 
ENDBRANCH   7   9
ENDBRANCH   4   5
BRANCH   4  15
ATOM     15  C   UNL d   1      25.922 -11.303  -5.026  0.00  0.00    -0.027 C 
ATOM     16  C   UNL d   1      26.359 -10.516  -3.946  0.00  0.00     0.012 C 
ATOM     17  C   UNL d   1      25.933  -9.211  -3.857  0.00  0.00     0.037 C 
ATOM     18  C   UNL d   1      25.293  -8.632  -4.954  0.00  0.00     0.068 C 
ATOM     19  C   UNL d   1      25.168  -9.325  -6.158  0.00  0.00     0.037 C 
ATOM     20  C   UNL d   1      25.530 -10.651  -6.206  0.00  0.00     0.012 C 
BRANCH  18  21
ATOM     21  O   UNL d   1      24.881  -7.340  -4.815  0.00  0.00    -0.356 OA
ATOM     22  C   UNL d   1      23.482  -7.182  -5.028  0.00  0.00     0.210 C 
ENDBRANCH  18  21
ENDBRANCH   4  15
ENDBRANCH   1   4
BRANCH   1  23
ATOM     23  C   UNL d   1      28.727 -12.105  -5.133  0.00  0.00     0.150 C 
BRANCH  23  24
ATOM     24  C   UNL d   1      29.405 -11.942  -6.415  0.00  0.00     0.048 C 
ATOM     25  C   UNL d   1      31.036 -11.912  -7.098  0.00  0.00     0.019 C 
ATOM     26  C   UNL d   1      31.156 -11.836  -8.739  0.00  0.00     0.012 C 
ATOM     27  C   UNL d   1      29.459 -12.131  -9.465  0.00  0.00     0.067 C 
ATOM     28  S   UNL d   1      27.790 -12.185  -7.957  0.00  0.00    -0.149 SA
ENDBRANCH  23  24
ENDBRANCH   1  23
BRANCH   2  29
ATOM     29  C   UNL d   1      29.194 -14.856  -5.308  0.00  0.00     0.120 A 
ATOM     30  S   UNL d   1      29.940 -15.235  -3.841  0.00  0.00     0.020 SA
ATOM     31  N   UNL d   1      31.400 -15.701  -4.518  0.00  0.00    -0.203 NA
ATOM     32  C   UNL d   1      31.325 -15.548  -5.851  0.00  0.00     0.160 A 
ATOM     33  C   UNL d   1      30.082 -15.035  -6.335  0.00  0.00     0.085 A 
ATOM     34  N   UNL d   1      29.835 -14.779  -7.645  0.00  0.00    -0.396 N 
ATOM     35  H   UNL d   1      30.490 -15.124  -8.357  0.00  0.00     0.156 HD
ATOM     36  H   UNL d   1      28.951 -14.451  -8.016  0.00  0.00     0.156 HD
BRANCH  32  37
ATOM     37  C   UNL d   1      32.420 -15.856  -6.786  0.00  0.00     0.271 C 
ATOM     38  N   UNL d   1      33.656 -16.111  -6.277  0.00  0.00    -0.365 N 
ATOM     39  H   UNL d   1      33.842 -16.095  -5.285  0.00  0.00     0.159 HD
ATOM     40  H   UNL d   1      34.395 -16.295  -6.940  0.00  0.00     0.159 HD
ATOM     41  O   UNL d   1      32.258 -15.895  -8.008  0.00  0.00    -0.266 OA
ENDBRANCH  32  37
ENDBRANCH   2  29
TORSDOF 9
ENDMDL
MODEL 6
REMARK VINA RESULT:    -7.567      2.825      5.571
REMARK INTER + INTRA:         -14.043
REMARK INTER:                 -10.252
REMARK INTRA:                  -3.791
REMARK CONF_INDEPENDENT:        2.685
REMARK UNBOUND:                -3.791
REMARK  9 active torsions:
REMARK  status: ('A' for Active; 'I' for Inactive)
REMARK    1  A    between atoms: O_2  and  C_3 
REMARK    2  A    between atoms: C_7  and  C_6 
REMARK    3  A    between atoms: C_7  and  N_17 
REMARK    4  A    between atoms: C_7  and  C_8 
REMARK       I    between atoms: C_8  and  N_10 
REMARK    5  A    between atoms: N_10  and  C_11 
REMARK    6  A    between atoms: N_17  and  C_18 
REMARK       I    between atoms: N_17  and  C_24 
REMARK    7  A    between atoms: C_18  and  C_19 
REMARK    8  A    between atoms: C_24  and  C_26 
REMARK    9  A    between atoms: C_29  and  C_30 
REMARK       I    between atoms: C_30  and  N_31 
ROOT
ATOM      1  N   UNL d   1      26.638 -15.435  -0.852  0.00  0.00    -0.329 N 
ATOM      2  C   UNL d   1      26.975 -14.380  -0.033  0.00  0.00     0.265 C 
ATOM      3  O   UNL d   1      26.166 -13.495   0.230  0.00  0.00    -0.267 OA
ENDROOT
BRANCH   1   4
ATOM      4  C   UNL d   1      25.299 -15.276  -1.338  0.00  0.00     0.207 C 
BRANCH   4   5
ATOM      5  C   UNL d   1      25.267 -15.195  -2.766  0.00  0.00     0.225 C 
ATOM      6  O   UNL d   1      25.530 -16.325  -3.281  0.00  0.00    -0.277 OA
ATOM      7  N   UNL d   1      25.249 -13.633  -3.494  0.00  0.00    -0.256 NA
ATOM      8  H   UNL d   1      25.225 -12.883  -2.785  0.00  0.00     0.130 HD
BRANCH   7   9
ATOM      9  C   UNL d   1      26.669 -13.225  -4.712  0.00  0.00     0.063 C 
ATOM     10  C   UNL d   1      28.402 -12.160  -3.907  0.00  0.00     0.020 C 
ATOM     11  C   UNL d   1      29.893 -11.881  -4.881  0.00  0.00     0.002 C 
ATOM     12  C   UNL d   1      30.352 -13.303  -5.626  0.00  0.00     0.000 C 
ATOM     13  C   UNL d   1      29.167 -14.267  -6.687  0.00  0.00     0.002 C 
ATOM     14  C   UNL d   1      27.406 -14.670  -5.993  0.00  0.00     0.020 C 
ENDBRANCH   7   9
ENDBRANCH   4   5
BRANCH   4  15
ATOM     15  C   UNL d   1      24.356 -16.439  -0.957  0.00  0.00    -0.027 C 
ATOM     16  C   UNL d   1      24.908 -17.571  -0.332  0.00  0.00     0.012 C 
ATOM     17  C   UNL d   1      24.116 -18.680  -0.145  0.00  0.00     0.037 C 
ATOM     18  C   UNL d   1      22.740 -18.571  -0.345  0.00  0.00     0.068 C 
ATOM     19  C   UNL d   1      22.155 -17.339  -0.637  0.00  0.00     0.037 C 
ATOM     20  C   UNL d   1      22.965 -16.259  -0.895  0.00  0.00     0.012 C 
BRANCH  18  21
ATOM     21  O   UNL d   1      21.998 -19.700  -0.156  0.00  0.00    -0.356 OA
ATOM     22  C   UNL d   1      20.597 -19.456  -0.226  0.00  0.00     0.210 C 
ENDBRANCH  18  21
ENDBRANCH   4  15
ENDBRANCH   1   4
BRANCH   1  23
ATOM     23  C   UNL d   1      27.442 -16.667  -0.946  0.00  0.00     0.150 C 
BRANCH  23  24
ATOM     24  C   UNL d   1      28.485 -16.689  -1.967  0.00  0.00     0.048 C 
ATOM     25  C   UNL d   1      28.880 -15.951  -3.526  0.00  0.00     0.019 C 
ATOM     26  C   UNL d   1      30.365 -16.286  -4.155  0.00  0.00     0.012 C 
ATOM     27  C   UNL d   1      31.380 -17.139  -2.838  0.00  0.00     0.067 C 
ATOM     28  S   UNL d   1      30.231 -17.708  -0.989  0.00  0.00    -0.149 SA
ENDBRANCH  23  24
ENDBRANCH   1  23
BRANCH   2  29
ATOM     29  C   UNL d   1      28.335 -14.367   0.369  0.00  0.00     0.120 A 
ATOM     30  S   UNL d   1      29.579 -13.945  -0.693  0.00  0.00     0.020 SA
ATOM     31  N   UNL d   1      30.807 -14.064   0.440  0.00  0.00    -0.203 NA
ATOM     32  C   UNL d   1      30.274 -14.443   1.615  0.00  0.00     0.160 A 
ATOM     33  C   UNL d   1      28.861 -14.656   1.601  0.00  0.00     0.085 A 
ATOM     34  N   UNL d   1      28.155 -15.077   2.680  0.00  0.00    -0.396 N 
ATOM     35  H   UNL d   1      28.604 -15.082   3.604  0.00  0.00     0.156 HD
ATOM     36  H   UNL d   1      27.149 -15.200   2.705  0.00  0.00     0.156 HD
BRANCH  32  37
ATOM     37  C   UNL d   1      31.048 -14.653   2.849  0.00  0.00     0.271 C 
ATOM     38  N   UNL d   1      32.407 -14.654   2.772  0.00  0.00    -0.365 N 
ATOM     39  H   UNL d   1      32.895 -14.515   1.900  0.00  0.00     0.159 HD
ATOM     40  H   UNL d   1      32.914 -14.825   3.628  0.00  0.00     0.159 HD
ATOM     41  O   UNL d   1      30.513 -14.825   3.947  0.00  0.00    -0.266 OA
ENDBRANCH  32  37
ENDBRANCH   2  29
TORSDOF 9
ENDMDL
MODEL 7
REMARK VINA RESULT:    -7.200      2.080      2.682
REMARK INTER + INTRA:         -14.206
REMARK INTER:                  -9.884
REMARK INTRA:                  -4.322
REMARK CONF_INDEPENDENT:        2.685
REMARK UNBOUND:                -4.322
REMARK  9 active torsions:
REMARK  status: ('A' for Active; 'I' for Inactive)
REMARK    1  A    between atoms: O_2  and  C_3 
REMARK    2  A    between atoms: C_7  and  C_6 
REMARK    3  A    between atoms: C_7  and  N_17 
REMARK    4  A    between atoms: C_7  and  C_8 
REMARK       I    between atoms: C_8  and  N_10 
REMARK    5  A    between atoms: N_10  and  C_11 
REMARK    6  A    between atoms: N_17  and  C_18 
REMARK       I    between atoms: N_17  and  C_24 
REMARK    7  A    between atoms: C_18  and  C_19 
REMARK    8  A    between atoms: C_24  and  C_26 
REMARK    9  A    between atoms: C_29  and  C_30 
REMARK       I    between atoms: C_30  and  N_31 
ROOT
ATOM      1  N   UNL d   1      27.244 -16.144  -1.951  0.00  0.00    -0.329 N 
ATOM      2  C   UNL d   1      28.621 -16.115  -1.984  0.00  0.00     0.265 C 
ATOM      3  O   UNL d   1      29.289 -16.540  -1.045  0.00  0.00    -0.267 OA
ENDROOT
BRANCH   1   4
ATOM      4  C   UNL d   1      26.791 -16.665  -0.694  0.00  0.00     0.207 C 
BRANCH   4   5
ATOM      5  C   UNL d   1      26.831 -15.667   0.330  0.00  0.00     0.225 C 
ATOM      6  O   UNL d   1      25.905 -14.815   0.158  0.00  0.00    -0.277 OA
ATOM      7  N   UNL d   1      28.233 -15.578   1.328  0.00  0.00    -0.256 NA
ATOM      8  H   UNL d   1      28.915 -16.317   1.092  0.00  0.00     0.130 HD
BRANCH   7   9
ATOM      9  C   UNL d   1      29.177 -13.913   1.355  0.00  0.00     0.063 C 
ATOM     10  C   UNL d   1      31.135 -13.858   0.380  0.00  0.00     0.020 C 
ATOM     11  C   UNL d   1      32.050 -12.321   0.154  0.00  0.00     0.002 C 
ATOM     12  C   UNL d   1      31.036 -11.148  -0.464  0.00  0.00     0.000 C 
ATOM     13  C   UNL d   1      29.429 -10.721   0.368  0.00  0.00     0.002 C 
ATOM     14  C   UNL d   1      28.219 -12.151   0.857  0.00  0.00     0.020 C 
ENDBRANCH   7   9
ENDBRANCH   4   5
BRANCH   4  15
ATOM     15  C   UNL d   1      25.336 -17.185  -0.724  0.00  0.00    -0.027 C 
ATOM     16  C   UNL d   1      25.041 -18.387  -0.059  0.00  0.00     0.012 C 
ATOM     17  C   UNL d   1      23.796 -18.950  -0.221  0.00  0.00     0.037 C 
ATOM     18  C   UNL d   1      22.787 -18.200  -0.827  0.00  0.00     0.068 C 
ATOM     19  C   UNL d   1      23.001 -16.867  -1.179  0.00  0.00     0.037 C 
ATOM     20  C   UNL d   1      24.269 -16.344  -1.081  0.00  0.00     0.012 C 
BRANCH  18  21
ATOM     21  O   UNL d   1      21.574 -18.804  -0.974  0.00  0.00    -0.356 OA
ATOM     22  C   UNL d   1      21.067 -19.325   0.250  0.00  0.00     0.210 C 
ENDBRANCH  18  21
ENDBRANCH   4  15
ENDBRANCH   1   4
BRANCH   1  23
ATOM     23  C   UNL d   1      26.407 -15.950  -3.149  0.00  0.00     0.150 C 
BRANCH  23  24
ATOM     24  C   UNL d   1      26.139 -14.570  -3.540  0.00  0.00     0.048 C 
ATOM     25  C   UNL d   1      25.630 -13.030  -2.835  0.00  0.00     0.019 C 
ATOM     26  C   UNL d   1      25.658 -11.712  -3.823  0.00  0.00     0.012 C 
ATOM     27  C   UNL d   1      26.556 -12.177  -5.395  0.00  0.00     0.067 C 
ATOM     28  S   UNL d   1      27.029 -14.368  -5.592  0.00  0.00    -0.149 SA
ENDBRANCH  23  24
ENDBRANCH   1  23
BRANCH   2  29
ATOM     29  C   UNL d   1      29.161 -15.468  -3.124  0.00  0.00     0.120 A 
ATOM     30  S   UNL d   1      29.298 -13.787  -3.219  0.00  0.00     0.020 SA
ATOM     31  N   UNL d   1      30.055 -13.770  -4.713  0.00  0.00    -0.203 NA
ATOM     32  C   UNL d   1      30.182 -15.037  -5.146  0.00  0.00     0.160 A 
ATOM     33  C   UNL d   1      29.651 -16.034  -4.271  0.00  0.00     0.085 A 
ATOM     34  N   UNL d   1      29.655 -17.361  -4.556  0.00  0.00    -0.396 N 
ATOM     35  H   UNL d   1      30.213 -17.704  -5.348  0.00  0.00     0.156 HD
ATOM     36  H   UNL d   1      29.318 -18.089  -3.937  0.00  0.00     0.156 HD
BRANCH  32  37
ATOM     37  C   UNL d   1      30.800 -15.419  -6.426  0.00  0.00     0.271 C 
ATOM     38  N   UNL d   1      30.765 -14.530  -7.456  0.00  0.00    -0.365 N 
ATOM     39  H   UNL d   1      30.330 -13.623  -7.368  0.00  0.00     0.159 HD
ATOM     40  H   UNL d   1      31.174 -14.826  -8.331  0.00  0.00     0.159 HD
ATOM     41  O   UNL d   1      31.350 -16.509  -6.598  0.00  0.00    -0.266 OA
ENDBRANCH  32  37
ENDBRANCH   2  29
TORSDOF 9
ENDMDL
MODEL 8
REMARK VINA RESULT:    -6.792      1.659      2.234
REMARK INTER + INTRA:         -14.276
REMARK INTER:                  -9.476
REMARK INTRA:                  -4.800
REMARK CONF_INDEPENDENT:        2.685
REMARK UNBOUND:                -4.800
REMARK  9 active torsions:
REMARK  status: ('A' for Active; 'I' for Inactive)
REMARK    1  A    between atoms: O_2  and  C_3 
REMARK    2  A    between atoms: C_7  and  C_6 
REMARK    3  A    between atoms: C_7  and  N_17 
REMARK    4  A    between atoms: C_7  and  C_8 
REMARK       I    between atoms: C_8  and  N_10 
REMARK    5  A    between atoms: N_10  and  C_11 
REMARK    6  A    between atoms: N_17  and  C_18 
REMARK       I    between atoms: N_17  and  C_24 
REMARK    7  A    between atoms: C_18  and  C_19 
REMARK    8  A    between atoms: C_24  and  C_26 
REMARK    9  A    between atoms: C_29  and  C_30 
REMARK       I    between atoms: C_30  and  N_31 
ROOT
ATOM      1  N   UNL d   1      27.198 -16.258  -1.823  0.00  0.00    -0.329 N 
ATOM      2  C   UNL d   1      28.558 -16.472  -1.873  0.00  0.00     0.265 C 
ATOM      3  O   UNL d   1      29.156 -16.983  -0.930  0.00  0.00    -0.267 OA
ENDROOT
BRANCH   1   4
ATOM      4  C   UNL d   1      26.681 -16.659  -0.547  0.00  0.00     0.207 C 
BRANCH   4   5
ATOM      5  C   UNL d   1      26.829 -15.621   0.426  0.00  0.00     0.225 C 
ATOM      6  O   UNL d   1      25.947 -14.723   0.256  0.00  0.00    -0.277 OA
ATOM      7  N   UNL d   1      28.280 -15.574   1.355  0.00  0.00    -0.256 NA
ATOM      8  H   UNL d   1      28.905 -16.362   1.123  0.00  0.00     0.130 HD
BRANCH   7   9
ATOM      9  C   UNL d   1      29.321 -13.970   1.261  0.00  0.00     0.063 C 
ATOM     10  C   UNL d   1      31.208 -14.066   0.159  0.00  0.00     0.020 C 
ATOM     11  C   UNL d   1      32.195 -12.595  -0.182  0.00  0.00     0.002 C 
ATOM     12  C   UNL d   1      31.212 -11.382  -0.773  0.00  0.00     0.000 C 
ATOM     13  C   UNL d   1      29.693 -10.832   0.147  0.00  0.00     0.002 C 
ATOM     14  C   UNL d   1      28.437 -12.169   0.764  0.00  0.00     0.020 C 
ENDBRANCH   7   9
ENDBRANCH   4   5
BRANCH   4  15
ATOM     15  C   UNL d   1      25.176 -17.011  -0.568  0.00  0.00    -0.027 C 
ATOM     16  C   UNL d   1      24.744 -18.142   0.146  0.00  0.00     0.012 C 
ATOM     17  C   UNL d   1      23.444 -18.566  -0.003  0.00  0.00     0.037 C 
ATOM     18  C   UNL d   1      22.530 -17.734  -0.650  0.00  0.00     0.068 C 
ATOM     19  C   UNL d   1      22.895 -16.451  -1.058  0.00  0.00     0.037 C 
ATOM     20  C   UNL d   1      24.214 -16.072  -0.970  0.00  0.00     0.012 C 
BRANCH  18  21
ATOM     21  O   UNL d   1      21.256 -18.202  -0.782  0.00  0.00    -0.356 OA
ATOM     22  C   UNL d   1      21.055 -19.445  -0.117  0.00  0.00     0.210 C 
ENDBRANCH  18  21
ENDBRANCH   4  15
ENDBRANCH   1   4
BRANCH   1  23
ATOM     23  C   UNL d   1      26.389 -15.950  -3.016  0.00  0.00     0.150 C 
BRANCH  23  24
ATOM     24  C   UNL d   1      26.210 -14.538  -3.337  0.00  0.00     0.048 C 
ATOM     25  C   UNL d   1      25.905 -12.989  -2.538  0.00  0.00     0.019 C 
ATOM     26  C   UNL d   1      25.961 -11.640  -3.482  0.00  0.00     0.012 C 
ATOM     27  C   UNL d   1      26.671 -12.117  -5.144  0.00  0.00     0.067 C 
ATOM     28  S   UNL d   1      26.929 -14.330  -5.454  0.00  0.00    -0.149 SA
ENDBRANCH  23  24
ENDBRANCH   1  23
BRANCH   2  29
ATOM     29  C   UNL d   1      29.184 -15.959  -3.037  0.00  0.00     0.120 A 
ATOM     30  S   UNL d   1      29.656 -16.957  -4.315  0.00  0.00     0.020 SA
ATOM     31  N   UNL d   1      30.200 -15.715  -5.299  0.00  0.00    -0.203 NA
ATOM     32  C   UNL d   1      30.041 -14.549  -4.648  0.00  0.00     0.160 A 
ATOM     33  C   UNL d   1      29.490 -14.657  -3.334  0.00  0.00     0.085 A 
ATOM     34  N   UNL d   1      29.293 -13.594  -2.514  0.00  0.00    -0.396 N 
ATOM     35  H   UNL d   1      29.374 -12.643  -2.894  0.00  0.00     0.156 HD
ATOM     36  H   UNL d   1      28.870 -13.640  -1.593  0.00  0.00     0.156 HD
BRANCH  32  37
ATOM     37  C   UNL d   1      30.410 -13.234  -5.197  0.00  0.00     0.271 C 
ATOM     38  N   UNL d   1      30.754 -13.152  -6.511  0.00  0.00    -0.365 N 
ATOM     39  H   UNL d   1      30.764 -13.961  -7.115  0.00  0.00     0.159 HD
ATOM     40  H   UNL d   1      31.027 -12.243  -6.858  0.00  0.00     0.159 HD
ATOM     41  O   UNL d   1      30.415 -12.207  -4.514  0.00  0.00    -0.266 OA
ENDBRANCH  32  37
ENDBRANCH   2  29
TORSDOF 9
ENDMDL
MODEL 9
REMARK VINA RESULT:    -6.394      2.994      5.957
REMARK INTER + INTRA:         -13.937
REMARK INTER:                  -9.079
REMARK INTRA:                  -4.858
REMARK CONF_INDEPENDENT:        2.685
REMARK UNBOUND:                -4.858
REMARK  9 active torsions:
REMARK  status: ('A' for Active; 'I' for Inactive)
REMARK    1  A    between atoms: O_2  and  C_3 
REMARK    2  A    between atoms: C_7  and  C_6 
REMARK    3  A    between atoms: C_7  and  N_17 
REMARK    4  A    between atoms: C_7  and  C_8 
REMARK       I    between atoms: C_8  and  N_10 
REMARK    5  A    between atoms: N_10  and  C_11 
REMARK    6  A    between atoms: N_17  and  C_18 
REMARK       I    between atoms: N_17  and  C_24 
REMARK    7  A    between atoms: C_18  and  C_19 
REMARK    8  A    between atoms: C_24  and  C_26 
REMARK    9  A    between atoms: C_29  and  C_30 
REMARK       I    between atoms: C_30  and  N_31 
ROOT
ATOM      1  N   UNL d   1      26.023 -13.009  -3.290  0.00  0.00    -0.329 N 
ATOM      2  C   UNL d   1      25.817 -12.074  -4.280  0.00  0.00     0.265 C 
ATOM      3  O   UNL d   1      25.250 -12.372  -5.328  0.00  0.00    -0.267 OA
ENDROOT
BRANCH   1   4
ATOM      4  C   UNL d   1      25.541 -14.291  -3.712  0.00  0.00     0.207 C 
BRANCH   4   5
ATOM      5  C   UNL d   1      26.353 -14.838  -4.755  0.00  0.00     0.225 C 
ATOM      6  O   UNL d   1      25.883 -15.950  -5.147  0.00  0.00    -0.277 OA
ATOM      7  N   UNL d   1      27.907 -14.145  -5.027  0.00  0.00    -0.256 NA
ATOM      8  H   UNL d   1      28.081 -13.344  -4.400  0.00  0.00     0.130 HD
BRANCH   7   9
ATOM      9  C   UNL d   1      29.417 -15.315  -4.893  0.00  0.00     0.063 C 
ATOM     10  C   UNL d   1      29.503 -16.641  -3.155  0.00  0.00     0.020 C 
ATOM     11  C   UNL d   1      30.755 -17.929  -2.994  0.00  0.00     0.002 C 
ATOM     12  C   UNL d   1      30.858 -18.794  -4.418  0.00  0.00     0.000 C 
ATOM     13  C   UNL d   1      31.141 -17.946  -6.048  0.00  0.00     0.002 C 
ATOM     14  C   UNL d   1      30.030 -16.433  -6.520  0.00  0.00     0.020 C 
ENDBRANCH   7   9
ENDBRANCH   4   5
BRANCH   4  15
ATOM     15  C   UNL d   1      25.523 -15.350  -2.587  0.00  0.00    -0.027 C 
ATOM     16  C   UNL d   1      24.286 -15.704  -2.020  0.00  0.00     0.012 C 
ATOM     17  C   UNL d   1      24.271 -16.512  -0.907  0.00  0.00     0.037 C 
ATOM     18  C   UNL d   1      25.447 -17.157  -0.522  0.00  0.00     0.068 C 
ATOM     19  C   UNL d   1      26.600 -17.067  -1.301  0.00  0.00     0.037 C 
ATOM     20  C   UNL d   1      26.621 -16.197  -2.366  0.00  0.00     0.012 C 
BRANCH  18  21
ATOM     21  O   UNL d   1      25.384 -17.939   0.593  0.00  0.00    -0.356 OA
ATOM     22  C   UNL d   1      26.655 -18.453   0.978  0.00  0.00     0.210 C 
ENDBRANCH  18  21
ENDBRANCH   4  15
ENDBRANCH   1   4
BRANCH   1  23
ATOM     23  C   UNL d   1      26.404 -12.648  -1.912  0.00  0.00     0.150 C 
BRANCH  23  24
ATOM     24  C   UNL d   1      27.546 -13.358  -1.343  0.00  0.00     0.048 C 
ATOM     25  C   UNL d   1      29.288 -13.544  -1.583  0.00  0.00     0.019 C 
ATOM     26  C   UNL d   1      30.106 -14.423  -0.455  0.00  0.00     0.012 C 
ATOM     27  C   UNL d   1      28.963 -14.727   0.992  0.00  0.00     0.067 C 
ATOM     28  S   UNL d   1      26.827 -14.108   0.647  0.00  0.00    -0.149 SA
ENDBRANCH  23  24
ENDBRANCH   1  23
BRANCH   2  29
ATOM     29  C   UNL d   1      26.406 -10.811  -4.019  0.00  0.00     0.120 A 
ATOM     30  S   UNL d   1      25.530  -9.539  -3.333  0.00  0.00     0.020 SA
ATOM     31  N   UNL d   1      26.824  -8.479  -3.248  0.00  0.00    -0.203 NA
ATOM     32  C   UNL d   1      27.911  -9.084  -3.757  0.00  0.00     0.160 A 
ATOM     33  C   UNL d   1      27.698 -10.412  -4.238  0.00  0.00     0.085 A 
ATOM     34  N   UNL d   1      28.667 -11.164  -4.819  0.00  0.00    -0.396 N 
ATOM     35  H   UNL d   1      29.645 -10.854  -4.766  0.00  0.00     0.156 HD
ATOM     36  H   UNL d   1      28.550 -12.121  -5.134  0.00  0.00     0.156 HD
BRANCH  32  37
ATOM     37  C   UNL d   1      29.241  -8.460  -3.852  0.00  0.00     0.271 C 
ATOM     38  N   UNL d   1      29.332  -7.105  -3.757  0.00  0.00    -0.365 N 
ATOM     39  H   UNL d   1      28.520  -6.521  -3.623  0.00  0.00     0.159 HD
ATOM     40  H   UNL d   1      30.252  -6.700  -3.850  0.00  0.00     0.159 HD
ATOM     41  O   UNL d   1      30.272  -9.117  -4.012  0.00  0.00    -0.266 OA
ENDBRANCH  32  37
ENDBRANCH   2  29
TORSDOF 9
ENDMDL
