MODEL 1
REMARK VINA RESULT:    -7.657      0.000      0.000
REMARK INTER + INTRA:         -12.963
REMARK INTER:                 -10.640
REMARK INTRA:                  -2.322
REMARK CONF_INDEPENDENT:        2.983
REMARK UNBOUND:                -2.322
REMARK  10 active torsions:
REMARK  status: ('A' for Active; 'I' for Inactive)
REMARK    1  A    between atoms: C_2  and  C_3 
REMARK       I    between atoms: C_2  and  N_11 
REMARK    2  A    between atoms: C_3  and  C_4 
REMARK    3  A    between atoms: C_4  and  C_5 
REMARK    4  A    between atoms: N_11  and  N_12 
REMARK    5  A    between atoms: N_12  and  C_13 
REMARK    6  A    between atoms: C_13  and  N_15 
REMARK       I    between atoms: N_15  and  C_16 
REMARK    7  A    between atoms: C_16  and  C_18 
REMARK    8  A    between atoms: C_18  and  O_19 
REMARK    9  A    between atoms: O_19  and  C_20 
REMARK   10  A    between atoms: C_23  and  N_24 
ROOT
ATOM      1  C   UNL d   1      26.823 -17.120   0.132  0.00  0.00     0.193 C 
ATOM      2  S   UNL d   1      26.667 -18.526   1.057  0.00  0.00    -0.039 SA
ENDROOT
BRANCH   1   3
ATOM      3  N   UNL d   1      25.977 -16.927  -0.980  0.00  0.00    -0.273 N 
ATOM      4  H   UNL d   1      26.165 -17.259  -1.919  0.00  0.00     0.189 HD
BRANCH   3   5
ATOM      5  N   UNL d   1      24.746 -16.226  -0.764  0.00  0.00    -0.268 N 
ATOM      6  C   UNL d   1      23.464 -16.706  -0.842  0.00  0.00     0.236 C 
ATOM      7  O   UNL d   1      22.511 -15.950  -0.625  0.00  0.00    -0.272 OA
ATOM      8  H   UNL d   1      24.833 -15.235  -0.523  0.00  0.00     0.190 HD
BRANCH   6   9
ATOM      9  C   UNL d   1      23.280 -18.156  -1.198  0.00  0.00     0.109 C 
BRANCH   9  10
ATOM     10  C   UNL d   1      22.819 -18.967   0.009  0.00  0.00     0.048 C 
BRANCH  10  11
ATOM     11  C   UNL d   1      21.337 -19.242   0.010  0.00  0.00    -0.058 A 
ATOM     12  C   UNL d   1      20.657 -19.568   1.192  0.00  0.00     0.007 A 
ATOM     13  C   UNL d   1      19.338 -20.019   1.141  0.00  0.00     0.001 A 
ATOM     14  C   UNL d   1      18.664 -20.070  -0.079  0.00  0.00     0.000 A 
ATOM     15  C   UNL d   1      19.314 -19.689  -1.251  0.00  0.00     0.001 A 
ATOM     16  C   UNL d   1      20.645 -19.281  -1.207  0.00  0.00     0.007 A 
ENDBRANCH  10  11
ENDBRANCH   9  10
ENDBRANCH   6   9
ENDBRANCH   3   5
ENDBRANCH   1   3
BRANCH   1  17
ATOM     17  N   UNL d   1      27.752 -16.077   0.375  0.00  0.00    -0.301 N 
ATOM     18  C   UNL d   1      27.430 -14.722   0.634  0.00  0.00     0.248 C 
ATOM     19  O   UNL d   1      26.270 -14.305   0.651  0.00  0.00    -0.271 OA
ATOM     20  H   UNL d   1      28.732 -16.323   0.368  0.00  0.00     0.171 HD
BRANCH  18  21
ATOM     21  C   UNL d   1      28.579 -13.710   0.890  0.00  0.00     0.278 C 
BRANCH  21  22
ATOM     22  O   UNL d   1      29.020 -13.222  -0.398  0.00  0.00    -0.342 OA
BRANCH  22  23
ATOM     23  C   UNL d   1      28.515 -13.752  -1.550  0.00  0.00     0.069 A 
ATOM     24  C   UNL d   1      27.343 -13.156  -2.044  0.00  0.00     0.039 A 
ATOM     25  C   UNL d   1      26.690 -13.668  -3.175  0.00  0.00     0.039 A 
ATOM     26  C   UNL d   1      27.247 -14.759  -3.848  0.00  0.00     0.103 A 
ATOM     27  C   UNL d   1      28.395 -15.382  -3.342  0.00  0.00     0.039 A 
ATOM     28  C   UNL d   1      29.018 -14.883  -2.188  0.00  0.00     0.039 A 
BRANCH  26  29
ATOM     29  N   UNL d   1      26.663 -15.217  -5.117  0.00  0.00    -0.116 N 
ATOM     30  O   UNL d   1      27.397 -15.269  -6.111  0.00  0.00    -0.532 OA
ATOM     31  O   UNL d   1      25.467 -15.557  -5.107  0.00  0.00    -0.532 OA
ENDBRANCH  26  29
ENDBRANCH  22  23
ENDBRANCH  21  22
ENDBRANCH  18  21
ENDBRANCH   1  17
TORSDOF 10
ENDMDL
MODEL 2
REMARK VINA RESULT:    -7.406      3.372      8.502
REMARK INTER + INTRA:         -12.797
REMARK INTER:                 -10.389
REMARK INTRA:                  -2.408
REMARK CONF_INDEPENDENT:        2.983
REMARK UNBOUND:                -2.408
REMARK  10 active torsions:
REMARK  status: ('A' for Active; 'I' for Inactive)
REMARK    1  A    between atoms: C_2  and  C_3 
REMARK       I    between atoms: C_2  and  N_11 
REMARK    2  A    between atoms: C_3  and  C_4 
REMARK    3  A    between atoms: C_4  and  C_5 
REMARK    4  A    between atoms: N_11  and  N_12 
REMARK    5  A    between atoms: N_12  and  C_13 
REMARK    6  A    between atoms: C_13  and  N_15 
REMARK       I    between atoms: N_15  and  C_16 
REMARK    7  A    between atoms: C_16  and  C_18 
REMARK    8  A    between atoms: C_18  and  O_19 
REMARK    9  A    between atoms: O_19  and  C_20 
REMARK   10  A    between atoms: C_23  and  N_24 
ROOT
ATOM      1  C   UNL d   1      25.946 -14.681  -3.725  0.00  0.00     0.193 C 
ATOM      2  S   UNL d   1      25.906 -15.396  -5.256  0.00  0.00    -0.039 SA
ENDROOT
BRANCH   1   3
ATOM      3  N   UNL d   1      26.039 -13.278  -3.619  0.00  0.00    -0.273 N 
ATOM      4  H   UNL d   1      26.471 -12.779  -2.850  0.00  0.00     0.189 HD
BRANCH   3   5
ATOM      5  N   UNL d   1      25.501 -12.495  -4.694  0.00  0.00    -0.268 N 
ATOM      6  C   UNL d   1      26.170 -11.866  -5.710  0.00  0.00     0.236 C 
ATOM      7  O   UNL d   1      25.539 -11.224  -6.558  0.00  0.00    -0.272 OA
ATOM      8  H   UNL d   1      24.483 -12.389  -4.701  0.00  0.00     0.190 HD
BRANCH   6   9
ATOM      9  C   UNL d   1      27.670 -11.987  -5.743  0.00  0.00     0.109 C 
BRANCH   9  10
ATOM     10  C   UNL d   1      28.156 -12.454  -7.112  0.00  0.00     0.048 C 
BRANCH  10  11
ATOM     11  C   UNL d   1      29.106 -13.622  -7.039  0.00  0.00    -0.058 A 
ATOM     12  C   UNL d   1      28.705 -14.853  -6.502  0.00  0.00     0.007 A 
ATOM     13  C   UNL d   1      29.650 -15.849  -6.253  0.00  0.00     0.001 A 
ATOM     14  C   UNL d   1      30.983 -15.655  -6.615  0.00  0.00     0.000 A 
ATOM     15  C   UNL d   1      31.376 -14.457  -7.206  0.00  0.00     0.001 A 
ATOM     16  C   UNL d   1      30.444 -13.444  -7.414  0.00  0.00     0.007 A 
ENDBRANCH  10  11
ENDBRANCH   9  10
ENDBRANCH   6   9
ENDBRANCH   3   5
ENDBRANCH   1   3
BRANCH   1  17
ATOM     17  N   UNL d   1      25.893 -15.379  -2.493  0.00  0.00    -0.301 N 
ATOM     18  C   UNL d   1      26.085 -14.812  -1.209  0.00  0.00     0.248 C 
ATOM     19  O   UNL d   1      26.350 -13.620  -1.041  0.00  0.00    -0.271 OA
ATOM     20  H   UNL d   1      25.693 -16.369  -2.532  0.00  0.00     0.171 HD
BRANCH  18  21
ATOM     21  C   UNL d   1      25.981 -15.725   0.042  0.00  0.00     0.278 C 
BRANCH  21  22
ATOM     22  O   UNL d   1      25.783 -17.079  -0.425  0.00  0.00    -0.342 OA
BRANCH  22  23
ATOM     23  C   UNL d   1      24.523 -17.574  -0.602  0.00  0.00     0.069 A 
ATOM     24  C   UNL d   1      23.505 -16.624  -0.789  0.00  0.00     0.039 A 
ATOM     25  C   UNL d   1      22.162 -17.012  -0.900  0.00  0.00     0.039 A 
ATOM     26  C   UNL d   1      21.842 -18.373  -0.874  0.00  0.00     0.103 A 
ATOM     27  C   UNL d   1      22.845 -19.325  -0.651  0.00  0.00     0.039 A 
ATOM     28  C   UNL d   1      24.181 -18.920  -0.504  0.00  0.00     0.039 A 
BRANCH  26  29
ATOM     29  N   UNL d   1      20.462 -18.809  -1.137  0.00  0.00    -0.116 N 
ATOM     30  O   UNL d   1      19.545 -18.227  -0.546  0.00  0.00    -0.532 OA
ATOM     31  O   UNL d   1      20.298 -19.719  -1.968  0.00  0.00    -0.532 OA
ENDBRANCH  26  29
ENDBRANCH  22  23
ENDBRANCH  21  22
ENDBRANCH  18  21
ENDBRANCH   1  17
TORSDOF 10
ENDMDL
MODEL 3
REMARK VINA RESULT:    -7.257      3.208      8.068
REMARK INTER + INTRA:         -12.456
REMARK INTER:                 -10.240
REMARK INTRA:                  -2.216
REMARK CONF_INDEPENDENT:        2.983
REMARK UNBOUND:                -2.216
REMARK  10 active torsions:
REMARK  status: ('A' for Active; 'I' for Inactive)
REMARK    1  A    between atoms: C_2  and  C_3 
REMARK       I    between atoms: C_2  and  N_11 
REMARK    2  A    between atoms: C_3  and  C_4 
REMARK    3  A    between atoms: C_4  and  C_5 
REMARK    4  A    between atoms: N_11  and  N_12 
REMARK    5  A    between atoms: N_12  and  C_13 
REMARK    6  A    between atoms: C_13  and  N_15 
REMARK       I    between atoms: N_15  and  C_16 
REMARK    7  A    between atoms: C_16  and  C_18 
REMARK    8  A    between atoms: C_18  and  O_19 
REMARK    9  A    between atoms: O_19  and  C_20 
REMARK   10  A    between atoms: C_23  and  N_24 
ROOT
ATOM      1  C   UNL d   1      26.779 -13.676  -1.392  0.00  0.00     0.193 C 
ATOM      2  S   UNL d   1      27.713 -12.477  -0.652  0.00  0.00    -0.039 SA
ENDROOT
BRANCH   1   3
ATOM      3  N   UNL d   1      26.156 -13.402  -2.627  0.00  0.00    -0.273 N 
ATOM      4  H   UNL d   1      25.644 -12.556  -2.848  0.00  0.00     0.189 HD
BRANCH   3   5
ATOM      5  N   UNL d   1      26.275 -14.388  -3.662  0.00  0.00    -0.268 N 
ATOM      6  C   UNL d   1      27.033 -14.342  -4.803  0.00  0.00     0.236 C 
ATOM      7  O   UNL d   1      27.011 -15.291  -5.594  0.00  0.00    -0.272 OA
ATOM      8  H   UNL d   1      25.718 -15.237  -3.535  0.00  0.00     0.190 HD
BRANCH   6   9
ATOM      9  C   UNL d   1      27.868 -13.113  -5.040  0.00  0.00     0.109 C 
BRANCH   9  10
ATOM     10  C   UNL d   1      27.235 -12.210  -6.095  0.00  0.00     0.048 C 
BRANCH  10  11
ATOM     11  C   UNL d   1      26.389 -11.111  -5.506  0.00  0.00    -0.058 A 
ATOM     12  C   UNL d   1      25.535 -10.340  -6.307  0.00  0.00     0.007 A 
ATOM     13  C   UNL d   1      24.922  -9.201  -5.785  0.00  0.00     0.001 A 
ATOM     14  C   UNL d   1      25.092  -8.870  -4.440  0.00  0.00     0.000 A 
ATOM     15  C   UNL d   1      25.890  -9.667  -3.622  0.00  0.00     0.001 A 
ATOM     16  C   UNL d   1      26.538 -10.779  -4.153  0.00  0.00     0.007 A 
ENDBRANCH  10  11
ENDBRANCH   9  10
ENDBRANCH   6   9
ENDBRANCH   3   5
ENDBRANCH   1   3
BRANCH   1  17
ATOM     17  N   UNL d   1      26.552 -14.975  -0.874  0.00  0.00    -0.301 N 
ATOM     18  C   UNL d   1      27.109 -16.177  -1.377  0.00  0.00     0.248 C 
ATOM     19  O   UNL d   1      27.850 -16.207  -2.361  0.00  0.00    -0.271 OA
ATOM     20  H   UNL d   1      25.945 -15.051  -0.070  0.00  0.00     0.171 HD
BRANCH  18  21
ATOM     21  C   UNL d   1      26.761 -17.519  -0.678  0.00  0.00     0.278 C 
BRANCH  21  22
ATOM     22  O   UNL d   1      25.675 -17.260   0.241  0.00  0.00    -0.342 OA
BRANCH  22  23
ATOM     23  C   UNL d   1      24.388 -17.553  -0.106  0.00  0.00     0.069 A 
ATOM     24  C   UNL d   1      24.056 -18.917  -0.156  0.00  0.00     0.039 A 
ATOM     25  C   UNL d   1      22.787 -19.340  -0.579  0.00  0.00     0.039 A 
ATOM     26  C   UNL d   1      21.824 -18.381  -0.907  0.00  0.00     0.103 A 
ATOM     27  C   UNL d   1      22.157 -17.021  -0.896  0.00  0.00     0.039 A 
ATOM     28  C   UNL d   1      23.442 -16.613  -0.507  0.00  0.00     0.039 A 
BRANCH  26  29
ATOM     29  N   UNL d   1      20.446 -18.797  -1.208  0.00  0.00    -0.116 N 
ATOM     30  O   UNL d   1      20.280 -19.732  -2.000  0.00  0.00    -0.532 OA
ATOM     31  O   UNL d   1      19.527 -18.201  -0.620  0.00  0.00    -0.532 OA
ENDBRANCH  26  29
ENDBRANCH  22  23
ENDBRANCH  21  22
ENDBRANCH  18  21
ENDBRANCH   1  17
TORSDOF 10
ENDMDL
MODEL 4
REMARK VINA RESULT:    -7.213      3.017      7.472
REMARK INTER + INTRA:         -12.526
REMARK INTER:                 -10.196
REMARK INTRA:                  -2.331
REMARK CONF_INDEPENDENT:        2.983
REMARK UNBOUND:                -2.331
REMARK  10 active torsions:
REMARK  status: ('A' for Active; 'I' for Inactive)
REMARK    1  A    between atoms: C_2  and  C_3 
REMARK       I    between atoms: C_2  and  N_11 
REMARK    2  A    between atoms: C_3  and  C_4 
REMARK    3  A    between atoms: C_4  and  C_5 
REMARK    4  A    between atoms: N_11  and  N_12 
REMARK    5  A    between atoms: N_12  and  C_13 
REMARK    6  A    between atoms: C_13  and  N_15 
REMARK       I    between atoms: N_15  and  C_16 
REMARK    7  A    between atoms: C_16  and  C_18 
REMARK    8  A    between atoms: C_18  and  O_19 
REMARK    9  A    between atoms: O_19  and  C_20 
REMARK   10  A    between atoms: C_23  and  N_24 
ROOT
ATOM      1  C   UNL d   1      30.433 -17.335  -1.251  0.00  0.00     0.193 C 
ATOM      2  S   UNL d   1      32.038 -17.277  -0.724  0.00  0.00    -0.039 SA
ENDROOT
BRANCH   1   3
ATOM      3  N   UNL d   1      30.151 -17.176  -2.624  0.00  0.00    -0.273 N 
ATOM      4  H   UNL d   1      29.222 -17.125  -3.026  0.00  0.00     0.189 HD
BRANCH   3   5
ATOM      5  N   UNL d   1      31.264 -17.055  -3.520  0.00  0.00    -0.268 N 
ATOM      6  C   UNL d   1      31.251 -16.900  -4.882  0.00  0.00     0.236 C 
ATOM      7  O   UNL d   1      32.317 -16.815  -5.501  0.00  0.00    -0.272 OA
ATOM      8  H   UNL d   1      32.190 -17.093  -3.088  0.00  0.00     0.190 HD
BRANCH   6   9
ATOM      9  C   UNL d   1      29.913 -16.842  -5.568  0.00  0.00     0.109 C 
BRANCH   9  10
ATOM     10  C   UNL d   1      29.431 -15.402  -5.721  0.00  0.00     0.048 C 
BRANCH  10  11
ATOM     11  C   UNL d   1      28.224 -15.087  -4.876  0.00  0.00    -0.058 A 
ATOM     12  C   UNL d   1      26.924 -15.215  -5.386  0.00  0.00     0.007 A 
ATOM     13  C   UNL d   1      25.836 -14.724  -4.664  0.00  0.00     0.001 A 
ATOM     14  C   UNL d   1      26.029 -14.177  -3.396  0.00  0.00     0.000 A 
ATOM     15  C   UNL d   1      27.311 -14.102  -2.856  0.00  0.00     0.001 A 
ATOM     16  C   UNL d   1      28.403 -14.552  -3.594  0.00  0.00     0.007 A 
ENDBRANCH  10  11
ENDBRANCH   9  10
ENDBRANCH   6   9
ENDBRANCH   3   5
ENDBRANCH   1   3
BRANCH   1  17
ATOM     17  N   UNL d   1      29.303 -17.536  -0.420  0.00  0.00    -0.301 N 
ATOM     18  C   UNL d   1      27.955 -17.287  -0.777  0.00  0.00     0.248 C 
ATOM     19  O   UNL d   1      27.631 -16.833  -1.876  0.00  0.00    -0.271 OA
ATOM     20  H   UNL d   1      29.473 -17.896   0.509  0.00  0.00     0.171 HD
BRANCH  18  21
ATOM     21  C   UNL d   1      26.835 -17.575   0.259  0.00  0.00     0.278 C 
BRANCH  21  22
ATOM     22  O   UNL d   1      25.717 -16.717  -0.063  0.00  0.00    -0.342 OA
BRANCH  22  23
ATOM     23  C   UNL d   1      24.496 -17.251  -0.359  0.00  0.00     0.069 A 
ATOM     24  C   UNL d   1      23.444 -16.336  -0.530  0.00  0.00     0.039 A 
ATOM     25  C   UNL d   1      22.131 -16.774  -0.757  0.00  0.00     0.039 A 
ATOM     26  C   UNL d   1      21.880 -18.145  -0.865  0.00  0.00     0.103 A 
ATOM     27  C   UNL d   1      22.915 -19.066  -0.660  0.00  0.00     0.039 A 
ATOM     28  C   UNL d   1      24.217 -18.615  -0.396  0.00  0.00     0.039 A 
BRANCH  26  29
ATOM     29  N   UNL d   1      20.542 -18.619  -1.250  0.00  0.00    -0.116 N 
ATOM     30  O   UNL d   1      20.457 -19.691  -1.860  0.00  0.00    -0.532 OA
ATOM     31  O   UNL d   1      19.568 -17.925  -0.908  0.00  0.00    -0.532 OA
ENDBRANCH  26  29
ENDBRANCH  22  23
ENDBRANCH  21  22
ENDBRANCH  18  21
ENDBRANCH   1  17
TORSDOF 10
ENDMDL
MODEL 5
REMARK VINA RESULT:    -7.166      3.363      6.233
REMARK INTER + INTRA:         -12.523
REMARK INTER:                 -10.149
REMARK INTRA:                  -2.374
REMARK CONF_INDEPENDENT:        2.983
REMARK UNBOUND:                -2.374
REMARK  10 active torsions:
REMARK  status: ('A' for Active; 'I' for Inactive)
REMARK    1  A    between atoms: C_2  and  C_3 
REMARK       I    between atoms: C_2  and  N_11 
REMARK    2  A    between atoms: C_3  and  C_4 
REMARK    3  A    between atoms: C_4  and  C_5 
REMARK    4  A    between atoms: N_11  and  N_12 
REMARK    5  A    between atoms: N_12  and  C_13 
REMARK    6  A    between atoms: C_13  and  N_15 
REMARK       I    between atoms: N_15  and  C_16 
REMARK    7  A    between atoms: C_16  and  C_18 
REMARK    8  A    between atoms: C_18  and  O_19 
REMARK    9  A    between atoms: O_19  and  C_20 
REMARK   10  A    between atoms: C_23  and  N_24 
ROOT
ATOM      1  C   UNL d   1      29.689 -15.919  -1.007  0.00  0.00     0.193 C 
ATOM      2  S   UNL d   1      30.427 -17.266  -1.711  0.00  0.00    -0.039 SA
ENDROOT
BRANCH   1   3
ATOM      3  N   UNL d   1      29.123 -14.928  -1.836  0.00  0.00    -0.273 N 
ATOM      4  H   UNL d   1      29.019 -13.950  -1.589  0.00  0.00     0.189 HD
BRANCH   3   5
ATOM      5  N   UNL d   1      28.679 -15.329  -3.139  0.00  0.00    -0.268 N 
ATOM      6  C   UNL d   1      27.444 -15.161  -3.710  0.00  0.00     0.236 C 
ATOM      7  O   UNL d   1      27.235 -15.576  -4.855  0.00  0.00    -0.272 OA
ATOM      8  H   UNL d   1      29.373 -15.806  -3.720  0.00  0.00     0.190 HD
BRANCH   6   9
ATOM      9  C   UNL d   1      26.384 -14.468  -2.897  0.00  0.00     0.109 C 
BRANCH   9  10
ATOM     10  C   UNL d   1      25.152 -15.351  -2.728  0.00  0.00     0.048 C 
BRANCH  10  11
ATOM     11  C   UNL d   1      25.327 -16.424  -1.685  0.00  0.00    -0.058 A 
ATOM     12  C   UNL d   1      24.342 -17.397  -1.468  0.00  0.00     0.007 A 
ATOM     13  C   UNL d   1      24.429 -18.249  -0.367  0.00  0.00     0.001 A 
ATOM     14  C   UNL d   1      25.538 -18.191   0.476  0.00  0.00     0.000 A 
ATOM     15  C   UNL d   1      26.551 -17.267   0.231  0.00  0.00     0.001 A 
ATOM     16  C   UNL d   1      26.445 -16.386  -0.842  0.00  0.00     0.007 A 
ENDBRANCH  10  11
ENDBRANCH   9  10
ENDBRANCH   6   9
ENDBRANCH   3   5
ENDBRANCH   1   3
BRANCH   1  17
ATOM     17  N   UNL d   1      29.578 -15.679   0.386  0.00  0.00    -0.301 N 
ATOM     18  C   UNL d   1      29.303 -14.428   0.993  0.00  0.00     0.248 C 
ATOM     19  O   UNL d   1      29.153 -13.392   0.344  0.00  0.00    -0.271 OA
ATOM     20  H   UNL d   1      29.699 -16.471   1.001  0.00  0.00     0.171 HD
BRANCH  18  21
ATOM     21  C   UNL d   1      29.205 -14.347   2.540  0.00  0.00     0.278 C 
BRANCH  21  22
ATOM     22  O   UNL d   1      27.850 -13.964   2.869  0.00  0.00    -0.342 OA
BRANCH  22  23
ATOM     23  C   UNL d   1      27.457 -12.660   2.773  0.00  0.00     0.069 A 
ATOM     24  C   UNL d   1      27.804 -11.827   3.849  0.00  0.00     0.039 A 
ATOM     25  C   UNL d   1      27.384 -10.490   3.897  0.00  0.00     0.039 A 
ATOM     26  C   UNL d   1      26.647  -9.969   2.829  0.00  0.00     0.103 A 
ATOM     27  C   UNL d   1      26.265 -10.801   1.769  0.00  0.00     0.039 A 
ATOM     28  C   UNL d   1      26.661 -12.147   1.752  0.00  0.00     0.039 A 
BRANCH  26  29
ATOM     29  N   UNL d   1      26.325  -8.535   2.789  0.00  0.00    -0.116 N 
ATOM     30  O   UNL d   1      26.879  -7.791   3.606  0.00  0.00    -0.532 OA
ATOM     31  O   UNL d   1      25.534  -8.150   1.910  0.00  0.00    -0.532 OA
ENDBRANCH  26  29
ENDBRANCH  22  23
ENDBRANCH  21  22
ENDBRANCH  18  21
ENDBRANCH   1  17
TORSDOF 10
ENDMDL
MODEL 6
REMARK VINA RESULT:    -6.902      3.983      6.703
REMARK INTER + INTRA:         -12.789
REMARK INTER:                  -9.885
REMARK INTRA:                  -2.905
REMARK CONF_INDEPENDENT:        2.983
REMARK UNBOUND:                -2.905
REMARK  10 active torsions:
REMARK  status: ('A' for Active; 'I' for Inactive)
REMARK    1  A    between atoms: C_2  and  C_3 
REMARK       I    between atoms: C_2  and  N_11 
REMARK    2  A    between atoms: C_3  and  C_4 
REMARK    3  A    between atoms: C_4  and  C_5 
REMARK    4  A    between atoms: N_11  and  N_12 
REMARK    5  A    between atoms: N_12  and  C_13 
REMARK    6  A    between atoms: C_13  and  N_15 
REMARK       I    between atoms: N_15  and  C_16 
REMARK    7  A    between atoms: C_16  and  C_18 
REMARK    8  A    between atoms: C_18  and  O_19 
REMARK    9  A    between atoms: O_19  and  C_20 
REMARK   10  A    between atoms: C_23  and  N_24 
ROOT
ATOM      1  C   UNL d   1      26.063 -11.297  -3.765  0.00  0.00     0.193 C 
ATOM      2  S   UNL d   1      25.531  -9.697  -3.884  0.00  0.00    -0.039 SA
ENDROOT
BRANCH   1   3
ATOM      3  N   UNL d   1      25.669 -12.231  -4.747  0.00  0.00    -0.273 N 
ATOM      4  H   UNL d   1      24.751 -12.276  -5.174  0.00  0.00     0.189 HD
BRANCH   3   5
ATOM      5  N   UNL d   1      26.649 -13.177  -5.194  0.00  0.00    -0.268 N 
ATOM      6  C   UNL d   1      26.672 -14.535  -5.011  0.00  0.00     0.236 C 
ATOM      7  O   UNL d   1      27.607 -15.201  -5.468  0.00  0.00    -0.272 OA
ATOM      8  H   UNL d   1      27.439 -12.787  -5.716  0.00  0.00     0.190 HD
BRANCH   6   9
ATOM      9  C   UNL d   1      25.535 -15.158  -4.246  0.00  0.00     0.109 C 
BRANCH   9  10
ATOM     10  C   UNL d   1      25.467 -14.618  -2.820  0.00  0.00     0.048 C 
BRANCH  10  11
ATOM     11  C   UNL d   1      25.506 -15.700  -1.773  0.00  0.00    -0.058 A 
ATOM     12  C   UNL d   1      26.664 -15.944  -1.020  0.00  0.00     0.007 A 
ATOM     13  C   UNL d   1      26.747 -17.076  -0.209  0.00  0.00     0.001 A 
ATOM     14  C   UNL d   1      25.648 -17.925  -0.080  0.00  0.00     0.000 A 
ATOM     15  C   UNL d   1      24.473 -17.656  -0.777  0.00  0.00     0.001 A 
ATOM     16  C   UNL d   1      24.404 -16.551  -1.622  0.00  0.00     0.007 A 
ENDBRANCH  10  11
ENDBRANCH   9  10
ENDBRANCH   6   9
ENDBRANCH   3   5
ENDBRANCH   1   3
BRANCH   1  17
ATOM     17  N   UNL d   1      26.896 -11.811  -2.741  0.00  0.00    -0.301 N 
ATOM     18  C   UNL d   1      28.226 -12.272  -2.906  0.00  0.00     0.248 C 
ATOM     19  O   UNL d   1      28.793 -12.290  -3.999  0.00  0.00    -0.271 OA
ATOM     20  H   UNL d   1      26.510 -11.847  -1.808  0.00  0.00     0.171 HD
BRANCH  18  21
ATOM     21  C   UNL d   1      29.001 -12.795  -1.667  0.00  0.00     0.278 C 
BRANCH  21  22
ATOM     22  O   UNL d   1      28.057 -12.898  -0.577  0.00  0.00    -0.342 OA
BRANCH  22  23
ATOM     23  C   UNL d   1      27.699 -11.791   0.137  0.00  0.00     0.069 A 
ATOM     24  C   UNL d   1      26.897 -12.015   1.268  0.00  0.00     0.039 A 
ATOM     25  C   UNL d   1      26.402 -10.947   2.031  0.00  0.00     0.039 A 
ATOM     26  C   UNL d   1      26.758  -9.640   1.683  0.00  0.00     0.103 A 
ATOM     27  C   UNL d   1      27.526  -9.404   0.536  0.00  0.00     0.039 A 
ATOM     28  C   UNL d   1      27.984 -10.481  -0.239  0.00  0.00     0.039 A 
BRANCH  26  29
ATOM     29  N   UNL d   1      26.374  -8.518   2.553  0.00  0.00    -0.116 N 
ATOM     30  O   UNL d   1      25.531  -7.718   2.133  0.00  0.00    -0.532 OA
ATOM     31  O   UNL d   1      26.900  -8.461   3.679  0.00  0.00    -0.532 OA
ENDBRANCH  26  29
ENDBRANCH  22  23
ENDBRANCH  21  22
ENDBRANCH  18  21
ENDBRANCH   1  17
TORSDOF 10
ENDMDL
MODEL 7
REMARK VINA RESULT:    -6.704      2.818      7.859
REMARK INTER + INTRA:         -12.454
REMARK INTER:                  -9.687
REMARK INTRA:                  -2.767
REMARK CONF_INDEPENDENT:        2.983
REMARK UNBOUND:                -2.767
REMARK  10 active torsions:
REMARK  status: ('A' for Active; 'I' for Inactive)
REMARK    1  A    between atoms: C_2  and  C_3 
REMARK       I    between atoms: C_2  and  N_11 
REMARK    2  A    between atoms: C_3  and  C_4 
REMARK    3  A    between atoms: C_4  and  C_5 
REMARK    4  A    between atoms: N_11  and  N_12 
REMARK    5  A    between atoms: N_12  and  C_13 
REMARK    6  A    between atoms: C_13  and  N_15 
REMARK       I    between atoms: N_15  and  C_16 
REMARK    7  A    between atoms: C_16  and  C_18 
REMARK    8  A    between atoms: C_18  and  O_19 
REMARK    9  A    between atoms: O_19  and  C_20 
REMARK   10  A    between atoms: C_23  and  N_24 
ROOT
ATOM      1  C   UNL d   1      25.564 -14.698  -3.634  0.00  0.00     0.193 C 
ATOM      2  S   UNL d   1      25.531 -15.449  -5.148  0.00  0.00    -0.039 SA
ENDROOT
BRANCH   1   3
ATOM      3  N   UNL d   1      25.425 -13.297  -3.555  0.00  0.00    -0.273 N 
ATOM      4  H   UNL d   1      25.229 -12.777  -2.707  0.00  0.00     0.189 HD
BRANCH   3   5
ATOM      5  N   UNL d   1      25.598 -12.544  -4.763  0.00  0.00    -0.268 N 
ATOM      6  C   UNL d   1      26.758 -12.258  -5.434  0.00  0.00     0.236 C 
ATOM      7  O   UNL d   1      26.720 -11.585  -6.470  0.00  0.00    -0.272 OA
ATOM      8  H   UNL d   1      24.742 -12.167  -5.179  0.00  0.00     0.190 HD
BRANCH   6   9
ATOM      9  C   UNL d   1      28.046 -12.785  -4.861  0.00  0.00     0.109 C 
BRANCH   9  10
ATOM     10  C   UNL d   1      28.431 -14.117  -5.500  0.00  0.00     0.048 C 
BRANCH  10  11
ATOM     11  C   UNL d   1      29.301 -14.971  -4.615  0.00  0.00    -0.058 A 
ATOM     12  C   UNL d   1      30.670 -15.129  -4.874  0.00  0.00     0.007 A 
ATOM     13  C   UNL d   1      31.410 -16.081  -4.173  0.00  0.00     0.001 A 
ATOM     14  C   UNL d   1      30.810 -16.823  -3.156  0.00  0.00     0.000 A 
ATOM     15  C   UNL d   1      29.464 -16.628  -2.852  0.00  0.00     0.001 A 
ATOM     16  C   UNL d   1      28.713 -15.710  -3.580  0.00  0.00     0.007 A 
ENDBRANCH  10  11
ENDBRANCH   9  10
ENDBRANCH   6   9
ENDBRANCH   3   5
ENDBRANCH   1   3
BRANCH   1  17
ATOM     17  N   UNL d   1      25.721 -15.363  -2.392  0.00  0.00    -0.301 N 
ATOM     18  C   UNL d   1      26.178 -14.772  -1.188  0.00  0.00     0.248 C 
ATOM     19  O   UNL d   1      26.514 -13.589  -1.112  0.00  0.00    -0.271 OA
ATOM     20  H   UNL d   1      25.481 -16.343  -2.361  0.00  0.00     0.171 HD
BRANCH  18  21
ATOM     21  C   UNL d   1      26.280 -15.649   0.089  0.00  0.00     0.278 C 
BRANCH  21  22
ATOM     22  O   UNL d   1      25.903 -16.996  -0.279  0.00  0.00    -0.342 OA
BRANCH  22  23
ATOM     23  C   UNL d   1      24.589 -17.324  -0.453  0.00  0.00     0.069 A 
ATOM     24  C   UNL d   1      24.304 -18.695  -0.572  0.00  0.00     0.039 A 
ATOM     25  C   UNL d   1      23.002 -19.145  -0.834  0.00  0.00     0.039 A 
ATOM     26  C   UNL d   1      21.965 -18.212  -0.930  0.00  0.00     0.103 A 
ATOM     27  C   UNL d   1      22.245 -16.842  -0.850  0.00  0.00     0.039 A 
ATOM     28  C   UNL d   1      23.559 -16.403  -0.624  0.00  0.00     0.039 A 
BRANCH  26  29
ATOM     29  N   UNL d   1      20.573 -18.670  -1.056  0.00  0.00    -0.116 N 
ATOM     30  O   UNL d   1      20.374 -19.869  -1.282  0.00  0.00    -0.532 OA
ATOM     31  O   UNL d   1      19.675 -17.825  -0.894  0.00  0.00    -0.532 OA
ENDBRANCH  26  29
ENDBRANCH  22  23
ENDBRANCH  21  22
ENDBRANCH  18  21
ENDBRANCH   1  17
TORSDOF 10
ENDMDL
MODEL 8
REMARK VINA RESULT:    -6.657      3.804      7.463
REMARK INTER + INTRA:         -12.402
REMARK INTER:                  -9.640
REMARK INTRA:                  -2.762
REMARK CONF_INDEPENDENT:        2.983
REMARK UNBOUND:                -2.762
REMARK  10 active torsions:
REMARK  status: ('A' for Active; 'I' for Inactive)
REMARK    1  A    between atoms: C_2  and  C_3 
REMARK       I    between atoms: C_2  and  N_11 
REMARK    2  A    between atoms: C_3  and  C_4 
REMARK    3  A    between atoms: C_4  and  C_5 
REMARK    4  A    between atoms: N_11  and  N_12 
REMARK    5  A    between atoms: N_12  and  C_13 
REMARK    6  A    between atoms: C_13  and  N_15 
REMARK       I    between atoms: N_15  and  C_16 
REMARK    7  A    between atoms: C_16  and  C_18 
REMARK    8  A    between atoms: C_18  and  O_19 
REMARK    9  A    between atoms: O_19  and  C_20 
REMARK   10  A    between atoms: C_23  and  N_24 
ROOT
ATOM      1  C   UNL d   1      30.615 -14.012   2.464  0.00  0.00     0.193 C 
ATOM      2  S   UNL d   1      31.247 -12.484   2.115  0.00  0.00    -0.039 SA
ENDROOT
BRANCH   1   3
ATOM      3  N   UNL d   1      30.950 -14.637   3.683  0.00  0.00    -0.273 N 
ATOM      4  H   UNL d   1      31.887 -14.708   4.064  0.00  0.00     0.189 HD
BRANCH   3   5
ATOM      5  N   UNL d   1      29.882 -15.199   4.457  0.00  0.00    -0.268 N 
ATOM      6  C   UNL d   1      29.025 -14.564   5.318  0.00  0.00     0.236 C 
ATOM      7  O   UNL d   1      28.155 -15.212   5.910  0.00  0.00    -0.272 OA
ATOM      8  H   UNL d   1      29.741 -16.207   4.356  0.00  0.00     0.190 HD
BRANCH   6   9
ATOM      9  C   UNL d   1      29.193 -13.080   5.506  0.00  0.00     0.109 C 
BRANCH   9  10
ATOM     10  C   UNL d   1      27.902 -12.333   5.182  0.00  0.00     0.048 C 
BRANCH  10  11
ATOM     11  C   UNL d   1      27.606 -12.270   3.706  0.00  0.00    -0.058 A 
ATOM     12  C   UNL d   1      27.732 -11.072   2.988  0.00  0.00     0.007 A 
ATOM     13  C   UNL d   1      27.257 -10.987   1.679  0.00  0.00     0.001 A 
ATOM     14  C   UNL d   1      26.730 -12.115   1.052  0.00  0.00     0.000 A 
ATOM     15  C   UNL d   1      26.659 -13.325   1.738  0.00  0.00     0.001 A 
ATOM     16  C   UNL d   1      27.091 -13.401   3.060  0.00  0.00     0.007 A 
ENDBRANCH  10  11
ENDBRANCH   9  10
ENDBRANCH   6   9
ENDBRANCH   3   5
ENDBRANCH   1   3
BRANCH   1  17
ATOM     17  N   UNL d   1      29.749 -14.754   1.622  0.00  0.00    -0.301 N 
ATOM     18  C   UNL d   1      29.446 -14.451   0.271  0.00  0.00     0.248 C 
ATOM     19  O   UNL d   1      29.907 -13.467  -0.311  0.00  0.00    -0.271 OA
ATOM     20  H   UNL d   1      29.313 -15.574   2.017  0.00  0.00     0.171 HD
BRANCH  18  21
ATOM     21  C   UNL d   1      28.480 -15.381  -0.512  0.00  0.00     0.278 C 
BRANCH  21  22
ATOM     22  O   UNL d   1      27.712 -16.125   0.462  0.00  0.00    -0.342 OA
BRANCH  22  23
ATOM     23  C   UNL d   1      26.514 -16.681   0.121  0.00  0.00     0.069 A 
ATOM     24  C   UNL d   1      25.674 -15.897  -0.687  0.00  0.00     0.039 A 
ATOM     25  C   UNL d   1      24.386 -16.331  -1.033  0.00  0.00     0.039 A 
ATOM     26  C   UNL d   1      23.955 -17.591  -0.605  0.00  0.00     0.103 A 
ATOM     27  C   UNL d   1      24.770 -18.365   0.230  0.00  0.00     0.039 A 
ATOM     28  C   UNL d   1      26.042 -17.901   0.600  0.00  0.00     0.039 A 
BRANCH  26  29
ATOM     29  N   UNL d   1      22.671 -18.128  -1.079  0.00  0.00    -0.116 N 
ATOM     30  O   UNL d   1      21.653 -17.451  -0.895  0.00  0.00    -0.532 OA
ATOM     31  O   UNL d   1      22.690 -19.222  -1.669  0.00  0.00    -0.532 OA
ENDBRANCH  26  29
ENDBRANCH  22  23
ENDBRANCH  21  22
ENDBRANCH  18  21
ENDBRANCH   1  17
TORSDOF 10
ENDMDL
MODEL 9
REMARK VINA RESULT:    -6.137      2.924      7.170
REMARK INTER + INTRA:         -12.573
REMARK INTER:                  -9.120
REMARK INTRA:                  -3.453
REMARK CONF_INDEPENDENT:        2.983
REMARK UNBOUND:                -3.453
REMARK  10 active torsions:
REMARK  status: ('A' for Active; 'I' for Inactive)
REMARK    1  A    between atoms: C_2  and  C_3 
REMARK       I    between atoms: C_2  and  N_11 
REMARK    2  A    between atoms: C_3  and  C_4 
REMARK    3  A    between atoms: C_4  and  C_5 
REMARK    4  A    between atoms: N_11  and  N_12 
REMARK    5  A    between atoms: N_12  and  C_13 
REMARK    6  A    between atoms: C_13  and  N_15 
REMARK       I    between atoms: N_15  and  C_16 
REMARK    7  A    between atoms: C_16  and  C_18 
REMARK    8  A    between atoms: C_18  and  O_19 
REMARK    9  A    between atoms: O_19  and  C_20 
REMARK   10  A    between atoms: C_23  and  N_24 
ROOT
ATOM      1  C   UNL d   1      29.340 -16.165  -3.306  0.00  0.00     0.193 C 
ATOM      2  S   UNL d   1      30.088 -17.512  -3.999  0.00  0.00    -0.039 SA
ENDROOT
BRANCH   1   3
ATOM      3  N   UNL d   1      29.725 -14.872  -3.717  0.00  0.00    -0.273 N 
ATOM      4  H   UNL d   1      29.442 -14.008  -3.269  0.00  0.00     0.189 HD
BRANCH   3   5
ATOM      5  N   UNL d   1      30.606 -14.770  -4.845  0.00  0.00    -0.268 N 
ATOM      6  C   UNL d   1      30.286 -14.725  -6.177  0.00  0.00     0.236 C 
ATOM      7  O   UNL d   1      31.184 -14.639  -7.022  0.00  0.00    -0.272 OA
ATOM      8  H   UNL d   1      31.605 -14.729  -4.628  0.00  0.00     0.190 HD
BRANCH   6   9
ATOM      9  C   UNL d   1      28.830 -14.787  -6.550  0.00  0.00     0.109 C 
BRANCH   9  10
ATOM     10  C   UNL d   1      28.095 -13.521  -6.120  0.00  0.00     0.048 C 
BRANCH  10  11
ATOM     11  C   UNL d   1      26.884 -13.798  -5.266  0.00  0.00    -0.058 A 
ATOM     12  C   UNL d   1      26.157 -12.756  -4.673  0.00  0.00     0.007 A 
ATOM     13  C   UNL d   1      25.174 -13.038  -3.725  0.00  0.00     0.001 A 
ATOM     14  C   UNL d   1      24.853 -14.362  -3.423  0.00  0.00     0.000 A 
ATOM     15  C   UNL d   1      25.529 -15.403  -4.054  0.00  0.00     0.001 A 
ATOM     16  C   UNL d   1      26.542 -15.123  -4.968  0.00  0.00     0.007 A 
ENDBRANCH  10  11
ENDBRANCH   9  10
ENDBRANCH   6   9
ENDBRANCH   3   5
ENDBRANCH   1   3
BRANCH   1  17
ATOM     17  N   UNL d   1      28.325 -16.208  -2.317  0.00  0.00    -0.301 N 
ATOM     18  C   UNL d   1      27.919 -15.126  -1.497  0.00  0.00     0.248 C 
ATOM     19  O   UNL d   1      28.445 -14.013  -1.554  0.00  0.00    -0.271 OA
ATOM     20  H   UNL d   1      27.844 -17.087  -2.189  0.00  0.00     0.171 HD
BRANCH  18  21
ATOM     21  C   UNL d   1      26.778 -15.347  -0.467  0.00  0.00     0.278 C 
BRANCH  21  22
ATOM     22  O   UNL d   1      26.525 -16.769  -0.401  0.00  0.00    -0.342 OA
BRANCH  22  23
ATOM     23  C   UNL d   1      25.269 -17.260  -0.609  0.00  0.00     0.069 A 
ATOM     24  C   UNL d   1      24.263 -16.308  -0.848  0.00  0.00     0.039 A 
ATOM     25  C   UNL d   1      22.922 -16.690  -0.994  0.00  0.00     0.039 A 
ATOM     26  C   UNL d   1      22.592 -18.048  -0.952  0.00  0.00     0.103 A 
ATOM     27  C   UNL d   1      23.581 -19.001  -0.678  0.00  0.00     0.039 A 
ATOM     28  C   UNL d   1      24.914 -18.601  -0.496  0.00  0.00     0.039 A 
BRANCH  26  29
ATOM     29  N   UNL d   1      21.219 -18.480  -1.251  0.00  0.00    -0.116 N 
ATOM     30  O   UNL d   1      21.017 -19.685  -1.443  0.00  0.00    -0.532 OA
ATOM     31  O   UNL d   1      20.333 -17.607  -1.262  0.00  0.00    -0.532 OA
ENDBRANCH  26  29
ENDBRANCH  22  23
ENDBRANCH  21  22
ENDBRANCH  18  21
ENDBRANCH   1  17
TORSDOF 10
ENDMDL
