MODEL 1
REMARK VINA RESULT:    -8.568      0.000      0.000
REMARK INTER + INTRA:         -11.920
REMARK INTER:                 -10.357
REMARK INTRA:                  -1.562
REMARK CONF_INDEPENDENT:        1.790
REMARK UNBOUND:                -1.562
REMARK  6 active torsions:
REMARK  status: ('A' for Active; 'I' for Inactive)
REMARK       I    between atoms: C_2  and  N_3 
REMARK    1  A    between atoms: C_2  and  C_11 
REMARK    2  A    between atoms: N_3  and  C_4 
REMARK    3  A    between atoms: C_9  and  O_10 
REMARK    4  A    between atoms: C_16  and  O_17 
REMARK    5  A    between atoms: O_17  and  C_18 
REMARK    6  A    between atoms: C_18  and  C_19 
ROOT
ATOM      1  C   UNL d   1      24.471 -17.638  -0.331  0.00  0.00     0.065 A 
ATOM      2  C   UNL d   1      25.226 -18.204   0.704  0.00  0.00     0.020 A 
ATOM      3  C   UNL d   1      26.599 -17.962   0.788  0.00  0.00     0.001 A 
ATOM      4  C   UNL d   1      27.229 -17.161  -0.160  0.00  0.00     0.003 A 
ATOM      5  C   UNL d   1      26.494 -16.617  -1.210  0.00  0.00     0.038 A 
ATOM      6  C   UNL d   1      25.119 -16.854  -1.310  0.00  0.00     0.084 A 
ENDROOT
BRANCH   1   7
ATOM      7  C   UNL d   1      22.995 -17.898  -0.387  0.00  0.00     0.259 C 
ATOM      8  O   UNL d   1      22.251 -17.054  -0.890  0.00  0.00    -0.267 OA
ATOM      9  N   UNL d   1      22.569 -19.077   0.230  0.00  0.00    -0.320 N 
ATOM     10  H   UNL d   1      23.200 -19.516   0.885  0.00  0.00     0.169 HD
BRANCH   9  11
ATOM     11  C   UNL d   1      21.194 -19.408   0.332  0.00  0.00     0.068 A 
ATOM     12  C   UNL d   1      20.655 -19.695   1.593  0.00  0.00     0.032 A 
ATOM     13  C   UNL d   1      19.282 -19.932   1.733  0.00  0.00     0.002 A 
ATOM     14  C   UNL d   1      18.450 -19.928   0.612  0.00  0.00     0.003 A 
ATOM     15  C   UNL d   1      18.989 -19.703  -0.654  0.00  0.00     0.039 A 
ATOM     16  C   UNL d   1      20.356 -19.457  -0.791  0.00  0.00     0.092 A 
BRANCH  16  17
ATOM     17  O   UNL d   1      20.908 -19.378  -2.041  0.00  0.00    -0.358 OA
ATOM     18  H   UNL d   1      21.727 -18.862  -1.993  0.00  0.00     0.217 HD
ENDBRANCH  16  17
ENDBRANCH   9  11
ENDBRANCH   1   7
BRANCH   6  19
ATOM     19  O   UNL d   1      24.342 -16.327  -2.297  0.00  0.00    -0.346 OA
BRANCH  19  20
ATOM     20  C   UNL d   1      24.210 -14.914  -2.395  0.00  0.00     0.214 C 
BRANCH  20  21
ATOM     21  C   UNL d   1      25.208 -14.380  -3.392  0.00  0.00    -0.034 A 
ATOM     22  C   UNL d   1      25.350 -13.003  -3.622  0.00  0.00     0.009 A 
ATOM     23  C   UNL d   1      26.173 -12.536  -4.644  0.00  0.00     0.001 A 
ATOM     24  C   UNL d   1      26.921 -13.437  -5.396  0.00  0.00     0.000 A 
ATOM     25  C   UNL d   1      26.815 -14.806  -5.157  0.00  0.00     0.001 A 
ATOM     26  C   UNL d   1      25.954 -15.278  -4.167  0.00  0.00     0.009 A 
ENDBRANCH  20  21
ENDBRANCH  19  20
ENDBRANCH   6  19
TORSDOF 6
ENDMDL
MODEL 2
REMARK VINA RESULT:    -8.158      1.807      7.489
REMARK INTER + INTRA:         -11.300
REMARK INTER:                  -9.948
REMARK INTRA:                  -1.352
REMARK CONF_INDEPENDENT:        1.790
REMARK UNBOUND:                -1.352
REMARK  6 active torsions:
REMARK  status: ('A' for Active; 'I' for Inactive)
REMARK       I    between atoms: C_2  and  N_3 
REMARK    1  A    between atoms: C_2  and  C_11 
REMARK    2  A    between atoms: N_3  and  C_4 
REMARK    3  A    between atoms: C_9  and  O_10 
REMARK    4  A    between atoms: C_16  and  O_17 
REMARK    5  A    between atoms: O_17  and  C_18 
REMARK    6  A    between atoms: C_18  and  C_19 
ROOT
ATOM      1  C   UNL d   1      25.607 -16.437  -0.864  0.00  0.00     0.065 A 
ATOM      2  C   UNL d   1      26.873 -16.456  -0.264  0.00  0.00     0.020 A 
ATOM      3  C   UNL d   1      27.243 -17.518   0.565  0.00  0.00     0.001 A 
ATOM      4  C   UNL d   1      26.355 -18.562   0.806  0.00  0.00     0.003 A 
ATOM      5  C   UNL d   1      25.084 -18.540   0.238  0.00  0.00     0.038 A 
ATOM      6  C   UNL d   1      24.697 -17.481  -0.591  0.00  0.00     0.084 A 
ENDROOT
BRANCH   1   7
ATOM      7  C   UNL d   1      25.241 -15.295  -1.765  0.00  0.00     0.259 C 
ATOM      8  O   UNL d   1      24.116 -15.257  -2.266  0.00  0.00    -0.267 OA
ATOM      9  N   UNL d   1      26.269 -14.388  -2.032  0.00  0.00    -0.320 N 
ATOM     10  H   UNL d   1      27.216 -14.687  -1.848  0.00  0.00     0.169 HD
BRANCH   9  11
ATOM     11  C   UNL d   1      26.093 -13.310  -2.936  0.00  0.00     0.068 A 
ATOM     12  C   UNL d   1      26.384 -12.008  -2.508  0.00  0.00     0.032 A 
ATOM     13  C   UNL d   1      26.310 -10.939  -3.410  0.00  0.00     0.002 A 
ATOM     14  C   UNL d   1      25.902 -11.157  -4.727  0.00  0.00     0.003 A 
ATOM     15  C   UNL d   1      25.553 -12.441  -5.144  0.00  0.00     0.039 A 
ATOM     16  C   UNL d   1      25.637 -13.507  -4.247  0.00  0.00     0.092 A 
BRANCH  16  17
ATOM     17  O   UNL d   1      25.160 -14.738  -4.611  0.00  0.00    -0.358 OA
ATOM     18  H   UNL d   1      24.979 -15.255  -3.812  0.00  0.00     0.217 HD
ENDBRANCH  16  17
ENDBRANCH   9  11
ENDBRANCH   1   7
BRANCH   6  19
ATOM     19  O   UNL d   1      23.479 -17.417  -1.197  0.00  0.00    -0.346 OA
BRANCH  19  20
ATOM     20  C   UNL d   1      22.866 -18.618  -1.651  0.00  0.00     0.214 C 
BRANCH  20  21
ATOM     21  C   UNL d   1      21.661 -18.926  -0.797  0.00  0.00    -0.034 A 
ATOM     22  C   UNL d   1      21.729 -18.903   0.604  0.00  0.00     0.009 A 
ATOM     23  C   UNL d   1      20.649 -19.325   1.374  0.00  0.00     0.001 A 
ATOM     24  C   UNL d   1      19.463 -19.705   0.753  0.00  0.00     0.000 A 
ATOM     25  C   UNL d   1      19.369 -19.701  -0.639  0.00  0.00     0.001 A 
ATOM     26  C   UNL d   1      20.466 -19.325  -1.412  0.00  0.00     0.009 A 
ENDBRANCH  20  21
ENDBRANCH  19  20
ENDBRANCH   6  19
TORSDOF 6
ENDMDL
MODEL 3
REMARK VINA RESULT:    -7.010      3.726      8.502
REMARK INTER + INTRA:         -11.046
REMARK INTER:                  -8.800
REMARK INTRA:                  -2.246
REMARK CONF_INDEPENDENT:        1.790
REMARK UNBOUND:                -2.246
REMARK  6 active torsions:
REMARK  status: ('A' for Active; 'I' for Inactive)
REMARK       I    between atoms: C_2  and  N_3 
REMARK    1  A    between atoms: C_2  and  C_11 
REMARK    2  A    between atoms: N_3  and  C_4 
REMARK    3  A    between atoms: C_9  and  O_10 
REMARK    4  A    between atoms: C_16  and  O_17 
REMARK    5  A    between atoms: O_17  and  C_18 
REMARK    6  A    between atoms: C_18  and  C_19 
ROOT
ATOM      1  C   UNL d   1      27.087 -14.078  -4.528  0.00  0.00     0.065 A 
ATOM      2  C   UNL d   1      26.784 -12.809  -5.038  0.00  0.00     0.020 A 
ATOM      3  C   UNL d   1      26.011 -11.916  -4.291  0.00  0.00     0.001 A 
ATOM      4  C   UNL d   1      25.531 -12.283  -3.037  0.00  0.00     0.003 A 
ATOM      5  C   UNL d   1      25.801 -13.552  -2.533  0.00  0.00     0.038 A 
ATOM      6  C   UNL d   1      26.570 -14.459  -3.271  0.00  0.00     0.084 A 
ENDROOT
BRANCH   1   7
ATOM      7  C   UNL d   1      27.934 -15.010  -5.341  0.00  0.00     0.259 C 
ATOM      8  O   UNL d   1      27.656 -15.200  -6.527  0.00  0.00    -0.267 OA
ATOM      9  N   UNL d   1      28.949 -15.666  -4.641  0.00  0.00    -0.320 N 
ATOM     10  H   UNL d   1      28.879 -15.694  -3.633  0.00  0.00     0.169 HD
BRANCH   9  11
ATOM     11  C   UNL d   1      29.770 -16.641  -5.261  0.00  0.00     0.068 A 
ATOM     12  C   UNL d   1      30.034 -17.839  -4.584  0.00  0.00     0.032 A 
ATOM     13  C   UNL d   1      30.763 -18.856  -5.213  0.00  0.00     0.002 A 
ATOM     14  C   UNL d   1      31.270 -18.665  -6.499  0.00  0.00     0.003 A 
ATOM     15  C   UNL d   1      31.064 -17.452  -7.156  0.00  0.00     0.039 A 
ATOM     16  C   UNL d   1      30.328 -16.443  -6.532  0.00  0.00     0.092 A 
BRANCH  16  17
ATOM     17  O   UNL d   1      30.246 -15.206  -7.113  0.00  0.00    -0.358 OA
ATOM     18  H   UNL d   1      29.471 -15.181  -7.694  0.00  0.00     0.217 HD
ENDBRANCH  16  17
ENDBRANCH   9  11
ENDBRANCH   1   7
BRANCH   6  19
ATOM     19  O   UNL d   1      26.891 -15.703  -2.819  0.00  0.00    -0.346 OA
BRANCH  19  20
ATOM     20  C   UNL d   1      26.825 -15.973  -1.424  0.00  0.00     0.214 C 
BRANCH  20  21
ATOM     21  C   UNL d   1      25.531 -16.680  -1.105  0.00  0.00    -0.034 A 
ATOM     22  C   UNL d   1      24.288 -16.069  -1.324  0.00  0.00     0.009 A 
ATOM     23  C   UNL d   1      23.112 -16.678  -0.894  0.00  0.00     0.001 A 
ATOM     24  C   UNL d   1      23.161 -17.940  -0.309  0.00  0.00     0.000 A 
ATOM     25  C   UNL d   1      24.387 -18.575  -0.115  0.00  0.00     0.001 A 
ATOM     26  C   UNL d   1      25.570 -17.944  -0.500  0.00  0.00     0.009 A 
ENDBRANCH  20  21
ENDBRANCH  19  20
ENDBRANCH   6  19
TORSDOF 6
ENDMDL
MODEL 4
REMARK VINA RESULT:    -6.601      2.896      7.068
REMARK INTER + INTRA:         -10.855
REMARK INTER:                  -8.390
REMARK INTRA:                  -2.464
REMARK CONF_INDEPENDENT:        1.790
REMARK UNBOUND:                -2.464
REMARK  6 active torsions:
REMARK  status: ('A' for Active; 'I' for Inactive)
REMARK       I    between atoms: C_2  and  N_3 
REMARK    1  A    between atoms: C_2  and  C_11 
REMARK    2  A    between atoms: N_3  and  C_4 
REMARK    3  A    between atoms: C_9  and  O_10 
REMARK    4  A    between atoms: C_16  and  O_17 
REMARK    5  A    between atoms: O_17  and  C_18 
REMARK    6  A    between atoms: C_18  and  C_19 
ROOT
ATOM      1  C   UNL d   1      24.562 -16.316  -1.379  0.00  0.00     0.065 A 
ATOM      2  C   UNL d   1      23.285 -16.882  -1.269  0.00  0.00     0.020 A 
ATOM      3  C   UNL d   1      23.079 -18.006  -0.464  0.00  0.00     0.001 A 
ATOM      4  C   UNL d   1      24.143 -18.575   0.231  0.00  0.00     0.003 A 
ATOM      5  C   UNL d   1      25.421 -18.038   0.107  0.00  0.00     0.038 A 
ATOM      6  C   UNL d   1      25.644 -16.916  -0.699  0.00  0.00     0.084 A 
ENDROOT
BRANCH   1   7
ATOM      7  C   UNL d   1      24.751 -15.100  -2.234  0.00  0.00     0.259 C 
ATOM      8  O   UNL d   1      23.779 -14.612  -2.815  0.00  0.00    -0.267 OA
ATOM      9  N   UNL d   1      26.069 -14.657  -2.367  0.00  0.00    -0.320 N 
ATOM     10  H   UNL d   1      26.806 -15.307  -2.130  0.00  0.00     0.169 HD
BRANCH   9  11
ATOM     11  C   UNL d   1      26.408 -13.574  -3.215  0.00  0.00     0.068 A 
ATOM     12  C   UNL d   1      27.164 -12.514  -2.696  0.00  0.00     0.032 A 
ATOM     13  C   UNL d   1      27.592 -11.478  -3.537  0.00  0.00     0.002 A 
ATOM     14  C   UNL d   1      27.230 -11.472  -4.885  0.00  0.00     0.003 A 
ATOM     15  C   UNL d   1      26.427 -12.492  -5.395  0.00  0.00     0.039 A 
ATOM     16  C   UNL d   1      26.010 -13.528  -4.559  0.00  0.00     0.092 A 
BRANCH  16  17
ATOM     17  O   UNL d   1      25.108 -14.449  -5.020  0.00  0.00    -0.358 OA
ATOM     18  H   UNL d   1      24.212 -14.095  -4.913  0.00  0.00     0.217 HD
ENDBRANCH  16  17
ENDBRANCH   9  11
ENDBRANCH   1   7
BRANCH   6  19
ATOM     19  O   UNL d   1      26.865 -16.329  -0.838  0.00  0.00    -0.346 OA
BRANCH  19  20
ATOM     20  C   UNL d   1      27.749 -16.296   0.276  0.00  0.00     0.214 C 
BRANCH  20  21
ATOM     21  C   UNL d   1      27.566 -15.001   1.030  0.00  0.00    -0.034 A 
ATOM     22  C   UNL d   1      28.084 -14.825   2.321  0.00  0.00     0.009 A 
ATOM     23  C   UNL d   1      27.786 -13.679   3.055  0.00  0.00     0.001 A 
ATOM     24  C   UNL d   1      27.030 -12.665   2.476  0.00  0.00     0.000 A 
ATOM     25  C   UNL d   1      26.536 -12.811   1.180  0.00  0.00     0.001 A 
ATOM     26  C   UNL d   1      26.792 -13.979   0.463  0.00  0.00     0.009 A 
ENDBRANCH  20  21
ENDBRANCH  19  20
ENDBRANCH   6  19
TORSDOF 6
ENDMDL
MODEL 5
REMARK VINA RESULT:    -6.429      3.343      7.325
REMARK INTER + INTRA:         -10.929
REMARK INTER:                  -8.219
REMARK INTRA:                  -2.710
REMARK CONF_INDEPENDENT:        1.790
REMARK UNBOUND:                -2.710
REMARK  6 active torsions:
REMARK  status: ('A' for Active; 'I' for Inactive)
REMARK       I    between atoms: C_2  and  N_3 
REMARK    1  A    between atoms: C_2  and  C_11 
REMARK    2  A    between atoms: N_3  and  C_4 
REMARK    3  A    between atoms: C_9  and  O_10 
REMARK    4  A    between atoms: C_16  and  O_17 
REMARK    5  A    between atoms: O_17  and  C_18 
REMARK    6  A    between atoms: C_18  and  C_19 
ROOT
ATOM      1  C   UNL d   1      25.403 -16.463  -1.738  0.00  0.00     0.065 A 
ATOM      2  C   UNL d   1      24.028 -16.713  -1.644  0.00  0.00     0.020 A 
ATOM      3  C   UNL d   1      23.534 -17.576  -0.662  0.00  0.00     0.001 A 
ATOM      4  C   UNL d   1      24.406 -18.198   0.227  0.00  0.00     0.003 A 
ATOM      5  C   UNL d   1      25.777 -17.980   0.125  0.00  0.00     0.038 A 
ATOM      6  C   UNL d   1      26.287 -17.122  -0.856  0.00  0.00     0.084 A 
ENDROOT
BRANCH   1   7
ATOM      7  C   UNL d   1      25.904 -15.519  -2.789  0.00  0.00     0.259 C 
ATOM      8  O   UNL d   1      25.098 -14.828  -3.415  0.00  0.00    -0.267 OA
ATOM      9  N   UNL d   1      27.279 -15.565  -3.033  0.00  0.00    -0.320 N 
ATOM     10  H   UNL d   1      27.783 -16.380  -2.712  0.00  0.00     0.169 HD
BRANCH   9  11
ATOM     11  C   UNL d   1      27.879 -14.793  -4.058  0.00  0.00     0.068 A 
ATOM     12  C   UNL d   1      28.919 -13.914  -3.729  0.00  0.00     0.032 A 
ATOM     13  C   UNL d   1      29.592 -13.211  -4.737  0.00  0.00     0.002 A 
ATOM     14  C   UNL d   1      29.200 -13.346  -6.070  0.00  0.00     0.003 A 
ATOM     15  C   UNL d   1      28.125 -14.173  -6.399  0.00  0.00     0.039 A 
ATOM     16  C   UNL d   1      27.463 -14.880  -5.394  0.00  0.00     0.092 A 
BRANCH  16  17
ATOM     17  O   UNL d   1      26.323 -15.577  -5.695  0.00  0.00    -0.358 OA
ATOM     18  H   UNL d   1      25.582 -15.199  -5.198  0.00  0.00     0.217 HD
ENDBRANCH  16  17
ENDBRANCH   9  11
ENDBRANCH   1   7
BRANCH   6  19
ATOM     19  O   UNL d   1      27.614 -16.846  -0.988  0.00  0.00    -0.346 OA
BRANCH  19  20
ATOM     20  C   UNL d   1      28.362 -16.472   0.163  0.00  0.00     0.214 C 
BRANCH  20  21
ATOM     21  C   UNL d   1      27.912 -15.113   0.640  0.00  0.00    -0.034 A 
ATOM     22  C   UNL d   1      27.779 -14.823   2.007  0.00  0.00     0.009 A 
ATOM     23  C   UNL d   1      27.230 -13.614   2.424  0.00  0.00     0.001 A 
ATOM     24  C   UNL d   1      26.877 -12.652   1.482  0.00  0.00     0.000 A 
ATOM     25  C   UNL d   1      27.034 -12.914   0.122  0.00  0.00     0.001 A 
ATOM     26  C   UNL d   1      27.538 -14.144  -0.300  0.00  0.00     0.009 A 
ENDBRANCH  20  21
ENDBRANCH  19  20
ENDBRANCH   6  19
TORSDOF 6
ENDMDL
MODEL 6
REMARK VINA RESULT:    -6.363      3.357      6.617
REMARK INTER + INTRA:         -10.709
REMARK INTER:                  -8.153
REMARK INTRA:                  -2.556
REMARK CONF_INDEPENDENT:        1.790
REMARK UNBOUND:                -2.556
REMARK  6 active torsions:
REMARK  status: ('A' for Active; 'I' for Inactive)
REMARK       I    between atoms: C_2  and  N_3 
REMARK    1  A    between atoms: C_2  and  C_11 
REMARK    2  A    between atoms: N_3  and  C_4 
REMARK    3  A    between atoms: C_9  and  O_10 
REMARK    4  A    between atoms: C_16  and  O_17 
REMARK    5  A    between atoms: O_17  and  C_18 
REMARK    6  A    between atoms: C_18  and  C_19 
ROOT
ATOM      1  C   UNL d   1      25.319 -16.058  -1.408  0.00  0.00     0.065 A 
ATOM      2  C   UNL d   1      24.226 -16.772  -0.900  0.00  0.00     0.020 A 
ATOM      3  C   UNL d   1      24.430 -17.864  -0.052  0.00  0.00     0.001 A 
ATOM      4  C   UNL d   1      25.721 -18.256   0.288  0.00  0.00     0.003 A 
ATOM      5  C   UNL d   1      26.816 -17.572  -0.234  0.00  0.00     0.038 A 
ATOM      6  C   UNL d   1      26.628 -16.479  -1.087  0.00  0.00     0.084 A 
ENDROOT
BRANCH   1   7
ATOM      7  C   UNL d   1      25.072 -14.878  -2.299  0.00  0.00     0.259 C 
ATOM      8  O   UNL d   1      24.030 -14.825  -2.956  0.00  0.00    -0.267 OA
ATOM      9  N   UNL d   1      26.114 -13.951  -2.373  0.00  0.00    -0.320 N 
ATOM     10  H   UNL d   1      27.029 -14.252  -2.067  0.00  0.00     0.169 HD
BRANCH   9  11
ATOM     11  C   UNL d   1      26.056 -12.834  -3.243  0.00  0.00     0.068 A 
ATOM     12  C   UNL d   1      26.401 -11.569  -2.750  0.00  0.00     0.032 A 
ATOM     13  C   UNL d   1      26.443 -10.466  -3.612  0.00  0.00     0.002 A 
ATOM     14  C   UNL d   1      26.098 -10.611  -4.956  0.00  0.00     0.003 A 
ATOM     15  C   UNL d   1      25.694 -11.855  -5.441  0.00  0.00     0.039 A 
ATOM     16  C   UNL d   1      25.662 -12.955  -4.583  0.00  0.00     0.092 A 
BRANCH  16  17
ATOM     17  O   UNL d   1      25.132 -14.140  -5.020  0.00  0.00    -0.358 OA
ATOM     18  H   UNL d   1      24.165 -14.075  -5.012  0.00  0.00     0.217 HD
ENDBRANCH  16  17
ENDBRANCH   9  11
ENDBRANCH   1   7
BRANCH   6  19
ATOM     19  O   UNL d   1      27.657 -15.753  -1.606  0.00  0.00    -0.346 OA
BRANCH  19  20
ATOM     20  C   UNL d   1      28.810 -16.433  -2.087  0.00  0.00     0.214 C 
BRANCH  20  21
ATOM     21  C   UNL d   1      28.958 -16.195  -3.570  0.00  0.00    -0.034 A 
ATOM     22  C   UNL d   1      29.934 -16.861  -4.326  0.00  0.00     0.009 A 
ATOM     23  C   UNL d   1      30.147 -16.526  -5.661  0.00  0.00     0.001 A 
ATOM     24  C   UNL d   1      29.337 -15.574  -6.273  0.00  0.00     0.000 A 
ATOM     25  C   UNL d   1      28.341 -14.927  -5.543  0.00  0.00     0.001 A 
ATOM     26  C   UNL d   1      28.158 -15.227  -4.193  0.00  0.00     0.009 A 
ENDBRANCH  20  21
ENDBRANCH  19  20
ENDBRANCH   6  19
TORSDOF 6
ENDMDL
MODEL 7
REMARK VINA RESULT:    -6.263      2.963      5.123
REMARK INTER + INTRA:         -10.914
REMARK INTER:                  -8.053
REMARK INTRA:                  -2.861
REMARK CONF_INDEPENDENT:        1.790
REMARK UNBOUND:                -2.861
REMARK  6 active torsions:
REMARK  status: ('A' for Active; 'I' for Inactive)
REMARK       I    between atoms: C_2  and  N_3 
REMARK    1  A    between atoms: C_2  and  C_11 
REMARK    2  A    between atoms: N_3  and  C_4 
REMARK    3  A    between atoms: C_9  and  O_10 
REMARK    4  A    between atoms: C_16  and  O_17 
REMARK    5  A    between atoms: O_17  and  C_18 
REMARK    6  A    between atoms: C_18  and  C_19 
ROOT
ATOM      1  C   UNL d   1      26.036 -13.194  -2.860  0.00  0.00     0.065 A 
ATOM      2  C   UNL d   1      26.642 -11.997  -2.454  0.00  0.00     0.020 A 
ATOM      3  C   UNL d   1      26.866 -10.972  -3.378  0.00  0.00     0.001 A 
ATOM      4  C   UNL d   1      26.494 -11.135  -4.709  0.00  0.00     0.003 A 
ATOM      5  C   UNL d   1      25.917 -12.330  -5.130  0.00  0.00     0.038 A 
ATOM      6  C   UNL d   1      25.691 -13.367  -4.218  0.00  0.00     0.084 A 
ENDROOT
BRANCH   1   7
ATOM      7  C   UNL d   1      25.790 -14.269  -1.845  0.00  0.00     0.259 C 
ATOM      8  O   UNL d   1      26.516 -14.340  -0.851  0.00  0.00    -0.267 OA
ATOM      9  N   UNL d   1      24.779 -15.178  -2.165  0.00  0.00    -0.320 N 
ATOM     10  H   UNL d   1      24.484 -15.228  -3.131  0.00  0.00     0.169 HD
BRANCH   9  11
ATOM     11  C   UNL d   1      24.497 -16.297  -1.343  0.00  0.00     0.068 A 
ATOM     12  C   UNL d   1      23.185 -16.497  -0.892  0.00  0.00     0.032 A 
ATOM     13  C   UNL d   1      22.862 -17.645  -0.157  0.00  0.00     0.002 A 
ATOM     14  C   UNL d   1      23.851 -18.573   0.169  0.00  0.00     0.003 A 
ATOM     15  C   UNL d   1      25.171 -18.351  -0.225  0.00  0.00     0.039 A 
ATOM     16  C   UNL d   1      25.490 -17.212  -0.966  0.00  0.00     0.092 A 
BRANCH  16  17
ATOM     17  O   UNL d   1      26.802 -16.920  -1.228  0.00  0.00    -0.358 OA
ATOM     18  H   UNL d   1      27.087 -16.198  -0.648  0.00  0.00     0.217 HD
ENDBRANCH  16  17
ENDBRANCH   9  11
ENDBRANCH   1   7
BRANCH   6  19
ATOM     19  O   UNL d   1      25.106 -14.548  -4.563  0.00  0.00    -0.346 OA
BRANCH  19  20
ATOM     20  C   UNL d   1      25.903 -15.574  -5.140  0.00  0.00     0.214 C 
BRANCH  20  21
ATOM     21  C   UNL d   1      27.362 -15.200  -5.040  0.00  0.00    -0.034 A 
ATOM     22  C   UNL d   1      28.037 -14.589  -6.107  0.00  0.00     0.009 A 
ATOM     23  C   UNL d   1      29.412 -14.379  -6.048  0.00  0.00     0.001 A 
ATOM     24  C   UNL d   1      30.114 -14.709  -4.893  0.00  0.00     0.000 A 
ATOM     25  C   UNL d   1      29.450 -15.286  -3.811  0.00  0.00     0.001 A 
ATOM     26  C   UNL d   1      28.081 -15.542  -3.887  0.00  0.00     0.009 A 
ENDBRANCH  20  21
ENDBRANCH  19  20
ENDBRANCH   6  19
TORSDOF 6
ENDMDL
MODEL 8
REMARK VINA RESULT:    -6.137      2.962      6.918
REMARK INTER + INTRA:         -10.887
REMARK INTER:                  -7.927
REMARK INTRA:                  -2.960
REMARK CONF_INDEPENDENT:        1.790
REMARK UNBOUND:                -2.960
REMARK  6 active torsions:
REMARK  status: ('A' for Active; 'I' for Inactive)
REMARK       I    between atoms: C_2  and  N_3 
REMARK    1  A    between atoms: C_2  and  C_11 
REMARK    2  A    between atoms: N_3  and  C_4 
REMARK    3  A    between atoms: C_9  and  O_10 
REMARK    4  A    between atoms: C_16  and  O_17 
REMARK    5  A    between atoms: O_17  and  C_18 
REMARK    6  A    between atoms: C_18  and  C_19 
ROOT
ATOM      1  C   UNL d   1      24.541 -16.537  -1.524  0.00  0.00     0.065 A 
ATOM      2  C   UNL d   1      23.180 -16.324  -1.269  0.00  0.00     0.020 A 
ATOM      3  C   UNL d   1      22.489 -17.163  -0.391  0.00  0.00     0.001 A 
ATOM      4  C   UNL d   1      23.146 -18.220   0.233  0.00  0.00     0.003 A 
ATOM      5  C   UNL d   1      24.491 -18.458  -0.035  0.00  0.00     0.038 A 
ATOM      6  C   UNL d   1      25.196 -17.629  -0.915  0.00  0.00     0.084 A 
ENDROOT
BRANCH   1   7
ATOM      7  C   UNL d   1      25.264 -15.611  -2.456  0.00  0.00     0.259 C 
ATOM      8  O   UNL d   1      24.645 -14.692  -2.995  0.00  0.00    -0.267 OA
ATOM      9  N   UNL d   1      26.601 -15.930  -2.704  0.00  0.00    -0.320 N 
ATOM     10  H   UNL d   1      26.906 -16.868  -2.483  0.00  0.00     0.169 HD
BRANCH   9  11
ATOM     11  C   UNL d   1      27.381 -15.196  -3.632  0.00  0.00     0.068 A 
ATOM     12  C   UNL d   1      28.467 -14.444  -3.163  0.00  0.00     0.032 A 
ATOM     13  C   UNL d   1      29.309 -13.787  -4.069  0.00  0.00     0.002 A 
ATOM     14  C   UNL d   1      29.047 -13.839  -5.438  0.00  0.00     0.003 A 
ATOM     15  C   UNL d   1      27.933 -14.535  -5.908  0.00  0.00     0.039 A 
ATOM     16  C   UNL d   1      27.100 -15.198  -5.005  0.00  0.00     0.092 A 
BRANCH  16  17
ATOM     17  O   UNL d   1      25.933 -15.760  -5.448  0.00  0.00    -0.358 OA
ATOM     18  H   UNL d   1      25.190 -15.368  -4.963  0.00  0.00     0.217 HD
ENDBRANCH  16  17
ENDBRANCH   9  11
ENDBRANCH   1   7
BRANCH   6  19
ATOM     19  O   UNL d   1      26.519 -17.795  -1.196  0.00  0.00    -0.346 OA
BRANCH  19  20
ATOM     20  C   UNL d   1      27.458 -17.804  -0.128  0.00  0.00     0.214 C 
BRANCH  20  21
ATOM     21  C   UNL d   1      27.920 -16.395   0.154  0.00  0.00    -0.034 A 
ATOM     22  C   UNL d   1      27.031 -15.408   0.604  0.00  0.00     0.009 A 
ATOM     23  C   UNL d   1      27.443 -14.084   0.724  0.00  0.00     0.001 A 
ATOM     24  C   UNL d   1      28.768 -13.746   0.466  0.00  0.00     0.000 A 
ATOM     25  C   UNL d   1      29.672 -14.723   0.049  0.00  0.00     0.001 A 
ATOM     26  C   UNL d   1      29.248 -16.041  -0.118  0.00  0.00     0.009 A 
ENDBRANCH  20  21
ENDBRANCH  19  20
ENDBRANCH   6  19
TORSDOF 6
ENDMDL
MODEL 9
REMARK VINA RESULT:    -5.879      2.744      6.476
REMARK INTER + INTRA:         -10.744
REMARK INTER:                  -7.669
REMARK INTRA:                  -3.075
REMARK CONF_INDEPENDENT:        1.790
REMARK UNBOUND:                -3.075
REMARK  6 active torsions:
REMARK  status: ('A' for Active; 'I' for Inactive)
REMARK       I    between atoms: C_2  and  N_3 
REMARK    1  A    between atoms: C_2  and  C_11 
REMARK    2  A    between atoms: N_3  and  C_4 
REMARK    3  A    between atoms: C_9  and  O_10 
REMARK    4  A    between atoms: C_16  and  O_17 
REMARK    5  A    between atoms: O_17  and  C_18 
REMARK    6  A    between atoms: C_18  and  C_19 
ROOT
ATOM      1  C   UNL d   1      25.163 -17.458  -0.519  0.00  0.00     0.065 A 
ATOM      2  C   UNL d   1      24.472 -18.603  -0.101  0.00  0.00     0.020 A 
ATOM      3  C   UNL d   1      23.074 -18.624  -0.106  0.00  0.00     0.001 A 
ATOM      4  C   UNL d   1      22.358 -17.504  -0.521  0.00  0.00     0.003 A 
ATOM      5  C   UNL d   1      23.034 -16.351  -0.912  0.00  0.00     0.038 A 
ATOM      6  C   UNL d   1      24.433 -16.315  -0.908  0.00  0.00     0.084 A 
ENDROOT
BRANCH   1   7
ATOM      7  C   UNL d   1      26.662 -17.470  -0.523  0.00  0.00     0.259 C 
ATOM      8  O   UNL d   1      27.265 -17.993   0.416  0.00  0.00    -0.267 OA
ATOM      9  N   UNL d   1      27.266 -16.793  -1.585  0.00  0.00    -0.320 N 
ATOM     10  H   UNL d   1      26.700 -16.133  -2.100  0.00  0.00     0.169 HD
BRANCH   9  11
ATOM     11  C   UNL d   1      28.673 -16.646  -1.669  0.00  0.00     0.068 A 
ATOM     12  C   UNL d   1      29.332 -17.062  -2.834  0.00  0.00     0.032 A 
ATOM     13  C   UNL d   1      30.708 -16.841  -2.980  0.00  0.00     0.002 A 
ATOM     14  C   UNL d   1      31.438 -16.247  -1.949  0.00  0.00     0.003 A 
ATOM     15  C   UNL d   1      30.799 -15.886  -0.763  0.00  0.00     0.039 A 
ATOM     16  C   UNL d   1      29.427 -16.097  -0.623  0.00  0.00     0.092 A 
BRANCH  16  17
ATOM     17  O   UNL d   1      28.828 -15.877   0.589  0.00  0.00    -0.358 OA
ATOM     18  H   UNL d   1      28.858 -16.694   1.109  0.00  0.00     0.217 HD
ENDBRANCH  16  17
ENDBRANCH   9  11
ENDBRANCH   1   7
BRANCH   6  19
ATOM     19  O   UNL d   1      25.150 -15.227  -1.306  0.00  0.00    -0.346 OA
BRANCH  19  20
ATOM     20  C   UNL d   1      24.782 -14.554  -2.504  0.00  0.00     0.214 C 
BRANCH  20  21
ATOM     21  C   UNL d   1      25.975 -14.471  -3.425  0.00  0.00    -0.034 A 
ATOM     22  C   UNL d   1      26.017 -15.177  -4.637  0.00  0.00     0.009 A 
ATOM     23  C   UNL d   1      27.178 -15.200  -5.404  0.00  0.00     0.001 A 
ATOM     24  C   UNL d   1      28.285 -14.456  -5.007  0.00  0.00     0.000 A 
ATOM     25  C   UNL d   1      28.246 -13.721  -3.822  0.00  0.00     0.001 A 
ATOM     26  C   UNL d   1      27.100 -13.737  -3.027  0.00  0.00     0.009 A 
ENDBRANCH  20  21
ENDBRANCH  19  20
ENDBRANCH   6  19
TORSDOF 6
ENDMDL
