MODEL 1
REMARK VINA RESULT:   -31.673      0.000      0.000
REMARK INTER + INTRA:         -36.077
REMARK INTER:                 -34.059
REMARK INTRA:                  -2.018
REMARK CONF_INDEPENDENT:        2.386
REMARK UNBOUND:                -2.018
REMARK  8 active torsions:
REMARK  status: ('A' for Active; 'I' for Inactive)
REMARK    1  A    between atoms: C_6  and  C_7 
REMARK    2  A    between atoms: C_7  and  O_8 
REMARK    3  A    between atoms: O_8  and  C_9 
REMARK    4  A    between atoms: C_11  and  N_12 
REMARK    5  A    between atoms: N_12  and  C_13 
REMARK    6  A    between atoms: C_17  and  O_18 
REMARK    7  A    between atoms: O_18  and  C_19 
REMARK    8  A    between atoms: C_23  and  C_24 
REMARK       I    between atoms: C_24  and  N_25 
ROOT
ATOM      1  C   UNL d   1      28.538 -16.826  -0.998  0.00  0.00     0.252 A 
ATOM      2  N   UNL d   1      28.074 -17.800  -0.234  0.00  0.00    -0.206 NA
ATOM      3  C   UNL d   1      26.701 -17.607  -0.212  0.00  0.00     0.097 A 
ATOM      4  C   UNL d   1      25.645 -18.296   0.434  0.00  0.00     0.072 A 
ATOM      5  C   UNL d   1      24.309 -17.876   0.219  0.00  0.00     0.078 A 
ATOM      6  C   UNL d   1      24.062 -16.779  -0.618  0.00  0.00     0.040 A 
ATOM      7  C   UNL d   1      25.094 -16.084  -1.266  0.00  0.00     0.042 A 
ATOM      8  C   UNL d   1      26.388 -16.527  -1.018  0.00  0.00     0.108 A 
ATOM      9  O   UNL d   1      27.555 -16.009  -1.508  0.00  0.00    -0.276 OA
ENDROOT
BRANCH   1  10
ATOM     10  N   UNL d   1      29.821 -16.604  -1.409  0.00  0.00    -0.320 N 
ATOM     11  H   UNL d   1      30.082 -17.132  -2.233  0.00  0.00     0.169 HD
BRANCH  10  12
ATOM     12  C   UNL d   1      30.921 -16.350  -0.540  0.00  0.00     0.038 C 
ATOM     13  C   UNL d   1      30.739 -15.849   0.776  0.00  0.00     0.068 C 
ATOM     14  C   UNL d   1      31.839 -15.659   1.659  0.00  0.00     0.092 C 
ATOM     15  C   UNL d   1      33.105 -16.109   1.265  0.00  0.00     0.067 C 
ATOM     16  C   UNL d   1      33.298 -16.557  -0.034  0.00  0.00     0.029 C 
ATOM     17 CL   UNL d   1      34.471 -16.284   2.312  0.00  0.00    -0.081 Cl
ATOM     18  C   UNL d   1      32.228 -16.666  -0.920  0.00  0.00     0.031 C 
BRANCH  14  19
ATOM     19  O   UNL d   1      31.555 -15.096   2.882  0.00  0.00    -0.347 OA
BRANCH  19  20
ATOM     20  C   UNL d   1      31.028 -13.752   2.849  0.00  0.00     0.209 C 
BRANCH  20  21
ATOM     21  C   UNL d   1      29.601 -13.686   3.447  0.00  0.00     0.211 C 
ATOM     22  C   UNL d   1      29.335 -12.388   4.211  0.00  0.00     0.037 C 
ATOM     23  C   UNL d   1      29.577 -12.712   5.686  0.00  0.00     0.030 C 
ATOM     24  C   UNL d   1      30.052 -14.152   5.734  0.00  0.00     0.235 C 
ATOM     25  N   UNL d   1      29.434 -14.768   4.507  0.00  0.00    -0.069 N 
ATOM     26  C   UNL d   1      28.006 -15.199   4.707  0.00  0.00     0.270 C 
ATOM     27  H   UNL d   1      29.964 -15.607   4.237  0.00  0.00     0.280 HD
ENDBRANCH  20  21
ENDBRANCH  19  20
ENDBRANCH  14  19
ENDBRANCH  10  12
ENDBRANCH   1  10
BRANCH   5  28
ATOM     28  O   UNL d   1      23.310 -18.579   0.889  0.00  0.00    -0.311 OA
BRANCH  28  29
ATOM     29  C   UNL d   1      22.098 -18.827   0.264  0.00  0.00     0.079 A 
ATOM     30  C   UNL d   1      21.921 -18.662  -1.108  0.00  0.00     0.056 A 
ATOM     31  C   UNL d   1      20.662 -18.899  -1.645  0.00  0.00     0.120 A 
ATOM     32  N   UNL d   1      19.596 -19.324  -0.929  0.00  0.00    -0.255 NA
ATOM     33  C   UNL d   1      19.813 -19.540   0.398  0.00  0.00     0.126 A 
ATOM     34  C   UNL d   1      21.040 -19.317   1.027  0.00  0.00     0.074 A 
BRANCH  33  35
ATOM     35  C   UNL d   1      18.643 -20.019   1.210  0.00  0.00     0.268 C 
ATOM     36  N   UNL d   1      18.249 -21.321   1.054  0.00  0.00    -0.365 N 
ATOM     37  H   UNL d   1      18.730 -21.948   0.420  0.00  0.00     0.159 HD
ATOM     38  H   UNL d   1      17.464 -21.660   1.594  0.00  0.00     0.159 HD
ATOM     39  O   UNL d   1      18.045 -19.273   1.987  0.00  0.00    -0.266 OA
ENDBRANCH  33  35
ENDBRANCH  28  29
ENDBRANCH   5  28
TORSDOF 8
ENDMDL
MODEL 2
REMARK VINA RESULT:   -31.237      5.655      8.003
REMARK INTER + INTRA:         -35.487
REMARK INTER:                 -33.623
REMARK INTRA:                  -1.864
REMARK CONF_INDEPENDENT:        2.386
REMARK UNBOUND:                -1.864
REMARK  8 active torsions:
REMARK  status: ('A' for Active; 'I' for Inactive)
REMARK    1  A    between atoms: C_6  and  C_7 
REMARK    2  A    between atoms: C_7  and  O_8 
REMARK    3  A    between atoms: O_8  and  C_9 
REMARK    4  A    between atoms: C_11  and  N_12 
REMARK    5  A    between atoms: N_12  and  C_13 
REMARK    6  A    between atoms: C_17  and  O_18 
REMARK    7  A    between atoms: O_18  and  C_19 
REMARK    8  A    between atoms: C_23  and  C_24 
REMARK       I    between atoms: C_24  and  N_25 
ROOT
ATOM      1  C   UNL d   1      26.434 -15.360  -3.075  0.00  0.00     0.252 A 
ATOM      2  N   UNL d   1      25.170 -15.366  -2.689  0.00  0.00    -0.206 NA
ATOM      3  C   UNL d   1      25.117 -16.308  -1.672  0.00  0.00     0.097 A 
ATOM      4  C   UNL d   1      24.059 -16.791  -0.865  0.00  0.00     0.072 A 
ATOM      5  C   UNL d   1      24.336 -17.745   0.147  0.00  0.00     0.078 A 
ATOM      6  C   UNL d   1      25.651 -18.199   0.316  0.00  0.00     0.040 A 
ATOM      7  C   UNL d   1      26.713 -17.733  -0.473  0.00  0.00     0.042 A 
ATOM      8  C   UNL d   1      26.391 -16.806  -1.457  0.00  0.00     0.108 A 
ATOM      9  O   UNL d   1      27.234 -16.222  -2.361  0.00  0.00    -0.276 OA
ENDROOT
BRANCH   1  10
ATOM     10  N   UNL d   1      27.039 -14.553  -3.997  0.00  0.00    -0.320 N 
ATOM     11  H   UNL d   1      28.004 -14.798  -4.181  0.00  0.00     0.169 HD
BRANCH  10  12
ATOM     12  C   UNL d   1      26.779 -13.162  -4.154  0.00  0.00     0.038 C 
ATOM     13  C   UNL d   1      27.336 -12.408  -5.220  0.00  0.00     0.068 C 
ATOM     14  C   UNL d   1      27.019 -11.033  -5.405  0.00  0.00     0.092 C 
ATOM     15  C   UNL d   1      26.030 -10.455  -4.601  0.00  0.00     0.067 C 
ATOM     16  C   UNL d   1      25.515 -11.170  -3.529  0.00  0.00     0.029 C 
ATOM     17 CL   UNL d   1      25.271  -8.929  -4.896  0.00  0.00    -0.081 Cl
ATOM     18  C   UNL d   1      25.890 -12.494  -3.307  0.00  0.00     0.031 C 
BRANCH  14  19
ATOM     19  O   UNL d   1      27.677 -10.383  -6.425  0.00  0.00    -0.347 OA
BRANCH  19  20
ATOM     20  C   UNL d   1      27.012 -10.389  -7.707  0.00  0.00     0.209 C 
BRANCH  20  21
ATOM     21  C   UNL d   1      28.025 -10.522  -8.870  0.00  0.00     0.211 C 
ATOM     22  C   UNL d   1      27.414 -11.155 -10.122  0.00  0.00     0.037 C 
ATOM     23  C   UNL d   1      27.790 -12.637 -10.069  0.00  0.00     0.030 C 
ATOM     24  C   UNL d   1      28.532 -12.842  -8.761  0.00  0.00     0.235 C 
ATOM     25  N   UNL d   1      29.136 -11.491  -8.483  0.00  0.00    -0.069 N 
ATOM     26  C   UNL d   1      30.428 -11.249  -9.214  0.00  0.00     0.270 C 
ATOM     27  H   UNL d   1      29.340 -11.404  -7.479  0.00  0.00     0.280 HD
ENDBRANCH  20  21
ENDBRANCH  19  20
ENDBRANCH  14  19
ENDBRANCH  10  12
ENDBRANCH   1  10
BRANCH   5  28
ATOM     28  O   UNL d   1      23.256 -18.196   0.902  0.00  0.00    -0.311 OA
BRANCH  28  29
ATOM     29  C   UNL d   1      22.079 -18.570   0.272  0.00  0.00     0.079 A 
ATOM     30  C   UNL d   1      21.894 -18.435  -1.102  0.00  0.00     0.056 A 
ATOM     31  C   UNL d   1      20.668 -18.801  -1.644  0.00  0.00     0.120 A 
ATOM     32  N   UNL d   1      19.645 -19.325  -0.930  0.00  0.00    -0.255 NA
ATOM     33  C   UNL d   1      19.875 -19.506   0.401  0.00  0.00     0.126 A 
ATOM     34  C   UNL d   1      21.069 -19.157   1.033  0.00  0.00     0.074 A 
BRANCH  33  35
ATOM     35  C   UNL d   1      18.754 -20.093   1.211  0.00  0.00     0.268 C 
ATOM     36  N   UNL d   1      17.846 -20.885   0.562  0.00  0.00    -0.365 N 
ATOM     37  H   UNL d   1      17.925 -21.080  -0.429  0.00  0.00     0.159 HD
ATOM     38  H   UNL d   1      17.085 -21.290   1.093  0.00  0.00     0.159 HD
ATOM     39  O   UNL d   1      18.640 -19.869   2.417  0.00  0.00    -0.266 OA
ENDBRANCH  33  35
ENDBRANCH  28  29
ENDBRANCH   5  28
TORSDOF 8
ENDMDL
MODEL 3
REMARK VINA RESULT:   -31.117      4.684      6.763
REMARK INTER + INTRA:         -35.593
REMARK INTER:                 -33.503
REMARK INTRA:                  -2.089
REMARK CONF_INDEPENDENT:        2.386
REMARK UNBOUND:                -2.089
REMARK  8 active torsions:
REMARK  status: ('A' for Active; 'I' for Inactive)
REMARK    1  A    between atoms: C_6  and  C_7 
REMARK    2  A    between atoms: C_7  and  O_8 
REMARK    3  A    between atoms: O_8  and  C_9 
REMARK    4  A    between atoms: C_11  and  N_12 
REMARK    5  A    between atoms: N_12  and  C_13 
REMARK    6  A    between atoms: C_17  and  O_18 
REMARK    7  A    between atoms: O_18  and  C_19 
REMARK    8  A    between atoms: C_23  and  C_24 
REMARK       I    between atoms: C_24  and  N_25 
ROOT
ATOM      1  C   UNL d   1      26.405 -15.311  -3.338  0.00  0.00     0.252 A 
ATOM      2  N   UNL d   1      25.148 -15.329  -2.927  0.00  0.00    -0.206 NA
ATOM      3  C   UNL d   1      25.135 -16.233  -1.875  0.00  0.00     0.097 A 
ATOM      4  C   UNL d   1      24.102 -16.707  -1.029  0.00  0.00     0.072 A 
ATOM      5  C   UNL d   1      24.418 -17.616   0.011  0.00  0.00     0.078 A 
ATOM      6  C   UNL d   1      25.745 -18.037   0.171  0.00  0.00     0.040 A 
ATOM      7  C   UNL d   1      26.782 -17.580  -0.656  0.00  0.00     0.042 A 
ATOM      8  C   UNL d   1      26.422 -16.696  -1.667  0.00  0.00     0.108 A 
ATOM      9  O   UNL d   1      27.236 -16.130  -2.608  0.00  0.00    -0.276 OA
ENDROOT
BRANCH   1  10
ATOM     10  N   UNL d   1      26.975 -14.528  -4.300  0.00  0.00    -0.320 N 
ATOM     11  H   UNL d   1      26.303 -14.046  -4.883  0.00  0.00     0.169 HD
BRANCH  10  12
ATOM     12  C   UNL d   1      28.186 -14.834  -4.985  0.00  0.00     0.038 C 
ATOM     13  C   UNL d   1      29.007 -15.929  -4.607  0.00  0.00     0.068 C 
ATOM     14  C   UNL d   1      30.182 -16.265  -5.337  0.00  0.00     0.092 C 
ATOM     15  C   UNL d   1      30.452 -15.586  -6.531  0.00  0.00     0.067 C 
ATOM     16  C   UNL d   1      29.681 -14.486  -6.881  0.00  0.00     0.029 C 
ATOM     17 CL   UNL d   1      31.614 -16.073  -7.716  0.00  0.00    -0.081 Cl
ATOM     18  C   UNL d   1      28.576 -14.114  -6.117  0.00  0.00     0.031 C 
BRANCH  14  19
ATOM     19  O   UNL d   1      30.942 -17.298  -4.836  0.00  0.00    -0.347 OA
BRANCH  19  20
ATOM     20  C   UNL d   1      30.209 -18.455  -4.379  0.00  0.00     0.209 C 
BRANCH  20  21
ATOM     21  C   UNL d   1      30.308 -19.625  -5.388  0.00  0.00     0.211 C 
ATOM     22  C   UNL d   1      31.109 -20.811  -4.847  0.00  0.00     0.037 C 
ATOM     23  C   UNL d   1      32.525 -20.651  -5.404  0.00  0.00     0.030 C 
ATOM     24  C   UNL d   1      32.533 -19.346  -6.179  0.00  0.00     0.235 C 
ATOM     25  N   UNL d   1      31.100 -19.185  -6.614  0.00  0.00    -0.069 N 
ATOM     26  C   UNL d   1      30.762 -19.959  -7.859  0.00  0.00     0.270 C 
ATOM     27  H   UNL d   1      30.910 -18.195  -6.816  0.00  0.00     0.280 HD
ENDBRANCH  20  21
ENDBRANCH  19  20
ENDBRANCH  14  19
ENDBRANCH  10  12
ENDBRANCH   1  10
BRANCH   5  28
ATOM     28  O   UNL d   1      23.363 -18.060   0.803  0.00  0.00    -0.311 OA
BRANCH  28  29
ATOM     29  C   UNL d   1      22.180 -18.477   0.212  0.00  0.00     0.079 A 
ATOM     30  C   UNL d   1      21.922 -18.294  -1.145  0.00  0.00     0.056 A 
ATOM     31  C   UNL d   1      20.694 -18.710  -1.646  0.00  0.00     0.120 A 
ATOM     32  N   UNL d   1      19.739 -19.324  -0.911  0.00  0.00    -0.255 NA
ATOM     33  C   UNL d   1      20.043 -19.548   0.398  0.00  0.00     0.126 A 
ATOM     34  C   UNL d   1      21.244 -19.155   0.991  0.00  0.00     0.074 A 
BRANCH  33  35
ATOM     35  C   UNL d   1      18.998 -20.235   1.230  0.00  0.00     0.268 C 
ATOM     36  N   UNL d   1      17.877 -20.695   0.594  0.00  0.00    -0.365 N 
ATOM     37  H   UNL d   1      17.752 -20.586  -0.406  0.00  0.00     0.159 HD
ATOM     38  H   UNL d   1      17.164 -21.162   1.140  0.00  0.00     0.159 HD
ATOM     39  O   UNL d   1      19.131 -20.379   2.447  0.00  0.00    -0.266 OA
ENDBRANCH  33  35
ENDBRANCH  28  29
ENDBRANCH   5  28
TORSDOF 8
ENDMDL
MODEL 4
REMARK VINA RESULT:   -31.034      4.862      7.042
REMARK INTER + INTRA:         -35.628
REMARK INTER:                 -33.420
REMARK INTRA:                  -2.208
REMARK CONF_INDEPENDENT:        2.386
REMARK UNBOUND:                -2.208
REMARK  8 active torsions:
REMARK  status: ('A' for Active; 'I' for Inactive)
REMARK    1  A    between atoms: C_6  and  C_7 
REMARK    2  A    between atoms: C_7  and  O_8 
REMARK    3  A    between atoms: O_8  and  C_9 
REMARK    4  A    between atoms: C_11  and  N_12 
REMARK    5  A    between atoms: N_12  and  C_13 
REMARK    6  A    between atoms: C_17  and  O_18 
REMARK    7  A    between atoms: O_18  and  C_19 
REMARK    8  A    between atoms: C_23  and  C_24 
REMARK       I    between atoms: C_24  and  N_25 
ROOT
ATOM      1  C   UNL d   1      25.391 -14.320  -3.198  0.00  0.00     0.252 A 
ATOM      2  N   UNL d   1      24.219 -14.756  -2.768  0.00  0.00    -0.206 NA
ATOM      3  C   UNL d   1      24.526 -15.780  -1.885  0.00  0.00     0.097 A 
ATOM      4  C   UNL d   1      23.724 -16.652  -1.109  0.00  0.00     0.072 A 
ATOM      5  C   UNL d   1      24.348 -17.587  -0.246  0.00  0.00     0.078 A 
ATOM      6  C   UNL d   1      25.748 -17.637  -0.189  0.00  0.00     0.040 A 
ATOM      7  C   UNL d   1      26.560 -16.782  -0.949  0.00  0.00     0.042 A 
ATOM      8  C   UNL d   1      25.902 -15.888  -1.787  0.00  0.00     0.108 A 
ATOM      9  O   UNL d   1      26.463 -14.975  -2.636  0.00  0.00    -0.276 OA
ENDROOT
BRANCH   1  10
ATOM     10  N   UNL d   1      25.656 -13.267  -4.025  0.00  0.00    -0.320 N 
ATOM     11  H   UNL d   1      24.828 -12.842  -4.422  0.00  0.00     0.169 HD
BRANCH  10  12
ATOM     12  C   UNL d   1      26.793 -13.170  -4.878  0.00  0.00     0.038 C 
ATOM     13  C   UNL d   1      27.419 -14.319  -5.430  0.00  0.00     0.068 C 
ATOM     14  C   UNL d   1      28.515 -14.209  -6.332  0.00  0.00     0.092 C 
ATOM     15  C   UNL d   1      28.887 -12.939  -6.789  0.00  0.00     0.067 C 
ATOM     16  C   UNL d   1      28.311 -11.812  -6.220  0.00  0.00     0.029 C 
ATOM     17 CL   UNL d   1      29.940 -12.629  -8.125  0.00  0.00    -0.081 Cl
ATOM     18  C   UNL d   1      27.291 -11.927  -5.278  0.00  0.00     0.031 C 
BRANCH  14  19
ATOM     19  O   UNL d   1      29.093 -15.389  -6.743  0.00  0.00    -0.347 OA
BRANCH  19  20
ATOM     20  C   UNL d   1      29.580 -16.250  -5.693  0.00  0.00     0.209 C 
BRANCH  20  21
ATOM     21  C   UNL d   1      30.843 -17.029  -6.137  0.00  0.00     0.211 C 
ATOM     22  C   UNL d   1      31.994 -16.916  -5.136  0.00  0.00     0.037 C 
ATOM     23  C   UNL d   1      32.902 -15.804  -5.664  0.00  0.00     0.030 C 
ATOM     24  C   UNL d   1      32.220 -15.248  -6.900  0.00  0.00     0.235 C 
ATOM     25  N   UNL d   1      31.410 -16.411  -7.409  0.00  0.00    -0.069 N 
ATOM     26  C   UNL d   1      32.207 -17.377  -8.244  0.00  0.00     0.270 C 
ATOM     27  H   UNL d   1      30.645 -16.066  -8.002  0.00  0.00     0.280 HD
ENDBRANCH  20  21
ENDBRANCH  19  20
ENDBRANCH  14  19
ENDBRANCH  10  12
ENDBRANCH   1  10
BRANCH   5  28
ATOM     28  O   UNL d   1      23.512 -18.430   0.482  0.00  0.00    -0.311 OA
BRANCH  28  29
ATOM     29  C   UNL d   1      22.248 -18.735   0.003  0.00  0.00     0.079 A 
ATOM     30  C   UNL d   1      21.983 -18.883  -1.357  0.00  0.00     0.056 A 
ATOM     31  C   UNL d   1      20.678 -19.153  -1.750  0.00  0.00     0.120 A 
ATOM     32  N   UNL d   1      19.644 -19.325  -0.895  0.00  0.00    -0.255 NA
ATOM     33  C   UNL d   1      19.943 -19.239   0.431  0.00  0.00     0.126 A 
ATOM     34  C   UNL d   1      21.221 -18.959   0.919  0.00  0.00     0.074 A 
BRANCH  33  35
ATOM     35  C   UNL d   1      18.810 -19.434   1.398  0.00  0.00     0.268 C 
ATOM     36  N   UNL d   1      18.238 -20.676   1.468  0.00  0.00    -0.365 N 
ATOM     37  H   UNL d   1      18.568 -21.444   0.895  0.00  0.00     0.159 HD
ATOM     38  H   UNL d   1      17.474 -20.825   2.115  0.00  0.00     0.159 HD
ATOM     39  O   UNL d   1      18.395 -18.513   2.103  0.00  0.00    -0.266 OA
ENDBRANCH  33  35
ENDBRANCH  28  29
ENDBRANCH   5  28
TORSDOF 8
ENDMDL
MODEL 5
REMARK VINA RESULT:   -30.888      4.035      5.526
REMARK INTER + INTRA:         -35.578
REMARK INTER:                 -33.274
REMARK INTRA:                  -2.303
REMARK CONF_INDEPENDENT:        2.386
REMARK UNBOUND:                -2.303
REMARK  8 active torsions:
REMARK  status: ('A' for Active; 'I' for Inactive)
REMARK    1  A    between atoms: C_6  and  C_7 
REMARK    2  A    between atoms: C_7  and  O_8 
REMARK    3  A    between atoms: O_8  and  C_9 
REMARK    4  A    between atoms: C_11  and  N_12 
REMARK    5  A    between atoms: N_12  and  C_13 
REMARK    6  A    between atoms: C_17  and  O_18 
REMARK    7  A    between atoms: O_18  and  C_19 
REMARK    8  A    between atoms: C_23  and  C_24 
REMARK       I    between atoms: C_24  and  N_25 
ROOT
ATOM      1  C   UNL d   1      28.543 -16.900  -1.377  0.00  0.00     0.252 A 
ATOM      2  N   UNL d   1      28.061 -17.848  -0.590  0.00  0.00    -0.206 NA
ATOM      3  C   UNL d   1      26.713 -17.550  -0.463  0.00  0.00     0.097 A 
ATOM      4  C   UNL d   1      25.657 -18.164   0.252  0.00  0.00     0.072 A 
ATOM      5  C   UNL d   1      24.345 -17.639   0.142  0.00  0.00     0.078 A 
ATOM      6  C   UNL d   1      24.124 -16.514  -0.663  0.00  0.00     0.040 A 
ATOM      7  C   UNL d   1      25.157 -15.891  -1.380  0.00  0.00     0.042 A 
ATOM      8  C   UNL d   1      26.427 -16.436  -1.233  0.00  0.00     0.108 A 
ATOM      9  O   UNL d   1      27.592 -16.002  -1.803  0.00  0.00    -0.276 OA
ENDROOT
BRANCH   1  10
ATOM     10  N   UNL d   1      29.805 -16.771  -1.880  0.00  0.00    -0.320 N 
ATOM     11  H   UNL d   1      30.372 -16.091  -1.388  0.00  0.00     0.169 HD
BRANCH  10  12
ATOM     12  C   UNL d   1      30.146 -16.887  -3.258  0.00  0.00     0.038 C 
ATOM     13  C   UNL d   1      29.413 -16.217  -4.273  0.00  0.00     0.068 C 
ATOM     14  C   UNL d   1      29.800 -16.287  -5.641  0.00  0.00     0.092 C 
ATOM     15  C   UNL d   1      31.008 -16.915  -5.968  0.00  0.00     0.067 C 
ATOM     16  C   UNL d   1      31.705 -17.609  -4.990  0.00  0.00     0.029 C 
ATOM     17 CL   UNL d   1      31.808 -16.801  -7.498  0.00  0.00    -0.081 Cl
ATOM     18  C   UNL d   1      31.277 -17.601  -3.664  0.00  0.00     0.031 C 
BRANCH  14  19
ATOM     19  O   UNL d   1      28.972 -15.663  -6.547  0.00  0.00    -0.347 OA
BRANCH  19  20
ATOM     20  C   UNL d   1      29.011 -14.220  -6.545  0.00  0.00     0.209 C 
BRANCH  20  21
ATOM     21  C   UNL d   1      27.656 -13.616  -6.101  0.00  0.00     0.211 C 
ATOM     22  C   UNL d   1      27.786 -12.186  -5.575  0.00  0.00     0.037 C 
ATOM     23  C   UNL d   1      27.852 -12.303  -4.051  0.00  0.00     0.030 C 
ATOM     24  C   UNL d   1      27.842 -13.788  -3.738  0.00  0.00     0.235 C 
ATOM     25  N   UNL d   1      27.110 -14.391  -4.908  0.00  0.00    -0.069 N 
ATOM     26  C   UNL d   1      25.613 -14.321  -4.779  0.00  0.00     0.270 C 
ATOM     27  H   UNL d   1      27.357 -15.385  -4.994  0.00  0.00     0.280 HD
ENDBRANCH  20  21
ENDBRANCH  19  20
ENDBRANCH  14  19
ENDBRANCH  10  12
ENDBRANCH   1  10
BRANCH   5  28
ATOM     28  O   UNL d   1      23.347 -18.274   0.878  0.00  0.00    -0.311 OA
BRANCH  28  29
ATOM     29  C   UNL d   1      22.153 -18.625   0.268  0.00  0.00     0.079 A 
ATOM     30  C   UNL d   1      21.994 -18.615  -1.117  0.00  0.00     0.056 A 
ATOM     31  C   UNL d   1      20.751 -18.947  -1.641  0.00  0.00     0.120 A 
ATOM     32  N   UNL d   1      19.686 -19.325  -0.898  0.00  0.00    -0.255 NA
ATOM     33  C   UNL d   1      19.887 -19.389   0.448  0.00  0.00     0.126 A 
ATOM     34  C   UNL d   1      21.097 -19.062   1.065  0.00  0.00     0.074 A 
BRANCH  33  35
ATOM     35  C   UNL d   1      18.719 -19.813   1.292  0.00  0.00     0.268 C 
ATOM     36  N   UNL d   1      18.134 -18.869   2.092  0.00  0.00    -0.365 N 
ATOM     37  H   UNL d   1      18.468 -17.913   2.114  0.00  0.00     0.159 HD
ATOM     38  H   UNL d   1      17.345 -19.138   2.666  0.00  0.00     0.159 HD
ATOM     39  O   UNL d   1      18.297 -20.971   1.279  0.00  0.00    -0.266 OA
ENDBRANCH  33  35
ENDBRANCH  28  29
ENDBRANCH   5  28
TORSDOF 8
ENDMDL
MODEL 6
REMARK VINA RESULT:   -30.864      5.643      6.929
REMARK INTER + INTRA:         -35.428
REMARK INTER:                 -33.250
REMARK INTRA:                  -2.178
REMARK CONF_INDEPENDENT:        2.386
REMARK UNBOUND:                -2.178
REMARK  8 active torsions:
REMARK  status: ('A' for Active; 'I' for Inactive)
REMARK    1  A    between atoms: C_6  and  C_7 
REMARK    2  A    between atoms: C_7  and  O_8 
REMARK    3  A    between atoms: O_8  and  C_9 
REMARK    4  A    between atoms: C_11  and  N_12 
REMARK    5  A    between atoms: N_12  and  C_13 
REMARK    6  A    between atoms: C_17  and  O_18 
REMARK    7  A    between atoms: O_18  and  C_19 
REMARK    8  A    between atoms: C_23  and  C_24 
REMARK       I    between atoms: C_24  and  N_25 
ROOT
ATOM      1  C   UNL d   1      26.525 -15.002  -2.488  0.00  0.00     0.252 A 
ATOM      2  N   UNL d   1      25.285 -14.982  -2.029  0.00  0.00    -0.206 NA
ATOM      3  C   UNL d   1      25.181 -16.121  -1.245  0.00  0.00     0.097 A 
ATOM      4  C   UNL d   1      24.116 -16.677  -0.496  0.00  0.00     0.072 A 
ATOM      5  C   UNL d   1      24.338 -17.856   0.259  0.00  0.00     0.078 A 
ATOM      6  C   UNL d   1      25.605 -18.454   0.235  0.00  0.00     0.040 A 
ATOM      7  C   UNL d   1      26.673 -17.919  -0.501  0.00  0.00     0.042 A 
ATOM      8  C   UNL d   1      26.405 -16.767  -1.231  0.00  0.00     0.108 A 
ATOM      9  O   UNL d   1      27.262 -16.072  -2.038  0.00  0.00    -0.276 OA
ENDROOT
BRANCH   1  10
ATOM     10  N   UNL d   1      27.167 -14.066  -3.246  0.00  0.00    -0.320 N 
ATOM     11  H   UNL d   1      28.136 -13.926  -2.986  0.00  0.00     0.169 HD
BRANCH  10  12
ATOM     12  C   UNL d   1      26.559 -12.892  -3.776  0.00  0.00     0.038 C 
ATOM     13  C   UNL d   1      26.252 -11.771  -2.960  0.00  0.00     0.068 C 
ATOM     14  C   UNL d   1      25.703 -10.578  -3.509  0.00  0.00     0.092 C 
ATOM     15  C   UNL d   1      25.597 -10.463  -4.901  0.00  0.00     0.067 C 
ATOM     16  C   UNL d   1      25.852 -11.569  -5.700  0.00  0.00     0.029 C 
ATOM     17 CL   UNL d   1      25.289  -8.993  -5.759  0.00  0.00    -0.081 Cl
ATOM     18  C   UNL d   1      26.316 -12.760  -5.146  0.00  0.00     0.031 C 
BRANCH  14  19
ATOM     19  O   UNL d   1      25.372  -9.585  -2.615  0.00  0.00    -0.347 OA
BRANCH  19  20
ATOM     20  C   UNL d   1      26.475  -8.804  -2.107  0.00  0.00     0.209 C 
BRANCH  20  21
ATOM     21  C   UNL d   1      26.698  -7.523  -2.949  0.00  0.00     0.211 C 
ATOM     22  C   UNL d   1      27.463  -6.438  -2.189  0.00  0.00     0.037 C 
ATOM     23  C   UNL d   1      26.401  -5.486  -1.635  0.00  0.00     0.030 C 
ATOM     24  C   UNL d   1      25.057  -6.081  -2.013  0.00  0.00     0.235 C 
ATOM     25  N   UNL d   1      25.358  -6.868  -3.260  0.00  0.00    -0.069 N 
ATOM     26  C   UNL d   1      25.374  -6.030  -4.509  0.00  0.00     0.270 C 
ATOM     27  H   UNL d   1      24.639  -7.591  -3.395  0.00  0.00     0.280 HD
ENDBRANCH  20  21
ENDBRANCH  19  20
ENDBRANCH  14  19
ENDBRANCH  10  12
ENDBRANCH   1  10
BRANCH   5  28
ATOM     28  O   UNL d   1      23.252 -18.367   0.965  0.00  0.00    -0.311 OA
BRANCH  28  29
ATOM     29  C   UNL d   1      22.078 -18.683   0.299  0.00  0.00     0.079 A 
ATOM     30  C   UNL d   1      21.914 -18.459  -1.066  0.00  0.00     0.056 A 
ATOM     31  C   UNL d   1      20.691 -18.772  -1.645  0.00  0.00     0.120 A 
ATOM     32  N   UNL d   1      19.651 -19.325  -0.979  0.00  0.00    -0.255 NA
ATOM     33  C   UNL d   1      19.860 -19.593   0.340  0.00  0.00     0.126 A 
ATOM     34  C   UNL d   1      21.051 -19.302   1.009  0.00  0.00     0.074 A 
BRANCH  33  35
ATOM     35  C   UNL d   1      18.721 -20.213   1.097  0.00  0.00     0.268 C 
ATOM     36  N   UNL d   1      17.813 -20.954   0.389  0.00  0.00    -0.365 N 
ATOM     37  H   UNL d   1      17.905 -21.090  -0.611  0.00  0.00     0.159 HD
ATOM     38  H   UNL d   1      17.040 -21.380   0.884  0.00  0.00     0.159 HD
ATOM     39  O   UNL d   1      18.591 -20.060   2.313  0.00  0.00    -0.266 OA
ENDBRANCH  33  35
ENDBRANCH  28  29
ENDBRANCH   5  28
TORSDOF 8
ENDMDL
MODEL 7
REMARK VINA RESULT:   -30.790      3.788      5.159
REMARK INTER + INTRA:         -35.681
REMARK INTER:                 -33.177
REMARK INTRA:                  -2.504
REMARK CONF_INDEPENDENT:        2.386
REMARK UNBOUND:                -2.504
REMARK  8 active torsions:
REMARK  status: ('A' for Active; 'I' for Inactive)
REMARK    1  A    between atoms: C_6  and  C_7 
REMARK    2  A    between atoms: C_7  and  O_8 
REMARK    3  A    between atoms: O_8  and  C_9 
REMARK    4  A    between atoms: C_11  and  N_12 
REMARK    5  A    between atoms: N_12  and  C_13 
REMARK    6  A    between atoms: C_17  and  O_18 
REMARK    7  A    between atoms: O_18  and  C_19 
REMARK    8  A    between atoms: C_23  and  C_24 
REMARK       I    between atoms: C_24  and  N_25 
ROOT
ATOM      1  C   UNL d   1      26.707 -15.450  -3.030  0.00  0.00     0.252 A 
ATOM      2  N   UNL d   1      25.452 -15.377  -2.620  0.00  0.00    -0.206 NA
ATOM      3  C   UNL d   1      25.346 -16.346  -1.634  0.00  0.00     0.097 A 
ATOM      4  C   UNL d   1      24.268 -16.776  -0.822  0.00  0.00     0.072 A 
ATOM      5  C   UNL d   1      24.490 -17.782   0.152  0.00  0.00     0.078 A 
ATOM      6  C   UNL d   1      25.770 -18.338   0.281  0.00  0.00     0.040 A 
ATOM      7  C   UNL d   1      26.851 -17.925  -0.513  0.00  0.00     0.042 A 
ATOM      8  C   UNL d   1      26.582 -16.943  -1.459  0.00  0.00     0.108 A 
ATOM      9  O   UNL d   1      27.451 -16.393  -2.360  0.00  0.00    -0.276 OA
ENDROOT
BRANCH   1  10
ATOM     10  N   UNL d   1      27.354 -14.660  -3.936  0.00  0.00    -0.320 N 
ATOM     11  H   UNL d   1      26.746 -14.007  -4.415  0.00  0.00     0.169 HD
BRANCH  10  12
ATOM     12  C   UNL d   1      28.461 -15.074  -4.731  0.00  0.00     0.038 C 
ATOM     13  C   UNL d   1      29.435 -15.987  -4.247  0.00  0.00     0.068 C 
ATOM     14  C   UNL d   1      30.501 -16.444  -5.071  0.00  0.00     0.092 C 
ATOM     15  C   UNL d   1      30.505 -16.093  -6.426  0.00  0.00     0.067 C 
ATOM     16  C   UNL d   1      29.584 -15.166  -6.895  0.00  0.00     0.029 C 
ATOM     17 CL   UNL d   1      31.499 -16.818  -7.642  0.00  0.00    -0.081 Cl
ATOM     18  C   UNL d   1      28.588 -14.662  -6.060  0.00  0.00     0.031 C 
BRANCH  14  19
ATOM     19  O   UNL d   1      31.430 -17.267  -4.474  0.00  0.00    -0.347 OA
BRANCH  19  20
ATOM     20  C   UNL d   1      30.895 -18.329  -3.654  0.00  0.00     0.209 C 
BRANCH  20  21
ATOM     21  C   UNL d   1      31.385 -18.216  -2.190  0.00  0.00     0.211 C 
ATOM     22  C   UNL d   1      30.261 -17.869  -1.212  0.00  0.00     0.037 C 
ATOM     23  C   UNL d   1      30.338 -16.355  -1.002  0.00  0.00     0.030 C 
ATOM     24  C   UNL d   1      31.440 -15.855  -1.917  0.00  0.00     0.235 C 
ATOM     25  N   UNL d   1      32.352 -17.046  -2.056  0.00  0.00    -0.069 N 
ATOM     26  C   UNL d   1      33.322 -17.194  -0.916  0.00  0.00     0.270 C 
ATOM     27  H   UNL d   1      32.911 -16.955  -2.914  0.00  0.00     0.280 HD
ENDBRANCH  20  21
ENDBRANCH  19  20
ENDBRANCH  14  19
ENDBRANCH  10  12
ENDBRANCH   1  10
BRANCH   5  28
ATOM     28  O   UNL d   1      23.392 -18.178   0.912  0.00  0.00    -0.311 OA
BRANCH  28  29
ATOM     29  C   UNL d   1      22.215 -18.555   0.285  0.00  0.00     0.079 A 
ATOM     30  C   UNL d   1      22.088 -18.585  -1.102  0.00  0.00     0.056 A 
ATOM     31  C   UNL d   1      20.859 -18.941  -1.645  0.00  0.00     0.120 A 
ATOM     32  N   UNL d   1      19.779 -19.304  -0.916  0.00  0.00    -0.255 NA
ATOM     33  C   UNL d   1      19.950 -19.327   0.436  0.00  0.00     0.126 A 
ATOM     34  C   UNL d   1      21.143 -18.975   1.070  0.00  0.00     0.074 A 
BRANCH  33  35
ATOM     35  C   UNL d   1      18.765 -19.734   1.264  0.00  0.00     0.268 C 
ATOM     36  N   UNL d   1      18.254 -20.990   1.073  0.00  0.00    -0.365 N 
ATOM     37  H   UNL d   1      18.661 -21.631   0.403  0.00  0.00     0.159 HD
ATOM     38  H   UNL d   1      17.457 -21.281   1.624  0.00  0.00     0.159 HD
ATOM     39  O   UNL d   1      18.256 -18.970   2.085  0.00  0.00    -0.266 OA
ENDBRANCH  33  35
ENDBRANCH  28  29
ENDBRANCH   5  28
TORSDOF 8
ENDMDL
MODEL 8
REMARK VINA RESULT:   -30.781      4.626      6.590
REMARK INTER + INTRA:         -35.328
REMARK INTER:                 -33.167
REMARK INTRA:                  -2.161
REMARK CONF_INDEPENDENT:        2.386
REMARK UNBOUND:                -2.161
REMARK  8 active torsions:
REMARK  status: ('A' for Active; 'I' for Inactive)
REMARK    1  A    between atoms: C_6  and  C_7 
REMARK    2  A    between atoms: C_7  and  O_8 
REMARK    3  A    between atoms: O_8  and  C_9 
REMARK    4  A    between atoms: C_11  and  N_12 
REMARK    5  A    between atoms: N_12  and  C_13 
REMARK    6  A    between atoms: C_17  and  O_18 
REMARK    7  A    between atoms: O_18  and  C_19 
REMARK    8  A    between atoms: C_23  and  C_24 
REMARK       I    between atoms: C_24  and  N_25 
ROOT
ATOM      1  C   UNL d   1      28.321 -16.356  -1.884  0.00  0.00     0.252 A 
ATOM      2  N   UNL d   1      27.988 -17.432  -1.190  0.00  0.00    -0.206 NA
ATOM      3  C   UNL d   1      26.637 -17.272  -0.920  0.00  0.00     0.097 A 
ATOM      4  C   UNL d   1      25.700 -18.061  -0.209  0.00  0.00     0.072 A 
ATOM      5  C   UNL d   1      24.347 -17.644  -0.146  0.00  0.00     0.078 A 
ATOM      6  C   UNL d   1      23.968 -16.453  -0.779  0.00  0.00     0.040 A 
ATOM      7  C   UNL d   1      24.881 -15.657  -1.488  0.00  0.00     0.042 A 
ATOM      8  C   UNL d   1      26.197 -16.102  -1.514  0.00  0.00     0.108 A 
ATOM      9  O   UNL d   1      27.269 -15.501  -2.114  0.00  0.00    -0.276 OA
ENDROOT
BRANCH   1  10
ATOM     10  N   UNL d   1      29.520 -16.055  -2.465  0.00  0.00    -0.320 N 
ATOM     11  H   UNL d   1      29.884 -15.148  -2.201  0.00  0.00     0.169 HD
BRANCH  10  12
ATOM     12  C   UNL d   1      29.909 -16.450  -3.777  0.00  0.00     0.038 C 
ATOM     13  C   UNL d   1      29.813 -15.570  -4.886  0.00  0.00     0.068 C 
ATOM     14  C   UNL d   1      30.264 -15.952  -6.181  0.00  0.00     0.092 C 
ATOM     15  C   UNL d   1      30.942 -17.168  -6.327  0.00  0.00     0.067 C 
ATOM     16  C   UNL d   1      30.998 -18.052  -5.259  0.00  0.00     0.029 C 
ATOM     17 CL   UNL d   1      31.854 -17.641  -7.719  0.00  0.00    -0.081 Cl
ATOM     18  C   UNL d   1      30.484 -17.702  -4.012  0.00  0.00     0.031 C 
BRANCH  14  19
ATOM     19  O   UNL d   1      30.052 -15.048  -7.198  0.00  0.00    -0.347 OA
BRANCH  19  20
ATOM     20  C   UNL d   1      30.977 -13.942  -7.259  0.00  0.00     0.209 C 
BRANCH  20  21
ATOM     21  C   UNL d   1      30.366 -12.731  -8.005  0.00  0.00     0.211 C 
ATOM     22  C   UNL d   1      30.290 -11.473  -7.138  0.00  0.00     0.037 C 
ATOM     23  C   UNL d   1      28.864 -11.428  -6.586  0.00  0.00     0.030 C 
ATOM     24  C   UNL d   1      28.178 -12.691  -7.076  0.00  0.00     0.235 C 
ATOM     25  N   UNL d   1      28.909 -13.018  -8.351  0.00  0.00    -0.069 N 
ATOM     26  C   UNL d   1      28.410 -12.247  -9.542  0.00  0.00     0.270 C 
ATOM     27  H   UNL d   1      28.792 -14.015  -8.570  0.00  0.00     0.280 HD
ENDBRANCH  20  21
ENDBRANCH  19  20
ENDBRANCH  14  19
ENDBRANCH  10  12
ENDBRANCH   1  10
BRANCH   5  28
ATOM     28  O   UNL d   1      23.472 -18.450   0.579  0.00  0.00    -0.311 OA
BRANCH  28  29
ATOM     29  C   UNL d   1      22.218 -18.745   0.067  0.00  0.00     0.079 A 
ATOM     30  C   UNL d   1      21.961 -18.774  -1.302  0.00  0.00     0.056 A 
ATOM     31  C   UNL d   1      20.665 -19.044  -1.726  0.00  0.00     0.120 A 
ATOM     32  N   UNL d   1      19.634 -19.325  -0.895  0.00  0.00    -0.255 NA
ATOM     33  C   UNL d   1      19.928 -19.353   0.435  0.00  0.00     0.126 A 
ATOM     34  C   UNL d   1      21.196 -19.084   0.952  0.00  0.00     0.074 A 
BRANCH  33  35
ATOM     35  C   UNL d   1      18.799 -19.670   1.374  0.00  0.00     0.268 C 
ATOM     36  N   UNL d   1      18.245 -18.635   2.077  0.00  0.00    -0.365 N 
ATOM     37  H   UNL d   1      18.575 -17.683   1.968  0.00  0.00     0.159 HD
ATOM     38  H   UNL d   1      17.482 -18.830   2.713  0.00  0.00     0.159 HD
ATOM     39  O   UNL d   1      18.382 -20.820   1.520  0.00  0.00    -0.266 OA
ENDBRANCH  33  35
ENDBRANCH  28  29
ENDBRANCH   5  28
TORSDOF 8
ENDMDL
MODEL 9
REMARK VINA RESULT:   -30.709      3.701      5.330
REMARK INTER + INTRA:         -35.322
REMARK INTER:                 -33.095
REMARK INTRA:                  -2.227
REMARK CONF_INDEPENDENT:        2.386
REMARK UNBOUND:                -2.227
REMARK  8 active torsions:
REMARK  status: ('A' for Active; 'I' for Inactive)
REMARK    1  A    between atoms: C_6  and  C_7 
REMARK    2  A    between atoms: C_7  and  O_8 
REMARK    3  A    between atoms: O_8  and  C_9 
REMARK    4  A    between atoms: C_11  and  N_12 
REMARK    5  A    between atoms: N_12  and  C_13 
REMARK    6  A    between atoms: C_17  and  O_18 
REMARK    7  A    between atoms: O_18  and  C_19 
REMARK    8  A    between atoms: C_23  and  C_24 
REMARK       I    between atoms: C_24  and  N_25 
ROOT
ATOM      1  C   UNL d   1      28.578 -16.964  -0.836  0.00  0.00     0.252 A 
ATOM      2  N   UNL d   1      28.054 -17.871  -0.028  0.00  0.00    -0.206 NA
ATOM      3  C   UNL d   1      26.689 -17.631  -0.069  0.00  0.00     0.097 A 
ATOM      4  C   UNL d   1      25.587 -18.240   0.580  0.00  0.00     0.072 A 
ATOM      5  C   UNL d   1      24.274 -17.790   0.290  0.00  0.00     0.078 A 
ATOM      6  C   UNL d   1      24.097 -16.742  -0.623  0.00  0.00     0.040 A 
ATOM      7  C   UNL d   1      25.175 -16.126  -1.276  0.00  0.00     0.042 A 
ATOM      8  C   UNL d   1      26.442 -16.595  -0.953  0.00  0.00     0.108 A 
ATOM      9  O   UNL d   1      27.643 -16.150  -1.432  0.00  0.00    -0.276 OA
ENDROOT
BRANCH   1  10
ATOM     10  N   UNL d   1      29.882 -16.812  -1.213  0.00  0.00    -0.320 N 
ATOM     11  H   UNL d   1      30.210 -15.856  -1.167  0.00  0.00     0.169 HD
BRANCH  10  12
ATOM     12  C   UNL d   1      30.527 -17.573  -2.229  0.00  0.00     0.038 C 
ATOM     13  C   UNL d   1      31.058 -18.866  -1.977  0.00  0.00     0.068 C 
ATOM     14  C   UNL d   1      31.644 -19.645  -3.015  0.00  0.00     0.092 C 
ATOM     15  C   UNL d   1      31.567 -19.180  -4.333  0.00  0.00     0.067 C 
ATOM     16  C   UNL d   1      31.092 -17.900  -4.580  0.00  0.00     0.029 C 
ATOM     17 CL   UNL d   1      31.901 -20.123  -5.744  0.00  0.00    -0.081 Cl
ATOM     18  C   UNL d   1      30.591 -17.111  -3.546  0.00  0.00     0.031 C 
BRANCH  14  19
ATOM     19  O   UNL d   1      32.195 -20.850  -2.642  0.00  0.00    -0.347 OA
BRANCH  19  20
ATOM     20  C   UNL d   1      31.257 -21.918  -2.385  0.00  0.00     0.209 C 
BRANCH  20  21
ATOM     21  C   UNL d   1      31.591 -22.662  -1.069  0.00  0.00     0.211 C 
ATOM     22  C   UNL d   1      30.391 -23.414  -0.490  0.00  0.00     0.037 C 
ATOM     23  C   UNL d   1      29.791 -22.493   0.575  0.00  0.00     0.030 C 
ATOM     24  C   UNL d   1      30.599 -21.209   0.530  0.00  0.00     0.235 C 
ATOM     25  N   UNL d   1      31.944 -21.655   0.020  0.00  0.00    -0.069 N 
ATOM     26  C   UNL d   1      32.836 -22.217   1.093  0.00  0.00     0.270 C 
ATOM     27  H   UNL d   1      32.439 -20.854  -0.392  0.00  0.00     0.280 HD
ENDBRANCH  20  21
ENDBRANCH  19  20
ENDBRANCH  14  19
ENDBRANCH  10  12
ENDBRANCH   1  10
BRANCH   5  28
ATOM     28  O   UNL d   1      23.229 -18.414   0.967  0.00  0.00    -0.311 OA
BRANCH  28  29
ATOM     29  C   UNL d   1      22.052 -18.714   0.299  0.00  0.00     0.079 A 
ATOM     30  C   UNL d   1      21.891 -18.483  -1.065  0.00  0.00     0.056 A 
ATOM     31  C   UNL d   1      20.664 -18.780  -1.646  0.00  0.00     0.120 A 
ATOM     32  N   UNL d   1      19.619 -19.324  -0.982  0.00  0.00    -0.255 NA
ATOM     33  C   UNL d   1      19.824 -19.600   0.337  0.00  0.00     0.126 A 
ATOM     34  C   UNL d   1      21.018 -19.325   1.007  0.00  0.00     0.074 A 
BRANCH  33  35
ATOM     35  C   UNL d   1      18.678 -20.210   1.091  0.00  0.00     0.268 C 
ATOM     36  N   UNL d   1      17.770 -20.949   0.381  0.00  0.00    -0.365 N 
ATOM     37  H   UNL d   1      17.866 -21.091  -0.617  0.00  0.00     0.159 HD
ATOM     38  H   UNL d   1      16.991 -21.369   0.874  0.00  0.00     0.159 HD
ATOM     39  O   UNL d   1      18.543 -20.051   2.305  0.00  0.00    -0.266 OA
ENDBRANCH  33  35
ENDBRANCH  28  29
ENDBRANCH   5  28
TORSDOF 8
ENDMDL
