MODEL 1
REMARK VINA RESULT:   -10.058      0.000      0.000
REMARK INTER + INTRA:         -12.412
REMARK INTER:                 -11.549
REMARK INTRA:                  -0.863
REMARK CONF_INDEPENDENT:        1.492
REMARK UNBOUND:                -0.863
REMARK  5 active torsions:
REMARK  status: ('A' for Active; 'I' for Inactive)
REMARK       I    between atoms: C_2  and  N_3 
REMARK    1  A    between atoms: C_2  and  C_15 
REMARK    2  A    between atoms: N_3  and  C_4 
REMARK    3  A    between atoms: C_4  and  C_5 
REMARK    4  A    between atoms: C_5  and  C_6 
REMARK    5  A    between atoms: C_20  and  N_19 
ROOT
ATOM      1  C   UNL d   1      25.753 -15.566  -1.196  0.00  0.00     0.106 C 
ATOM      2  C   UNL d   1      26.585 -15.666  -2.476  0.00  0.00     0.017 C 
ATOM      3  C   UNL d   1      28.031 -16.033  -2.180  0.00  0.00     0.031 C 
ATOM      4  C   UNL d   1      28.645 -15.148  -1.071  0.00  0.00     0.275 C 
ATOM      5  N   UNL d   1      27.833 -14.873   0.132  0.00  0.00     0.117 N 
ATOM      6  C   UNL d   1      26.421 -14.611  -0.185  0.00  0.00     0.289 C 
ENDROOT
BRANCH   1   7
ATOM      7  C   UNL d   1      25.338 -16.937  -0.631  0.00  0.00     0.223 C 
ATOM      8  O   UNL d   1      26.036 -17.550   0.172  0.00  0.00    -0.273 OA
ATOM      9  N   UNL d   1      24.131 -17.434  -1.062  0.00  0.00    -0.360 N 
ATOM     10  H   UNL d   1      23.795 -17.090  -1.949  0.00  0.00     0.162 HD
BRANCH   9  11
ATOM     11  C   UNL d   1      23.588 -18.682  -0.591  0.00  0.00     0.127 C 
BRANCH  11  12
ATOM     12  C   UNL d   1      22.498 -18.443   0.458  0.00  0.00     0.056 C 
BRANCH  12  13
ATOM     13  C   UNL d   1      21.200 -19.008   0.001  0.00  0.00    -0.048 A 
ATOM     14  C   UNL d   1      20.291 -19.612   0.770  0.00  0.00    -0.006 A 
ATOM     15  C   UNL d   1      20.226 -19.906   2.159  0.00  0.00     0.014 A 
ATOM     16  C   UNL d   1      19.232 -20.034  -0.168  0.00  0.00     0.038 A 
ATOM     17  C   UNL d   1      19.155 -20.569   2.619  0.00  0.00     0.001 A 
ATOM     18  C   UNL d   1      18.082 -20.991   1.729  0.00  0.00     0.002 A 
ATOM     19  C   UNL d   1      18.077 -20.761   0.402  0.00  0.00     0.030 A 
ATOM     20  N   UNL d   1      19.488 -19.700  -1.363  0.00  0.00    -0.385 N 
ATOM     21  C   UNL d   1      20.784 -18.990  -1.439  0.00  0.00     0.155 A 
ATOM     22  H   UNL d   1      18.874 -19.904  -2.157  0.00  0.00     0.160 HD
ENDBRANCH  12  13
ENDBRANCH  11  12
ENDBRANCH   9  11
ENDBRANCH   1   7
BRANCH   5  23
ATOM     23  C   UNL d   1      28.399 -13.746   0.988  0.00  0.00     0.370 C 
ATOM     24  N   UNL d   1      29.687 -13.843   1.792  0.00  0.00    -0.252 NA
ATOM     25  C   UNL d   1      29.320 -14.077   3.159  0.00  0.00     0.046 C 
ATOM     26  H   UNL d   1      30.216 -12.966   1.759  0.00  0.00     0.130 HD
ATOM     27  C   UNL d   1      30.149 -14.454   4.217  0.00  0.00     0.028 C 
ATOM     28  C   UNL d   1      27.968 -13.927   3.453  0.00  0.00     0.117 C 
ATOM     29  C   UNL d   1      29.544 -14.827   5.433  0.00  0.00     0.021 C 
ATOM     30  C   UNL d   1      28.155 -14.881   5.496  0.00  0.00     0.118 C 
ATOM     31  N   UNL d   1      27.344 -14.382   4.547  0.00  0.00    -0.252 NA
ATOM     32  S   UNL d   1      27.096 -13.162   2.131  0.00  0.00    -0.057 SA
ENDBRANCH   5  23
TORSDOF 5
ENDMDL
MODEL 2
REMARK VINA RESULT:    -9.818      3.211      9.676
REMARK INTER + INTRA:         -12.176
REMARK INTER:                 -11.309
REMARK INTRA:                  -0.866
REMARK CONF_INDEPENDENT:        1.492
REMARK UNBOUND:                -0.866
REMARK  5 active torsions:
REMARK  status: ('A' for Active; 'I' for Inactive)
REMARK       I    between atoms: C_2  and  N_3 
REMARK    1  A    between atoms: C_2  and  C_15 
REMARK    2  A    between atoms: N_3  and  C_4 
REMARK    3  A    between atoms: C_4  and  C_5 
REMARK    4  A    between atoms: C_5  and  C_6 
REMARK    5  A    between atoms: C_20  and  N_19 
ROOT
ATOM      1  C   UNL d   1      28.829 -13.789   1.956  0.00  0.00     0.106 C 
ATOM      2  C   UNL d   1      28.350 -12.616   1.099  0.00  0.00     0.017 C 
ATOM      3  C   UNL d   1      26.902 -12.790   0.667  0.00  0.00     0.031 C 
ATOM      4  C   UNL d   1      26.635 -14.189   0.065  0.00  0.00     0.275 C 
ATOM      5  N   UNL d   1      27.205 -15.365   0.753  0.00  0.00     0.117 N 
ATOM      6  C   UNL d   1      28.573 -15.129   1.237  0.00  0.00     0.289 C 
ENDROOT
BRANCH   1   7
ATOM      7  C   UNL d   1      28.338 -13.719   3.413  0.00  0.00     0.223 C 
ATOM      8  O   UNL d   1      27.599 -12.822   3.810  0.00  0.00    -0.273 OA
ATOM      9  N   UNL d   1      28.759 -14.726   4.248  0.00  0.00    -0.360 N 
ATOM     10  H   UNL d   1      29.610 -15.200   3.987  0.00  0.00     0.162 HD
BRANCH   9  11
ATOM     11  C   UNL d   1      28.348 -14.822   5.626  0.00  0.00     0.127 C 
BRANCH  11  12
ATOM     12  C   UNL d   1      29.496 -14.450   6.567  0.00  0.00     0.056 C 
BRANCH  12  13
ATOM     13  C   UNL d   1      29.024 -13.515   7.624  0.00  0.00    -0.048 A 
ATOM     14  C   UNL d   1      28.912 -13.791   8.925  0.00  0.00    -0.006 A 
ATOM     15  C   UNL d   1      29.177 -14.950   9.704  0.00  0.00     0.014 A 
ATOM     16  C   UNL d   1      28.349 -12.563   9.519  0.00  0.00     0.038 A 
ATOM     17  C   UNL d   1      28.922 -14.904  11.020  0.00  0.00     0.001 A 
ATOM     18  C   UNL d   1      28.380 -13.706  11.647  0.00  0.00     0.002 A 
ATOM     19  C   UNL d   1      28.092 -12.575  10.976  0.00  0.00     0.030 A 
ATOM     20  N   UNL d   1      28.163 -11.654   8.656  0.00  0.00    -0.385 N 
ATOM     21  C   UNL d   1      28.568 -12.122   7.312  0.00  0.00     0.155 A 
ATOM     22  H   UNL d   1      27.780 -10.729   8.874  0.00  0.00     0.160 HD
ENDBRANCH  12  13
ENDBRANCH  11  12
ENDBRANCH   9  11
ENDBRANCH   1   7
BRANCH   5  23
ATOM     23  C   UNL d   1      27.156 -16.632  -0.093  0.00  0.00     0.370 C 
ATOM     24  N   UNL d   1      26.358 -16.773  -1.380  0.00  0.00    -0.252 NA
ATOM     25  C   UNL d   1      25.157 -17.491  -1.062  0.00  0.00     0.046 C 
ATOM     26  H   UNL d   1      26.869 -17.320  -2.080  0.00  0.00     0.130 HD
ATOM     27  C   UNL d   1      24.024 -17.663  -1.860  0.00  0.00     0.028 C 
ATOM     28  C   UNL d   1      25.116 -18.063   0.206  0.00  0.00     0.117 C 
ATOM     29  C   UNL d   1      22.879 -18.231  -1.270  0.00  0.00     0.021 C 
ATOM     30  C   UNL d   1      22.903 -18.516   0.091  0.00  0.00     0.118 C 
ATOM     31  N   UNL d   1      24.020 -18.500   0.839  0.00  0.00    -0.252 NA
ATOM     32  S   UNL d   1      26.696 -18.040   0.980  0.00  0.00    -0.057 SA
ENDBRANCH   5  23
TORSDOF 5
ENDMDL
MODEL 3
REMARK VINA RESULT:    -9.595      3.107      5.425
REMARK INTER + INTRA:         -11.854
REMARK INTER:                 -11.086
REMARK INTRA:                  -0.768
REMARK CONF_INDEPENDENT:        1.492
REMARK UNBOUND:                -0.768
REMARK  5 active torsions:
REMARK  status: ('A' for Active; 'I' for Inactive)
REMARK       I    between atoms: C_2  and  N_3 
REMARK    1  A    between atoms: C_2  and  C_15 
REMARK    2  A    between atoms: N_3  and  C_4 
REMARK    3  A    between atoms: C_4  and  C_5 
REMARK    4  A    between atoms: C_5  and  C_6 
REMARK    5  A    between atoms: C_20  and  N_19 
ROOT
ATOM      1  C   UNL d   1      27.252 -16.836   0.396  0.00  0.00     0.106 C 
ATOM      2  C   UNL d   1      26.606 -15.470   0.154  0.00  0.00     0.017 C 
ATOM      3  C   UNL d   1      26.484 -15.160  -1.329  0.00  0.00     0.031 C 
ATOM      4  C   UNL d   1      27.810 -15.397  -2.088  0.00  0.00     0.275 C 
ATOM      5  N   UNL d   1      28.575 -16.625  -1.789  0.00  0.00     0.117 N 
ATOM      6  C   UNL d   1      28.595 -16.943  -0.353  0.00  0.00     0.289 C 
ENDROOT
BRANCH   1   7
ATOM      7  C   UNL d   1      26.283 -18.013   0.183  0.00  0.00     0.223 C 
ATOM      8  O   UNL d   1      26.644 -19.182   0.290  0.00  0.00    -0.273 OA
ATOM      9  N   UNL d   1      24.983 -17.686  -0.120  0.00  0.00    -0.360 N 
ATOM     10  H   UNL d   1      24.834 -16.781  -0.539  0.00  0.00     0.162 HD
BRANCH   9  11
ATOM     11  C   UNL d   1      23.952 -18.676  -0.305  0.00  0.00     0.127 C 
BRANCH  11  12
ATOM     12  C   UNL d   1      22.742 -18.378   0.583  0.00  0.00     0.056 C 
BRANCH  12  13
ATOM     13  C   UNL d   1      21.503 -18.944  -0.015  0.00  0.00    -0.048 A 
ATOM     14  C   UNL d   1      20.507 -19.535   0.651  0.00  0.00    -0.006 A 
ATOM     15  C   UNL d   1      20.280 -19.808   2.027  0.00  0.00     0.014 A 
ATOM     16  C   UNL d   1      19.563 -19.967  -0.398  0.00  0.00     0.038 A 
ATOM     17  C   UNL d   1      19.159 -20.461   2.369  0.00  0.00     0.001 A 
ATOM     18  C   UNL d   1      18.195 -20.893   1.366  0.00  0.00     0.002 A 
ATOM     19  C   UNL d   1      18.346 -20.682   0.044  0.00  0.00     0.030 A 
ATOM     20  N   UNL d   1      19.958 -19.651  -1.559  0.00  0.00    -0.385 N 
ATOM     21  C   UNL d   1      21.258 -18.946  -1.493  0.00  0.00     0.155 A 
ATOM     22  H   UNL d   1      19.440 -19.865  -2.417  0.00  0.00     0.160 HD
ENDBRANCH  12  13
ENDBRANCH  11  12
ENDBRANCH   9  11
ENDBRANCH   1   7
BRANCH   5  23
ATOM     23  C   UNL d   1      29.995 -16.591  -2.342  0.00  0.00     0.370 C 
ATOM     24  N   UNL d   1      30.354 -16.169  -3.759  0.00  0.00    -0.252 NA
ATOM     25  C   UNL d   1      30.579 -17.366  -4.517  0.00  0.00     0.046 C 
ATOM     26  H   UNL d   1      31.220 -15.622  -3.778  0.00  0.00     0.130 HD
ATOM     27  C   UNL d   1      30.711 -17.492  -5.901  0.00  0.00     0.028 C 
ATOM     28  C   UNL d   1      30.652 -18.542  -3.777  0.00  0.00     0.117 C 
ATOM     29  C   UNL d   1      30.723 -18.789  -6.450  0.00  0.00     0.021 C 
ATOM     30  C   UNL d   1      30.521 -19.873  -5.602  0.00  0.00     0.118 C 
ATOM     31  N   UNL d   1      30.543 -19.786  -4.260  0.00  0.00    -0.252 NA
ATOM     32  S   UNL d   1      30.779 -18.218  -2.053  0.00  0.00    -0.057 SA
ENDBRANCH   5  23
TORSDOF 5
ENDMDL
MODEL 4
REMARK VINA RESULT:    -9.032      5.060      9.947
REMARK INTER + INTRA:         -11.431
REMARK INTER:                 -10.524
REMARK INTRA:                  -0.907
REMARK CONF_INDEPENDENT:        1.492
REMARK UNBOUND:                -0.907
REMARK  5 active torsions:
REMARK  status: ('A' for Active; 'I' for Inactive)
REMARK       I    between atoms: C_2  and  N_3 
REMARK    1  A    between atoms: C_2  and  C_15 
REMARK    2  A    between atoms: N_3  and  C_4 
REMARK    3  A    between atoms: C_4  and  C_5 
REMARK    4  A    between atoms: C_5  and  C_6 
REMARK    5  A    between atoms: C_20  and  N_19 
ROOT
ATOM      1  C   UNL d   1      28.789 -13.994   2.178  0.00  0.00     0.106 C 
ATOM      2  C   UNL d   1      28.500 -12.613   1.586  0.00  0.00     0.017 C 
ATOM      3  C   UNL d   1      27.058 -12.490   1.122  0.00  0.00     0.031 C 
ATOM      4  C   UNL d   1      26.624 -13.681   0.237  0.00  0.00     0.275 C 
ATOM      5  N   UNL d   1      27.006 -15.043   0.664  0.00  0.00     0.117 N 
ATOM      6  C   UNL d   1      28.378 -15.106   1.191  0.00  0.00     0.289 C 
ENDROOT
BRANCH   1   7
ATOM      7  C   UNL d   1      28.263 -14.162   3.615  0.00  0.00     0.223 C 
ATOM      8  O   UNL d   1      27.069 -14.074   3.887  0.00  0.00    -0.273 OA
ATOM      9  N   UNL d   1      29.203 -14.433   4.580  0.00  0.00    -0.360 N 
ATOM     10  H   UNL d   1      30.149 -14.142   4.381  0.00  0.00     0.162 HD
BRANCH   9  11
ATOM     11  C   UNL d   1      28.861 -14.659   5.961  0.00  0.00     0.127 C 
BRANCH  11  12
ATOM     12  C   UNL d   1      29.927 -14.075   6.893  0.00  0.00     0.056 C 
BRANCH  12  13
ATOM     13  C   UNL d   1      29.298 -13.236   7.947  0.00  0.00    -0.048 A 
ATOM     14  C   UNL d   1      29.044 -13.611   9.204  0.00  0.00    -0.006 A 
ATOM     15  C   UNL d   1      29.261 -14.816   9.926  0.00  0.00     0.014 A 
ATOM     16  C   UNL d   1      28.368 -12.448   9.809  0.00  0.00     0.038 A 
ATOM     17  C   UNL d   1      28.851 -14.874  11.202  0.00  0.00     0.001 A 
ATOM     18  C   UNL d   1      28.193 -13.744  11.841  0.00  0.00     0.002 A 
ATOM     19  C   UNL d   1      27.941 -12.575  11.220  0.00  0.00     0.030 A 
ATOM     20  N   UNL d   1      28.249 -11.484   8.995  0.00  0.00    -0.385 N 
ATOM     21  C   UNL d   1      28.827 -11.839   7.680  0.00  0.00     0.155 A 
ATOM     22  H   UNL d   1      27.806 -10.590   9.230  0.00  0.00     0.160 HD
ENDBRANCH  12  13
ENDBRANCH  11  12
ENDBRANCH   9  11
ENDBRANCH   1   7
BRANCH   5  23
ATOM     23  C   UNL d   1      26.814 -16.086  -0.431  0.00  0.00     0.370 C 
ATOM     24  N   UNL d   1      27.639 -16.151  -1.708  0.00  0.00    -0.252 NA
ATOM     25  C   UNL d   1      26.848 -15.575  -2.757  0.00  0.00     0.046 C 
ATOM     26  H   UNL d   1      27.845 -17.119  -1.972  0.00  0.00     0.130 HD
ATOM     27  C   UNL d   1      27.259 -15.212  -4.041  0.00  0.00     0.028 C 
ATOM     28  C   UNL d   1      25.515 -15.331  -2.440  0.00  0.00     0.117 C 
ATOM     29  C   UNL d   1      26.364 -14.475  -4.840  0.00  0.00     0.021 C 
ATOM     30  C   UNL d   1      25.153 -14.074  -4.286  0.00  0.00     0.118 C 
ATOM     31  N   UNL d   1      24.677 -14.535  -3.116  0.00  0.00    -0.252 NA
ATOM     32  S   UNL d   1      25.055 -16.102  -0.928  0.00  0.00    -0.057 SA
ENDBRANCH   5  23
TORSDOF 5
ENDMDL
MODEL 5
REMARK VINA RESULT:    -8.834      3.008      9.866
REMARK INTER + INTRA:         -11.492
REMARK INTER:                 -10.325
REMARK INTRA:                  -1.167
REMARK CONF_INDEPENDENT:        1.492
REMARK UNBOUND:                -1.167
REMARK  5 active torsions:
REMARK  status: ('A' for Active; 'I' for Inactive)
REMARK       I    between atoms: C_2  and  N_3 
REMARK    1  A    between atoms: C_2  and  C_15 
REMARK    2  A    between atoms: N_3  and  C_4 
REMARK    3  A    between atoms: C_4  and  C_5 
REMARK    4  A    between atoms: C_5  and  C_6 
REMARK    5  A    between atoms: C_20  and  N_19 
ROOT
ATOM      1  C   UNL d   1      28.776 -13.839   1.848  0.00  0.00     0.106 C 
ATOM      2  C   UNL d   1      28.418 -12.682   0.912  0.00  0.00     0.017 C 
ATOM      3  C   UNL d   1      26.994 -12.799   0.393  0.00  0.00     0.031 C 
ATOM      4  C   UNL d   1      26.688 -14.207  -0.167  0.00  0.00     0.275 C 
ATOM      5  N   UNL d   1      27.146 -15.380   0.607  0.00  0.00     0.117 N 
ATOM      6  C   UNL d   1      28.492 -15.195   1.170  0.00  0.00     0.289 C 
ENDROOT
BRANCH   1   7
ATOM      7  C   UNL d   1      28.197 -13.677   3.265  0.00  0.00     0.223 C 
ATOM      8  O   UNL d   1      27.493 -12.719   3.576  0.00  0.00    -0.273 OA
ATOM      9  N   UNL d   1      28.497 -14.672   4.164  0.00  0.00    -0.360 N 
ATOM     10  H   UNL d   1      29.331 -15.208   3.979  0.00  0.00     0.162 HD
BRANCH   9  11
ATOM     11  C   UNL d   1      27.992 -14.683   5.514  0.00  0.00     0.127 C 
BRANCH  11  12
ATOM     12  C   UNL d   1      29.121 -14.456   6.522  0.00  0.00     0.056 C 
BRANCH  12  13
ATOM     13  C   UNL d   1      28.984 -13.123   7.170  0.00  0.00    -0.048 A 
ATOM     14  C   UNL d   1      29.256 -11.944   6.606  0.00  0.00    -0.006 A 
ATOM     15  C   UNL d   1      29.720 -11.561   5.318  0.00  0.00     0.014 A 
ATOM     16  C   UNL d   1      29.017 -10.956   7.676  0.00  0.00     0.038 A 
ATOM     17  C   UNL d   1      29.922 -10.256   5.078  0.00  0.00     0.001 A 
ATOM     18  C   UNL d   1      29.685  -9.249   6.102  0.00  0.00     0.002 A 
ATOM     19  C   UNL d   1      29.257  -9.534   7.347  0.00  0.00     0.030 A 
ATOM     20  N   UNL d   1      28.631 -11.500   8.754  0.00  0.00    -0.385 N 
ATOM     21  C   UNL d   1      28.549 -12.969   8.595  0.00  0.00     0.155 A 
ATOM     22  H   UNL d   1      28.414 -10.980   9.610  0.00  0.00     0.160 HD
ENDBRANCH  12  13
ENDBRANCH  11  12
ENDBRANCH   9  11
ENDBRANCH   1   7
BRANCH   5  23
ATOM     23  C   UNL d   1      27.080 -16.680  -0.187  0.00  0.00     0.370 C 
ATOM     24  N   UNL d   1      26.247 -16.875  -1.444  0.00  0.00    -0.252 NA
ATOM     25  C   UNL d   1      25.060 -17.585  -1.064  0.00  0.00     0.046 C 
ATOM     26  H   UNL d   1      26.742 -17.447  -2.136  0.00  0.00     0.130 HD
ATOM     27  C   UNL d   1      23.906 -17.794  -1.822  0.00  0.00     0.028 C 
ATOM     28  C   UNL d   1      25.058 -18.107   0.226  0.00  0.00     0.117 C 
ATOM     29  C   UNL d   1      22.781 -18.344  -1.177  0.00  0.00     0.021 C 
ATOM     30  C   UNL d   1      22.845 -18.574   0.193  0.00  0.00     0.118 C 
ATOM     31  N   UNL d   1      23.983 -18.523   0.907  0.00  0.00    -0.252 NA
ATOM     32  S   UNL d   1      26.658 -18.046   0.954  0.00  0.00    -0.057 SA
ENDBRANCH   5  23
TORSDOF 5
ENDMDL
MODEL 6
REMARK VINA RESULT:    -8.031      3.592      5.116
REMARK INTER + INTRA:         -11.988
REMARK INTER:                  -9.522
REMARK INTRA:                  -2.466
REMARK CONF_INDEPENDENT:        1.492
REMARK UNBOUND:                -2.466
REMARK  5 active torsions:
REMARK  status: ('A' for Active; 'I' for Inactive)
REMARK       I    between atoms: C_2  and  N_3 
REMARK    1  A    between atoms: C_2  and  C_15 
REMARK    2  A    between atoms: N_3  and  C_4 
REMARK    3  A    between atoms: C_4  and  C_5 
REMARK    4  A    between atoms: C_5  and  C_6 
REMARK    5  A    between atoms: C_20  and  N_19 
ROOT
ATOM      1  C   UNL d   1      29.179 -14.767  -4.563  0.00  0.00     0.106 C 
ATOM      2  C   UNL d   1      30.068 -15.759  -5.317  0.00  0.00     0.017 C 
ATOM      3  C   UNL d   1      30.030 -17.141  -4.685  0.00  0.00     0.031 C 
ATOM      4  C   UNL d   1      30.257 -17.094  -3.157  0.00  0.00     0.275 C 
ATOM      5  N   UNL d   1      29.552 -16.055  -2.378  0.00  0.00     0.117 N 
ATOM      6  C   UNL d   1      29.531 -14.753  -3.062  0.00  0.00     0.289 C 
ENDROOT
BRANCH   1   7
ATOM      7  C   UNL d   1      27.682 -14.924  -4.887  0.00  0.00     0.223 C 
ATOM      8  O   UNL d   1      27.288 -15.575  -5.852  0.00  0.00    -0.273 OA
ATOM      9  N   UNL d   1      26.804 -14.308  -4.028  0.00  0.00    -0.360 N 
ATOM     10  H   UNL d   1      27.164 -13.526  -3.502  0.00  0.00     0.162 HD
BRANCH   9  11
ATOM     11  C   UNL d   1      25.374 -14.401  -4.174  0.00  0.00     0.127 C 
BRANCH  11  12
ATOM     12  C   UNL d   1      24.683 -14.410  -2.808  0.00  0.00     0.056 C 
BRANCH  12  13
ATOM     13  C   UNL d   1      25.221 -15.506  -1.958  0.00  0.00    -0.048 A 
ATOM     14  C   UNL d   1      24.502 -16.444  -1.336  0.00  0.00    -0.006 A 
ATOM     15  C   UNL d   1      23.109 -16.720  -1.266  0.00  0.00     0.014 A 
ATOM     16  C   UNL d   1      25.495 -17.238  -0.588  0.00  0.00     0.038 A 
ATOM     17  C   UNL d   1      22.703 -17.751  -0.508  0.00  0.00     0.001 A 
ATOM     18  C   UNL d   1      23.652 -18.568   0.234  0.00  0.00     0.002 A 
ATOM     19  C   UNL d   1      24.983 -18.361   0.229  0.00  0.00     0.030 A 
ATOM     20  N   UNL d   1      26.677 -16.817  -0.763  0.00  0.00    -0.385 N 
ATOM     21  C   UNL d   1      26.684 -15.647  -1.668  0.00  0.00     0.155 A 
ATOM     22  H   UNL d   1      27.503 -17.238  -0.327  0.00  0.00     0.160 HD
ENDBRANCH  12  13
ENDBRANCH  11  12
ENDBRANCH   9  11
ENDBRANCH   1   7
BRANCH   5  23
ATOM     23  C   UNL d   1      30.096 -15.899  -0.963  0.00  0.00     0.370 C 
ATOM     24  N   UNL d   1      29.337 -16.293   0.296  0.00  0.00    -0.252 NA
ATOM     25  C   UNL d   1      28.799 -15.091   0.864  0.00  0.00     0.046 C 
ATOM     26  H   UNL d   1      29.960 -16.713   0.992  0.00  0.00     0.130 HD
ATOM     27  C   UNL d   1      27.854 -14.973   1.884  0.00  0.00     0.028 C 
ATOM     28  C   UNL d   1      29.266 -13.902   0.309  0.00  0.00     0.117 C 
ATOM     29  C   UNL d   1      27.317 -13.697   2.146  0.00  0.00     0.021 C 
ATOM     30  C   UNL d   1      27.690 -12.637   1.326  0.00  0.00     0.118 C 
ATOM     31  N   UNL d   1      28.702 -12.695   0.443  0.00  0.00    -0.252 NA
ATOM     32  S   UNL d   1      30.656 -14.174  -0.734  0.00  0.00    -0.057 SA
ENDBRANCH   5  23
TORSDOF 5
ENDMDL
MODEL 7
REMARK VINA RESULT:    -7.590      7.044     11.444
REMARK INTER + INTRA:         -11.463
REMARK INTER:                  -9.081
REMARK INTRA:                  -2.382
REMARK CONF_INDEPENDENT:        1.492
REMARK UNBOUND:                -2.382
REMARK  5 active torsions:
REMARK  status: ('A' for Active; 'I' for Inactive)
REMARK       I    between atoms: C_2  and  N_3 
REMARK    1  A    between atoms: C_2  and  C_15 
REMARK    2  A    between atoms: N_3  and  C_4 
REMARK    3  A    between atoms: C_4  and  C_5 
REMARK    4  A    between atoms: C_5  and  C_6 
REMARK    5  A    between atoms: C_20  and  N_19 
ROOT
ATOM      1  C   UNL d   1      30.956 -11.280   6.934  0.00  0.00     0.106 C 
ATOM      2  C   UNL d   1      29.609 -10.727   7.404  0.00  0.00     0.017 C 
ATOM      3  C   UNL d   1      28.771 -11.796   8.088  0.00  0.00     0.031 C 
ATOM      4  C   UNL d   1      28.686 -13.096   7.255  0.00  0.00     0.275 C 
ATOM      5  N   UNL d   1      29.925 -13.607   6.632  0.00  0.00     0.117 N 
ATOM      6  C   UNL d   1      30.754 -12.535   6.061  0.00  0.00     0.289 C 
ENDROOT
BRANCH   1   7
ATOM      7  C   UNL d   1      31.985 -11.426   8.070  0.00  0.00     0.223 C 
ATOM      8  O   UNL d   1      32.148 -10.552   8.918  0.00  0.00    -0.273 OA
ATOM      9  N   UNL d   1      32.704 -12.596   8.095  0.00  0.00    -0.360 N 
ATOM     10  H   UNL d   1      32.793 -13.088   7.218  0.00  0.00     0.162 HD
BRANCH   9  11
ATOM     11  C   UNL d   1      33.670 -12.897   9.120  0.00  0.00     0.127 C 
BRANCH  11  12
ATOM     12  C   UNL d   1      32.980 -13.201  10.452  0.00  0.00     0.056 C 
BRANCH  12  13
ATOM     13  C   UNL d   1      31.684 -13.894  10.222  0.00  0.00    -0.048 A 
ATOM     14  C   UNL d   1      30.483 -13.471  10.627  0.00  0.00    -0.006 A 
ATOM     15  C   UNL d   1      30.042 -12.326  11.344  0.00  0.00     0.014 A 
ATOM     16  C   UNL d   1      29.552 -14.536  10.206  0.00  0.00     0.038 A 
ATOM     17  C   UNL d   1      28.734 -12.214  11.621  0.00  0.00     0.001 A 
ATOM     18  C   UNL d   1      27.781 -13.235  11.210  0.00  0.00     0.002 A 
ATOM     19  C   UNL d   1      28.123 -14.353  10.540  0.00  0.00     0.030 A 
ATOM     20  N   UNL d   1      30.144 -15.481   9.604  0.00  0.00    -0.385 N 
ATOM     21  C   UNL d   1      31.597 -15.215   9.519  0.00  0.00     0.155 A 
ATOM     22  H   UNL d   1      29.668 -16.310   9.236  0.00  0.00     0.160 HD
ENDBRANCH  12  13
ENDBRANCH  11  12
ENDBRANCH   9  11
ENDBRANCH   1   7
BRANCH   5  23
ATOM     23  C   UNL d   1      29.665 -14.686   5.587  0.00  0.00     0.370 C 
ATOM     24  N   UNL d   1      30.217 -14.658   4.170  0.00  0.00    -0.252 NA
ATOM     25  C   UNL d   1      29.158 -14.216   3.308  0.00  0.00     0.046 C 
ATOM     26  H   UNL d   1      30.499 -15.593   3.859  0.00  0.00     0.130 HD
ATOM     27  C   UNL d   1      29.248 -13.823   1.972  0.00  0.00     0.028 C 
ATOM     28  C   UNL d   1      27.895 -14.155   3.890  0.00  0.00     0.117 C 
ATOM     29  C   UNL d   1      28.116 -13.231   1.377  0.00  0.00     0.021 C 
ATOM     30  C   UNL d   1      26.997 -12.994   2.168  0.00  0.00     0.118 C 
ATOM     31  N   UNL d   1      26.835 -13.495   3.405  0.00  0.00    -0.252 NA
ATOM     32  S   UNL d   1      27.861 -14.956   5.455  0.00  0.00    -0.057 SA
ENDBRANCH   5  23
TORSDOF 5
ENDMDL
MODEL 8
REMARK VINA RESULT:    -7.319      4.200      7.842
REMARK INTER + INTRA:         -11.754
REMARK INTER:                  -8.811
REMARK INTRA:                  -2.943
REMARK CONF_INDEPENDENT:        1.492
REMARK UNBOUND:                -2.943
REMARK  5 active torsions:
REMARK  status: ('A' for Active; 'I' for Inactive)
REMARK       I    between atoms: C_2  and  N_3 
REMARK    1  A    between atoms: C_2  and  C_15 
REMARK    2  A    between atoms: N_3  and  C_4 
REMARK    3  A    between atoms: C_4  and  C_5 
REMARK    4  A    between atoms: C_5  and  C_6 
REMARK    5  A    between atoms: C_20  and  N_19 
ROOT
ATOM      1  C   UNL d   1      30.296 -15.936  -2.514  0.00  0.00     0.106 C 
ATOM      2  C   UNL d   1      31.578 -16.642  -2.067  0.00  0.00     0.017 C 
ATOM      3  C   UNL d   1      31.314 -18.084  -1.662  0.00  0.00     0.031 C 
ATOM      4  C   UNL d   1      30.126 -18.208  -0.681  0.00  0.00     0.275 C 
ATOM      5  N   UNL d   1      28.904 -17.427  -0.962  0.00  0.00     0.117 N 
ATOM      6  C   UNL d   1      29.199 -16.067  -1.437  0.00  0.00     0.289 C 
ENDROOT
BRANCH   1   7
ATOM      7  C   UNL d   1      29.863 -16.306  -3.944  0.00  0.00     0.223 C 
ATOM      8  O   UNL d   1      29.655 -17.469  -4.281  0.00  0.00    -0.273 OA
ATOM      9  N   UNL d   1      29.705 -15.263  -4.823  0.00  0.00    -0.360 N 
ATOM     10  H   UNL d   1      30.217 -14.418  -4.615  0.00  0.00     0.162 HD
BRANCH   9  11
ATOM     11  C   UNL d   1      29.262 -15.447  -6.182  0.00  0.00     0.127 C 
BRANCH  11  12
ATOM     12  C   UNL d   1      27.990 -14.642  -6.457  0.00  0.00     0.056 C 
BRANCH  12  13
ATOM     13  C   UNL d   1      27.130 -14.592  -5.244  0.00  0.00    -0.048 A 
ATOM     14  C   UNL d   1      27.247 -13.729  -4.232  0.00  0.00    -0.006 A 
ATOM     15  C   UNL d   1      28.135 -12.651  -3.966  0.00  0.00     0.014 A 
ATOM     16  C   UNL d   1      26.207 -14.140  -3.270  0.00  0.00     0.038 A 
ATOM     17  C   UNL d   1      27.996 -11.984  -2.810  0.00  0.00     0.001 A 
ATOM     18  C   UNL d   1      26.974 -12.349  -1.840  0.00  0.00     0.002 A 
ATOM     19  C   UNL d   1      26.105 -13.364  -2.014  0.00  0.00     0.030 A 
ATOM     20  N   UNL d   1      25.539 -15.135  -3.681  0.00  0.00    -0.385 N 
ATOM     21  C   UNL d   1      26.024 -15.575  -5.008  0.00  0.00     0.155 A 
ATOM     22  H   UNL d   1      24.773 -15.566  -3.154  0.00  0.00     0.160 HD
ENDBRANCH  12  13
ENDBRANCH  11  12
ENDBRANCH   9  11
ENDBRANCH   1   7
BRANCH   5  23
ATOM     23  C   UNL d   1      27.945 -17.374   0.223  0.00  0.00     0.370 C 
ATOM     24  N   UNL d   1      26.883 -18.424   0.513  0.00  0.00    -0.252 NA
ATOM     25  C   UNL d   1      25.627 -17.896   0.063  0.00  0.00     0.046 C 
ATOM     26  H   UNL d   1      26.801 -18.605   1.518  0.00  0.00     0.130 HD
ATOM     27  C   UNL d   1      24.416 -18.575  -0.087  0.00  0.00     0.028 C 
ATOM     28  C   UNL d   1      25.631 -16.549  -0.286  0.00  0.00     0.117 C 
ATOM     29  C   UNL d   1      23.359 -17.909  -0.738  0.00  0.00     0.021 C 
ATOM     30  C   UNL d   1      23.596 -16.646  -1.271  0.00  0.00     0.118 C 
ATOM     31  N   UNL d   1      24.697 -15.919  -1.010  0.00  0.00    -0.252 NA
ATOM     32  S   UNL d   1      27.109 -15.748   0.232  0.00  0.00    -0.057 SA
ENDBRANCH   5  23
TORSDOF 5
ENDMDL
MODEL 9
REMARK VINA RESULT:    -7.118      4.624      6.017
REMARK INTER + INTRA:         -11.455
REMARK INTER:                  -8.610
REMARK INTRA:                  -2.846
REMARK CONF_INDEPENDENT:        1.492
REMARK UNBOUND:                -2.846
REMARK  5 active torsions:
REMARK  status: ('A' for Active; 'I' for Inactive)
REMARK       I    between atoms: C_2  and  N_3 
REMARK    1  A    between atoms: C_2  and  C_15 
REMARK    2  A    between atoms: N_3  and  C_4 
REMARK    3  A    between atoms: C_4  and  C_5 
REMARK    4  A    between atoms: C_5  and  C_6 
REMARK    5  A    between atoms: C_20  and  N_19 
ROOT
ATOM      1  C   UNL d   1      30.440 -16.298  -1.312  0.00  0.00     0.106 C 
ATOM      2  C   UNL d   1      31.627 -17.256  -1.430  0.00  0.00     0.017 C 
ATOM      3  C   UNL d   1      31.898 -17.979  -0.119  0.00  0.00     0.031 C 
ATOM      4  C   UNL d   1      31.960 -17.009   1.083  0.00  0.00     0.275 C 
ATOM      5  N   UNL d   1      30.935 -15.950   1.179  0.00  0.00     0.117 N 
ATOM      6  C   UNL d   1      30.634 -15.335  -0.123  0.00  0.00     0.289 C 
ENDROOT
BRANCH   1   7
ATOM      7  C   UNL d   1      29.076 -17.008  -1.370  0.00  0.00     0.223 C 
ATOM      8  O   UNL d   1      28.378 -16.999  -2.380  0.00  0.00    -0.273 OA
ATOM      9  N   UNL d   1      28.685 -17.670  -0.231  0.00  0.00    -0.360 N 
ATOM     10  H   UNL d   1      29.094 -17.354   0.636  0.00  0.00     0.162 HD
BRANCH   9  11
ATOM     11  C   UNL d   1      27.456 -18.417  -0.145  0.00  0.00     0.127 C 
BRANCH  11  12
ATOM     12  C   UNL d   1      26.329 -17.555   0.430  0.00  0.00     0.056 C 
BRANCH  12  13
ATOM     13  C   UNL d   1      26.625 -16.110   0.234  0.00  0.00    -0.048 A 
ATOM     14  C   UNL d   1      26.283 -15.374  -0.826  0.00  0.00    -0.006 A 
ATOM     15  C   UNL d   1      25.582 -15.662  -2.029  0.00  0.00     0.014 A 
ATOM     16  C   UNL d   1      26.858 -14.043  -0.556  0.00  0.00     0.038 A 
ATOM     17  C   UNL d   1      25.430 -14.676  -2.927  0.00  0.00     0.001 A 
ATOM     18  C   UNL d   1      25.970 -13.345  -2.693  0.00  0.00     0.002 A 
ATOM     19  C   UNL d   1      26.655 -12.999  -1.585  0.00  0.00     0.030 A 
ATOM     20  N   UNL d   1      27.464 -13.998   0.555  0.00  0.00    -0.385 N 
ATOM     21  C   UNL d   1      27.406 -15.312   1.233  0.00  0.00     0.155 A 
ATOM     22  H   UNL d   1      27.929 -13.160   0.919  0.00  0.00     0.160 HD
ENDBRANCH  12  13
ENDBRANCH  11  12
ENDBRANCH   9  11
ENDBRANCH   1   7
BRANCH   5  23
ATOM     23  C   UNL d   1      31.282 -14.875   2.202  0.00  0.00     0.370 C 
ATOM     24  N   UNL d   1      31.130 -15.041   3.706  0.00  0.00    -0.252 NA
ATOM     25  C   UNL d   1      29.923 -14.366   4.090  0.00  0.00     0.046 C 
ATOM     26  H   UNL d   1      31.905 -14.602   4.212  0.00  0.00     0.130 HD
ATOM     27  C   UNL d   1      29.256 -14.433   5.314  0.00  0.00     0.028 C 
ATOM     28  C   UNL d   1      29.343 -13.567   3.109  0.00  0.00     0.117 C 
ATOM     29  C   UNL d   1      27.978 -13.848   5.405  0.00  0.00     0.021 C 
ATOM     30  C   UNL d   1      27.410 -13.308   4.256  0.00  0.00     0.118 C 
ATOM     31  N   UNL d   1      28.088 -13.099   3.114  0.00  0.00    -0.252 NA
ATOM     32  S   UNL d   1      30.425 -13.326   1.743  0.00  0.00    -0.057 SA
ENDBRANCH   5  23
TORSDOF 5
ENDMDL
