MODEL 1
REMARK VINA RESULT:   -10.312      0.000      0.000
REMARK INTER + INTRA:         -16.662
REMARK INTER:                 -13.593
REMARK INTRA:                  -3.069
REMARK CONF_INDEPENDENT:        3.281
REMARK UNBOUND:                -3.069
REMARK  11 active torsions:
REMARK  status: ('A' for Active; 'I' for Inactive)
REMARK       I    between atoms: C_2  and  N_3 
REMARK    1  A    between atoms: C_2  and  C_14 
REMARK    2  A    between atoms: N_3  and  N_4 
REMARK    3  A    between atoms: C_5  and  C_6 
REMARK    4  A    between atoms: C_9  and  O_10 
REMARK    5  A    between atoms: C_11  and  O_12 
REMARK    6  A    between atoms: C_17  and  O_18 
REMARK    7  A    between atoms: O_18  and  C_19 
REMARK    8  A    between atoms: C_19  and  C_20 
REMARK    9  A    between atoms: C_27  and  O_28 
REMARK   10  A    between atoms: O_28  and  C_29 
REMARK   11  A    between atoms: C_29  and  C_30 
ROOT
ATOM      1  C   UNL d   1      25.242 -17.457  -0.574  0.00  0.00     0.067 A 
ATOM      2  C   UNL d   1      24.499 -18.580  -0.193  0.00  0.00     0.022 A 
ATOM      3  C   UNL d   1      23.106 -18.621  -0.381  0.00  0.00     0.038 A 
ATOM      4  C   UNL d   1      22.406 -17.518  -0.873  0.00  0.00     0.071 A 
ATOM      5  C   UNL d   1      23.132 -16.396  -1.254  0.00  0.00     0.074 A 
ATOM      6  C   UNL d   1      24.541 -16.350  -1.108  0.00  0.00     0.087 A 
ENDROOT
BRANCH   1   7
ATOM      7  C   UNL d   1      26.708 -17.481  -0.252  0.00  0.00     0.274 C 
ATOM      8  O   UNL d   1      27.144 -18.399   0.451  0.00  0.00    -0.266 OA
ATOM      9  N   UNL d   1      27.530 -16.468  -0.743  0.00  0.00    -0.243 N 
ATOM     10  H   UNL d   1      27.229 -15.814  -1.458  0.00  0.00     0.192 HD
BRANCH   9  11
ATOM     11  N   UNL d   1      28.795 -16.369  -0.186  0.00  0.00    -0.183 NA
ATOM     12  C   UNL d   1      29.171 -15.233   0.304  0.00  0.00     0.150 C 
BRANCH  12  13
ATOM     13  C   UNL d   1      30.478 -15.080   1.002  0.00  0.00    -0.014 A 
ATOM     14  C   UNL d   1      31.601 -15.868   0.700  0.00  0.00     0.016 A 
ATOM     15  C   UNL d   1      32.796 -15.712   1.430  0.00  0.00     0.040 A 
ATOM     16  C   UNL d   1      32.852 -14.775   2.460  0.00  0.00     0.098 A 
ATOM     17  C   UNL d   1      31.738 -13.986   2.741  0.00  0.00     0.099 A 
ATOM     18  C   UNL d   1      30.558 -14.124   2.017  0.00  0.00     0.052 A 
BRANCH  16  19
ATOM     19  O   UNL d   1      33.971 -14.593   3.227  0.00  0.00    -0.358 OA
ATOM     20  H   UNL d   1      33.729 -14.096   4.029  0.00  0.00     0.217 HD
ENDBRANCH  16  19
BRANCH  17  21
ATOM     21  O   UNL d   1      31.774 -13.061   3.747  0.00  0.00    -0.358 OA
ATOM     22  H   UNL d   1      32.529 -13.318   4.312  0.00  0.00     0.217 HD
ENDBRANCH  17  21
ENDBRANCH  12  13
ENDBRANCH   9  11
ENDBRANCH   1   7
BRANCH   6  23
ATOM     23  O   UNL d   1      25.035 -15.148  -1.555  0.00  0.00    -0.346 OA
BRANCH  23  24
ATOM     24  C   UNL d   1      24.482 -14.662  -2.769  0.00  0.00     0.214 C 
BRANCH  24  25
ATOM     25  C   UNL d   1      25.490 -14.369  -3.829  0.00  0.00    -0.034 A 
ATOM     26  C   UNL d   1      26.254 -15.382  -4.395  0.00  0.00     0.009 A 
ATOM     27  C   UNL d   1      27.260 -15.051  -5.284  0.00  0.00     0.001 A 
ATOM     28  C   UNL d   1      27.433 -13.723  -5.681  0.00  0.00     0.000 A 
ATOM     29  C   UNL d   1      26.631 -12.710  -5.155  0.00  0.00     0.001 A 
ATOM     30  C   UNL d   1      25.664 -13.031  -4.217  0.00  0.00     0.009 A 
ENDBRANCH  24  25
ENDBRANCH  23  24
ENDBRANCH   6  23
BRANCH   4  31
ATOM     31  O   UNL d   1      21.042 -17.652  -0.906  0.00  0.00    -0.347 OA
BRANCH  31  32
ATOM     32  C   UNL d   1      20.513 -18.950  -1.205  0.00  0.00     0.214 C 
BRANCH  32  33
ATOM     33  C   UNL d   1      19.820 -19.590  -0.014  0.00  0.00    -0.034 A 
ATOM     34  C   UNL d   1      20.249 -19.410   1.307  0.00  0.00     0.009 A 
ATOM     35  C   UNL d   1      19.628 -20.099   2.354  0.00  0.00     0.001 A 
ATOM     36  C   UNL d   1      18.519 -20.904   2.104  0.00  0.00     0.000 A 
ATOM     37  C   UNL d   1      18.056 -21.062   0.801  0.00  0.00     0.001 A 
ATOM     38  C   UNL d   1      18.708 -20.416  -0.251  0.00  0.00     0.009 A 
ENDBRANCH  32  33
ENDBRANCH  31  32
ENDBRANCH   4  31
TORSDOF 11
ENDMDL
MODEL 2
REMARK VINA RESULT:   -10.191      1.572      2.291
REMARK INTER + INTRA:         -16.041
REMARK INTER:                 -13.472
REMARK INTRA:                  -2.569
REMARK CONF_INDEPENDENT:        3.281
REMARK UNBOUND:                -2.569
REMARK  11 active torsions:
REMARK  status: ('A' for Active; 'I' for Inactive)
REMARK       I    between atoms: C_2  and  N_3 
REMARK    1  A    between atoms: C_2  and  C_14 
REMARK    2  A    between atoms: N_3  and  N_4 
REMARK    3  A    between atoms: C_5  and  C_6 
REMARK    4  A    between atoms: C_9  and  O_10 
REMARK    5  A    between atoms: C_11  and  O_12 
REMARK    6  A    between atoms: C_17  and  O_18 
REMARK    7  A    between atoms: O_18  and  C_19 
REMARK    8  A    between atoms: C_19  and  C_20 
REMARK    9  A    between atoms: C_27  and  O_28 
REMARK   10  A    between atoms: O_28  and  C_29 
REMARK   11  A    between atoms: C_29  and  C_30 
ROOT
ATOM      1  C   UNL d   1      25.532 -17.304  -0.256  0.00  0.00     0.067 A 
ATOM      2  C   UNL d   1      24.801 -18.167   0.569  0.00  0.00     0.022 A 
ATOM      3  C   UNL d   1      23.652 -18.821   0.091  0.00  0.00     0.038 A 
ATOM      4  C   UNL d   1      23.152 -18.573  -1.189  0.00  0.00     0.071 A 
ATOM      5  C   UNL d   1      23.869 -17.719  -2.019  0.00  0.00     0.074 A 
ATOM      6  C   UNL d   1      25.050 -17.078  -1.568  0.00  0.00     0.087 A 
ENDROOT
BRANCH   1   7
ATOM      7  C   UNL d   1      26.691 -16.591   0.376  0.00  0.00     0.274 C 
ATOM      8  O   UNL d   1      27.505 -17.251   1.029  0.00  0.00    -0.266 OA
ATOM      9  N   UNL d   1      26.809 -15.211   0.219  0.00  0.00    -0.243 N 
ATOM     10  H   UNL d   1      26.258 -14.685  -0.451  0.00  0.00     0.192 HD
BRANCH   9  11
ATOM     11  N   UNL d   1      27.710 -14.566   1.051  0.00  0.00    -0.183 NA
ATOM     12  C   UNL d   1      27.487 -14.561   2.324  0.00  0.00     0.150 C 
BRANCH  12  13
ATOM     13  C   UNL d   1      28.461 -13.969   3.283  0.00  0.00    -0.014 A 
ATOM     14  C   UNL d   1      28.067 -13.301   4.454  0.00  0.00     0.016 A 
ATOM     15  C   UNL d   1      29.033 -12.717   5.298  0.00  0.00     0.040 A 
ATOM     16  C   UNL d   1      30.381 -12.798   4.957  0.00  0.00     0.098 A 
ATOM     17  C   UNL d   1      30.763 -13.478   3.801  0.00  0.00     0.099 A 
ATOM     18  C   UNL d   1      29.818 -14.070   2.969  0.00  0.00     0.052 A 
BRANCH  16  19
ATOM     19  O   UNL d   1      31.367 -12.228   5.715  0.00  0.00    -0.358 OA
ATOM     20  H   UNL d   1      32.211 -12.674   5.526  0.00  0.00     0.217 HD
ENDBRANCH  16  19
BRANCH  17  21
ATOM     21  O   UNL d   1      32.081 -13.570   3.449  0.00  0.00    -0.358 OA
ATOM     22  H   UNL d   1      32.581 -13.217   4.211  0.00  0.00     0.217 HD
ENDBRANCH  17  21
ENDBRANCH  12  13
ENDBRANCH   9  11
ENDBRANCH   1   7
BRANCH   6  23
ATOM     23  O   UNL d   1      25.582 -16.291  -2.560  0.00  0.00    -0.346 OA
BRANCH  23  24
ATOM     24  C   UNL d   1      24.976 -15.018  -2.735  0.00  0.00     0.214 C 
BRANCH  24  25
ATOM     25  C   UNL d   1      25.645 -14.155  -3.751  0.00  0.00    -0.034 A 
ATOM     26  C   UNL d   1      26.538 -14.687  -4.672  0.00  0.00     0.009 A 
ATOM     27  C   UNL d   1      27.226 -13.833  -5.515  0.00  0.00     0.001 A 
ATOM     28  C   UNL d   1      26.946 -12.465  -5.504  0.00  0.00     0.000 A 
ATOM     29  C   UNL d   1      26.009 -11.934  -4.618  0.00  0.00     0.001 A 
ATOM     30  C   UNL d   1      25.363 -12.779  -3.729  0.00  0.00     0.009 A 
ENDBRANCH  24  25
ENDBRANCH  23  24
ENDBRANCH   6  23
BRANCH   4  31
ATOM     31  O   UNL d   1      21.968 -19.194  -1.491  0.00  0.00    -0.347 OA
BRANCH  31  32
ATOM     32  C   UNL d   1      20.761 -18.574  -1.031  0.00  0.00     0.214 C 
BRANCH  32  33
ATOM     33  C   UNL d   1      20.045 -19.397   0.026  0.00  0.00    -0.034 A 
ATOM     34  C   UNL d   1      18.918 -20.183  -0.249  0.00  0.00     0.009 A 
ATOM     35  C   UNL d   1      18.246 -20.846   0.783  0.00  0.00     0.001 A 
ATOM     36  C   UNL d   1      18.742 -20.803   2.084  0.00  0.00     0.000 A 
ATOM     37  C   UNL d   1      19.883 -20.058   2.368  0.00  0.00     0.001 A 
ATOM     38  C   UNL d   1      20.525 -19.354   1.347  0.00  0.00     0.009 A 
ENDBRANCH  32  33
ENDBRANCH  31  32
ENDBRANCH   4  31
TORSDOF 11
ENDMDL
MODEL 3
REMARK VINA RESULT:    -9.406      3.047      9.654
REMARK INTER + INTRA:         -16.049
REMARK INTER:                 -12.688
REMARK INTRA:                  -3.361
REMARK CONF_INDEPENDENT:        3.281
REMARK UNBOUND:                -3.361
REMARK  11 active torsions:
REMARK  status: ('A' for Active; 'I' for Inactive)
REMARK       I    between atoms: C_2  and  N_3 
REMARK    1  A    between atoms: C_2  and  C_14 
REMARK    2  A    between atoms: N_3  and  N_4 
REMARK    3  A    between atoms: C_5  and  C_6 
REMARK    4  A    between atoms: C_9  and  O_10 
REMARK    5  A    between atoms: C_11  and  O_12 
REMARK    6  A    between atoms: C_17  and  O_18 
REMARK    7  A    between atoms: O_18  and  C_19 
REMARK    8  A    between atoms: C_19  and  C_20 
REMARK    9  A    between atoms: C_27  and  O_28 
REMARK   10  A    between atoms: O_28  and  C_29 
REMARK   11  A    between atoms: C_29  and  C_30 
ROOT
ATOM      1  C   UNL d   1      25.841 -17.399  -0.605  0.00  0.00     0.067 A 
ATOM      2  C   UNL d   1      26.951 -17.678   0.199  0.00  0.00     0.022 A 
ATOM      3  C   UNL d   1      28.238 -17.251  -0.173  0.00  0.00     0.038 A 
ATOM      4  C   UNL d   1      28.468 -16.610  -1.392  0.00  0.00     0.071 A 
ATOM      5  C   UNL d   1      27.373 -16.325  -2.200  0.00  0.00     0.074 A 
ATOM      6  C   UNL d   1      26.063 -16.715  -1.825  0.00  0.00     0.087 A 
ENDROOT
BRANCH   1   7
ATOM      7  C   UNL d   1      24.527 -17.973  -0.161  0.00  0.00     0.274 C 
ATOM      8  O   UNL d   1      24.408 -18.334   1.015  0.00  0.00    -0.266 OA
ATOM      9  N   UNL d   1      23.489 -18.092  -1.082  0.00  0.00    -0.243 N 
ATOM     10  H   UNL d   1      23.508 -17.644  -1.993  0.00  0.00     0.192 HD
BRANCH   9  11
ATOM     11  N   UNL d   1      22.416 -18.885  -0.711  0.00  0.00    -0.183 NA
ATOM     12  C   UNL d   1      21.776 -18.597   0.375  0.00  0.00     0.150 C 
BRANCH  12  13
ATOM     13  C   UNL d   1      20.557 -19.348   0.785  0.00  0.00    -0.014 A 
ATOM     14  C   UNL d   1      20.304 -19.723   2.114  0.00  0.00     0.016 A 
ATOM     15  C   UNL d   1      19.157 -20.478   2.433  0.00  0.00     0.040 A 
ATOM     16  C   UNL d   1      18.282 -20.858   1.418  0.00  0.00     0.098 A 
ATOM     17  C   UNL d   1      18.533 -20.466   0.104  0.00  0.00     0.099 A 
ATOM     18  C   UNL d   1      19.655 -19.710  -0.219  0.00  0.00     0.052 A 
BRANCH  16  19
ATOM     19  O   UNL d   1      17.167 -21.616   1.654  0.00  0.00    -0.358 OA
ATOM     20  H   UNL d   1      16.855 -21.992   0.812  0.00  0.00     0.217 HD
ENDBRANCH  16  19
BRANCH  17  21
ATOM     21  O   UNL d   1      17.686 -20.828  -0.907  0.00  0.00    -0.358 OA
ATOM     22  H   UNL d   1      16.799 -20.875  -0.500  0.00  0.00     0.217 HD
ENDBRANCH  17  21
ENDBRANCH  12  13
ENDBRANCH   9  11
ENDBRANCH   1   7
BRANCH   6  23
ATOM     23  O   UNL d   1      25.151 -16.323  -2.774  0.00  0.00    -0.346 OA
BRANCH  23  24
ATOM     24  C   UNL d   1      25.027 -14.923  -2.977  0.00  0.00     0.214 C 
BRANCH  24  25
ATOM     25  C   UNL d   1      26.031 -14.348  -3.917  0.00  0.00    -0.034 A 
ATOM     26  C   UNL d   1      26.399 -13.010  -3.849  0.00  0.00     0.009 A 
ATOM     27  C   UNL d   1      27.241 -12.492  -4.815  0.00  0.00     0.001 A 
ATOM     28  C   UNL d   1      27.790 -13.331  -5.787  0.00  0.00     0.000 A 
ATOM     29  C   UNL d   1      27.465 -14.687  -5.827  0.00  0.00     0.001 A 
ATOM     30  C   UNL d   1      26.574 -15.197  -4.897  0.00  0.00     0.009 A 
ENDBRANCH  24  25
ENDBRANCH  23  24
ENDBRANCH   6  23
BRANCH   4  31
ATOM     31  O   UNL d   1      29.781 -16.341  -1.681  0.00  0.00    -0.347 OA
BRANCH  31  32
ATOM     32  C   UNL d   1      30.538 -17.372  -2.328  0.00  0.00     0.214 C 
BRANCH  32  33
ATOM     33  C   UNL d   1      30.463 -17.292  -3.843  0.00  0.00    -0.034 A 
ATOM     34  C   UNL d   1      30.384 -18.423  -4.665  0.00  0.00     0.009 A 
ATOM     35  C   UNL d   1      30.410 -18.291  -6.057  0.00  0.00     0.001 A 
ATOM     36  C   UNL d   1      30.428 -17.027  -6.642  0.00  0.00     0.000 A 
ATOM     37  C   UNL d   1      30.467 -15.892  -5.839  0.00  0.00     0.001 A 
ATOM     38  C   UNL d   1      30.493 -16.024  -4.449  0.00  0.00     0.009 A 
ENDBRANCH  32  33
ENDBRANCH  31  32
ENDBRANCH   4  31
TORSDOF 11
ENDMDL
MODEL 4
REMARK VINA RESULT:    -8.964      3.675      7.399
REMARK INTER + INTRA:         -15.815
REMARK INTER:                 -12.245
REMARK INTRA:                  -3.570
REMARK CONF_INDEPENDENT:        3.281
REMARK UNBOUND:                -3.570
REMARK  11 active torsions:
REMARK  status: ('A' for Active; 'I' for Inactive)
REMARK       I    between atoms: C_2  and  N_3 
REMARK    1  A    between atoms: C_2  and  C_14 
REMARK    2  A    between atoms: N_3  and  N_4 
REMARK    3  A    between atoms: C_5  and  C_6 
REMARK    4  A    between atoms: C_9  and  O_10 
REMARK    5  A    between atoms: C_11  and  O_12 
REMARK    6  A    between atoms: C_17  and  O_18 
REMARK    7  A    between atoms: O_18  and  C_19 
REMARK    8  A    between atoms: C_19  and  C_20 
REMARK    9  A    between atoms: C_27  and  O_28 
REMARK   10  A    between atoms: O_28  and  C_29 
REMARK   11  A    between atoms: C_29  and  C_30 
ROOT
ATOM      1  C   UNL d   1      27.972 -14.330   1.179  0.00  0.00     0.067 A 
ATOM      2  C   UNL d   1      28.588 -13.334   0.413  0.00  0.00     0.022 A 
ATOM      3  C   UNL d   1      28.976 -13.581  -0.916  0.00  0.00     0.038 A 
ATOM      4  C   UNL d   1      28.839 -14.847  -1.490  0.00  0.00     0.071 A 
ATOM      5  C   UNL d   1      28.229 -15.845  -0.739  0.00  0.00     0.074 A 
ATOM      6  C   UNL d   1      27.797 -15.605   0.588  0.00  0.00     0.087 A 
ENDROOT
BRANCH   1   7
ATOM      7  C   UNL d   1      27.676 -13.990   2.611  0.00  0.00     0.274 C 
ATOM      8  O   UNL d   1      27.355 -12.830   2.888  0.00  0.00    -0.266 OA
ATOM      9  N   UNL d   1      27.780 -14.984   3.582  0.00  0.00    -0.243 N 
ATOM     10  H   UNL d   1      27.867 -15.969   3.354  0.00  0.00     0.192 HD
BRANCH   9  11
ATOM     11  N   UNL d   1      27.787 -14.563   4.903  0.00  0.00    -0.183 NA
ATOM     12  C   UNL d   1      28.905 -14.185   5.429  0.00  0.00     0.150 C 
BRANCH  12  13
ATOM     13  C   UNL d   1      28.970 -13.633   6.811  0.00  0.00    -0.014 A 
ATOM     14  C   UNL d   1      29.084 -14.445   7.951  0.00  0.00     0.016 A 
ATOM     15  C   UNL d   1      29.088 -13.868   9.237  0.00  0.00     0.040 A 
ATOM     16  C   UNL d   1      28.969 -12.486   9.368  0.00  0.00     0.098 A 
ATOM     17  C   UNL d   1      28.874 -11.687   8.229  0.00  0.00     0.099 A 
ATOM     18  C   UNL d   1      28.882 -12.247   6.956  0.00  0.00     0.052 A 
BRANCH  16  19
ATOM     19  O   UNL d   1      28.937 -11.863  10.586  0.00  0.00    -0.358 OA
ATOM     20  H   UNL d   1      28.907 -10.900  10.450  0.00  0.00     0.217 HD
ENDBRANCH  16  19
BRANCH  17  21
ATOM     21  O   UNL d   1      28.757 -10.329   8.336  0.00  0.00    -0.358 OA
ATOM     22  H   UNL d   1      28.354 -10.170   9.212  0.00  0.00     0.217 HD
ENDBRANCH  17  21
ENDBRANCH  12  13
ENDBRANCH   9  11
ENDBRANCH   1   7
BRANCH   6  23
ATOM     23  O   UNL d   1      27.223 -16.733   1.123  0.00  0.00    -0.346 OA
BRANCH  23  24
ATOM     24  C   UNL d   1      26.795 -17.714   0.190  0.00  0.00     0.214 C 
BRANCH  24  25
ATOM     25  C   UNL d   1      25.341 -17.656  -0.138  0.00  0.00    -0.034 A 
ATOM     26  C   UNL d   1      24.552 -18.800  -0.118  0.00  0.00     0.009 A 
ATOM     27  C   UNL d   1      23.240 -18.721  -0.545  0.00  0.00     0.001 A 
ATOM     28  C   UNL d   1      22.692 -17.486  -0.895  0.00  0.00     0.000 A 
ATOM     29  C   UNL d   1      23.466 -16.325  -0.865  0.00  0.00     0.001 A 
ATOM     30  C   UNL d   1      24.798 -16.411  -0.496  0.00  0.00     0.009 A 
ENDBRANCH  24  25
ENDBRANCH  23  24
ENDBRANCH   6  23
BRANCH   4  31
ATOM     31  O   UNL d   1      29.353 -14.981  -2.753  0.00  0.00    -0.347 OA
BRANCH  31  32
ATOM     32  C   UNL d   1      28.496 -15.533  -3.760  0.00  0.00     0.214 C 
BRANCH  32  33
ATOM     33  C   UNL d   1      27.204 -14.751  -3.925  0.00  0.00    -0.034 A 
ATOM     34  C   UNL d   1      27.098 -13.611  -4.733  0.00  0.00     0.009 A 
ATOM     35  C   UNL d   1      25.907 -12.879  -4.773  0.00  0.00     0.001 A 
ATOM     36  C   UNL d   1      24.785 -13.324  -4.077  0.00  0.00     0.000 A 
ATOM     37  C   UNL d   1      24.864 -14.477  -3.301  0.00  0.00     0.001 A 
ATOM     38  C   UNL d   1      26.067 -15.180  -3.219  0.00  0.00     0.009 A 
ENDBRANCH  32  33
ENDBRANCH  31  32
ENDBRANCH   4  31
TORSDOF 11
ENDMDL
MODEL 5
REMARK VINA RESULT:    -8.933      3.134      9.422
REMARK INTER + INTRA:         -15.676
REMARK INTER:                 -12.214
REMARK INTRA:                  -3.462
REMARK CONF_INDEPENDENT:        3.281
REMARK UNBOUND:                -3.462
REMARK  11 active torsions:
REMARK  status: ('A' for Active; 'I' for Inactive)
REMARK       I    between atoms: C_2  and  N_3 
REMARK    1  A    between atoms: C_2  and  C_14 
REMARK    2  A    between atoms: N_3  and  N_4 
REMARK    3  A    between atoms: C_5  and  C_6 
REMARK    4  A    between atoms: C_9  and  O_10 
REMARK    5  A    between atoms: C_11  and  O_12 
REMARK    6  A    between atoms: C_17  and  O_18 
REMARK    7  A    between atoms: O_18  and  C_19 
REMARK    8  A    between atoms: C_19  and  C_20 
REMARK    9  A    between atoms: C_27  and  O_28 
REMARK   10  A    between atoms: O_28  and  C_29 
REMARK   11  A    between atoms: C_29  and  C_30 
ROOT
ATOM      1  C   UNL d   1      26.170 -16.658  -1.030  0.00  0.00     0.067 A 
ATOM      2  C   UNL d   1      27.312 -17.193  -0.423  0.00  0.00     0.022 A 
ATOM      3  C   UNL d   1      28.587 -16.993  -0.981  0.00  0.00     0.038 A 
ATOM      4  C   UNL d   1      28.752 -16.329  -2.198  0.00  0.00     0.071 A 
ATOM      5  C   UNL d   1      27.626 -15.792  -2.811  0.00  0.00     0.074 A 
ATOM      6  C   UNL d   1      26.337 -15.951  -2.245  0.00  0.00     0.087 A 
ENDROOT
BRANCH   1   7
ATOM      7  C   UNL d   1      24.851 -17.002  -0.401  0.00  0.00     0.274 C 
ATOM      8  O   UNL d   1      24.845 -17.730   0.597  0.00  0.00    -0.266 OA
ATOM      9  N   UNL d   1      23.679 -16.502  -0.963  0.00  0.00    -0.243 N 
ATOM     10  H   UNL d   1      23.674 -15.769  -1.664  0.00  0.00     0.192 HD
BRANCH   9  11
ATOM     11  N   UNL d   1      22.491 -17.076  -0.536  0.00  0.00    -0.183 NA
ATOM     12  C   UNL d   1      22.265 -18.317  -0.815  0.00  0.00     0.150 C 
BRANCH  12  13
ATOM     13  C   UNL d   1      21.055 -19.023  -0.308  0.00  0.00    -0.014 A 
ATOM     14  C   UNL d   1      19.969 -19.361  -1.131  0.00  0.00     0.016 A 
ATOM     15  C   UNL d   1      18.829 -19.983  -0.583  0.00  0.00     0.040 A 
ATOM     16  C   UNL d   1      18.784 -20.251   0.784  0.00  0.00     0.098 A 
ATOM     17  C   UNL d   1      19.874 -19.926   1.589  0.00  0.00     0.099 A 
ATOM     18  C   UNL d   1      21.009 -19.324   1.055  0.00  0.00     0.052 A 
BRANCH  16  19
ATOM     19  O   UNL d   1      17.697 -20.825   1.385  0.00  0.00    -0.358 OA
ATOM     20  H   UNL d   1      17.932 -21.071   2.298  0.00  0.00     0.217 HD
ENDBRANCH  16  19
BRANCH  17  21
ATOM     21  O   UNL d   1      19.851 -20.181   2.932  0.00  0.00    -0.358 OA
ATOM     22  H   UNL d   1      19.112 -20.806   3.067  0.00  0.00     0.217 HD
ENDBRANCH  17  21
ENDBRANCH  12  13
ENDBRANCH   9  11
ENDBRANCH   1   7
BRANCH   6  23
ATOM     23  O   UNL d   1      25.387 -15.334  -3.023  0.00  0.00    -0.346 OA
BRANCH  23  24
ATOM     24  C   UNL d   1      25.629 -15.343  -4.422  0.00  0.00     0.214 C 
BRANCH  24  25
ATOM     25  C   UNL d   1      26.271 -14.101  -4.941  0.00  0.00    -0.034 A 
ATOM     26  C   UNL d   1      25.753 -12.846  -4.648  0.00  0.00     0.009 A 
ATOM     27  C   UNL d   1      26.307 -11.730  -5.248  0.00  0.00     0.001 A 
ATOM     28  C   UNL d   1      27.436 -11.862  -6.059  0.00  0.00     0.000 A 
ATOM     29  C   UNL d   1      27.993 -13.116  -6.312  0.00  0.00     0.001 A 
ATOM     30  C   UNL d   1      27.403 -14.241  -5.761  0.00  0.00     0.009 A 
ENDBRANCH  24  25
ENDBRANCH  23  24
ENDBRANCH   6  23
BRANCH   4  31
ATOM     31  O   UNL d   1      30.034 -16.295  -2.683  0.00  0.00    -0.347 OA
BRANCH  31  32
ATOM     32  C   UNL d   1      30.218 -15.849  -4.033  0.00  0.00     0.214 C 
BRANCH  32  33
ATOM     33  C   UNL d   1      30.444 -16.995  -5.004  0.00  0.00    -0.034 A 
ATOM     34  C   UNL d   1      30.670 -16.804  -6.373  0.00  0.00     0.009 A 
ATOM     35  C   UNL d   1      30.780 -17.901  -7.234  0.00  0.00     0.001 A 
ATOM     36  C   UNL d   1      30.754 -19.198  -6.725  0.00  0.00     0.000 A 
ATOM     37  C   UNL d   1      30.570 -19.404  -5.361  0.00  0.00     0.001 A 
ATOM     38  C   UNL d   1      30.408 -18.311  -4.508  0.00  0.00     0.009 A 
ENDBRANCH  32  33
ENDBRANCH  31  32
ENDBRANCH   4  31
TORSDOF 11
ENDMDL
MODEL 6
REMARK VINA RESULT:    -8.746      3.306      9.629
REMARK INTER + INTRA:         -15.613
REMARK INTER:                 -12.028
REMARK INTRA:                  -3.585
REMARK CONF_INDEPENDENT:        3.281
REMARK UNBOUND:                -3.585
REMARK  11 active torsions:
REMARK  status: ('A' for Active; 'I' for Inactive)
REMARK       I    between atoms: C_2  and  N_3 
REMARK    1  A    between atoms: C_2  and  C_14 
REMARK    2  A    between atoms: N_3  and  N_4 
REMARK    3  A    between atoms: C_5  and  C_6 
REMARK    4  A    between atoms: C_9  and  O_10 
REMARK    5  A    between atoms: C_11  and  O_12 
REMARK    6  A    between atoms: C_17  and  O_18 
REMARK    7  A    between atoms: O_18  and  C_19 
REMARK    8  A    between atoms: C_19  and  C_20 
REMARK    9  A    between atoms: C_27  and  O_28 
REMARK   10  A    between atoms: O_28  and  C_29 
REMARK   11  A    between atoms: C_29  and  C_30 
ROOT
ATOM      1  C   UNL d   1      26.032 -16.539  -1.277  0.00  0.00     0.067 A 
ATOM      2  C   UNL d   1      27.227 -17.096  -0.808  0.00  0.00     0.022 A 
ATOM      3  C   UNL d   1      28.447 -16.841  -1.459  0.00  0.00     0.038 A 
ATOM      4  C   UNL d   1      28.500 -16.096  -2.639  0.00  0.00     0.071 A 
ATOM      5  C   UNL d   1      27.320 -15.536  -3.115  0.00  0.00     0.074 A 
ATOM      6  C   UNL d   1      26.087 -15.751  -2.452  0.00  0.00     0.087 A 
ENDROOT
BRANCH   1   7
ATOM      7  C   UNL d   1      24.776 -16.943  -0.562  0.00  0.00     0.274 C 
ATOM      8  O   UNL d   1      24.865 -17.719   0.396  0.00  0.00    -0.266 OA
ATOM      9  N   UNL d   1      23.552 -16.443  -1.001  0.00  0.00    -0.243 N 
ATOM     10  H   UNL d   1      23.476 -15.678  -1.662  0.00  0.00     0.192 HD
BRANCH   9  11
ATOM     11  N   UNL d   1      22.415 -17.064  -0.508  0.00  0.00    -0.183 NA
ATOM     12  C   UNL d   1      22.122 -18.250  -0.930  0.00  0.00     0.150 C 
BRANCH  12  13
ATOM     13  C   UNL d   1      20.970 -19.013  -0.374  0.00  0.00    -0.014 A 
ATOM     14  C   UNL d   1      19.865 -19.399  -1.151  0.00  0.00     0.016 A 
ATOM     15  C   UNL d   1      18.781 -20.075  -0.558  0.00  0.00     0.040 A 
ATOM     16  C   UNL d   1      18.807 -20.348   0.808  0.00  0.00     0.098 A 
ATOM     17  C   UNL d   1      19.915 -19.976   1.568  0.00  0.00     0.099 A 
ATOM     18  C   UNL d   1      20.997 -19.320   0.988  0.00  0.00     0.052 A 
BRANCH  16  19
ATOM     19  O   UNL d   1      17.775 -20.974   1.453  0.00  0.00    -0.358 OA
ATOM     20  H   UNL d   1      18.111 -21.378   2.273  0.00  0.00     0.217 HD
ENDBRANCH  16  19
BRANCH  17  21
ATOM     21  O   UNL d   1      19.961 -20.235   2.909  0.00  0.00    -0.358 OA
ATOM     22  H   UNL d   1      19.269 -20.906   3.070  0.00  0.00     0.217 HD
ENDBRANCH  17  21
ENDBRANCH  12  13
ENDBRANCH   9  11
ENDBRANCH   1   7
BRANCH   6  23
ATOM     23  O   UNL d   1      25.067 -15.099  -3.102  0.00  0.00    -0.346 OA
BRANCH  23  24
ATOM     24  C   UNL d   1      25.413 -14.472  -4.329  0.00  0.00     0.214 C 
BRANCH  24  25
ATOM     25  C   UNL d   1      25.733 -13.020  -4.207  0.00  0.00    -0.034 A 
ATOM     26  C   UNL d   1      25.821 -12.205  -5.329  0.00  0.00     0.009 A 
ATOM     27  C   UNL d   1      26.237 -10.896  -5.180  0.00  0.00     0.001 A 
ATOM     28  C   UNL d   1      26.468 -10.376  -3.905  0.00  0.00     0.000 A 
ATOM     29  C   UNL d   1      26.328 -11.177  -2.771  0.00  0.00     0.001 A 
ATOM     30  C   UNL d   1      25.970 -12.506  -2.921  0.00  0.00     0.009 A 
ENDBRANCH  24  25
ENDBRANCH  23  24
ENDBRANCH   6  23
BRANCH   4  31
ATOM     31  O   UNL d   1      29.735 -16.011  -3.229  0.00  0.00    -0.347 OA
BRANCH  31  32
ATOM     32  C   UNL d   1      29.882 -16.580  -4.536  0.00  0.00     0.214 C 
BRANCH  32  33
ATOM     33  C   UNL d   1      29.832 -15.537  -5.639  0.00  0.00    -0.034 A 
ATOM     34  C   UNL d   1      30.959 -15.143  -6.372  0.00  0.00     0.009 A 
ATOM     35  C   UNL d   1      30.869 -14.112  -7.312  0.00  0.00     0.001 A 
ATOM     36  C   UNL d   1      29.638 -13.524  -7.594  0.00  0.00     0.000 A 
ATOM     37  C   UNL d   1      28.501 -13.931  -6.902  0.00  0.00     0.001 A 
ATOM     38  C   UNL d   1      28.599 -14.925  -5.926  0.00  0.00     0.009 A 
ENDBRANCH  32  33
ENDBRANCH  31  32
ENDBRANCH   4  31
TORSDOF 11
ENDMDL
MODEL 7
REMARK VINA RESULT:    -8.592      2.685      5.882
REMARK INTER + INTRA:         -15.324
REMARK INTER:                 -11.873
REMARK INTRA:                  -3.451
REMARK CONF_INDEPENDENT:        3.281
REMARK UNBOUND:                -3.451
REMARK  11 active torsions:
REMARK  status: ('A' for Active; 'I' for Inactive)
REMARK       I    between atoms: C_2  and  N_3 
REMARK    1  A    between atoms: C_2  and  C_14 
REMARK    2  A    between atoms: N_3  and  N_4 
REMARK    3  A    between atoms: C_5  and  C_6 
REMARK    4  A    between atoms: C_9  and  O_10 
REMARK    5  A    between atoms: C_11  and  O_12 
REMARK    6  A    between atoms: C_17  and  O_18 
REMARK    7  A    between atoms: O_18  and  C_19 
REMARK    8  A    between atoms: C_19  and  C_20 
REMARK    9  A    between atoms: C_27  and  O_28 
REMARK   10  A    between atoms: O_28  and  C_29 
REMARK   11  A    between atoms: C_29  and  C_30 
ROOT
ATOM      1  C   UNL d   1      25.243 -16.196  -1.502  0.00  0.00     0.067 A 
ATOM      2  C   UNL d   1      23.860 -15.996  -1.564  0.00  0.00     0.022 A 
ATOM      3  C   UNL d   1      22.974 -16.872  -0.911  0.00  0.00     0.038 A 
ATOM      4  C   UNL d   1      23.434 -18.014  -0.252  0.00  0.00     0.071 A 
ATOM      5  C   UNL d   1      24.806 -18.224  -0.183  0.00  0.00     0.074 A 
ATOM      6  C   UNL d   1      25.717 -17.332  -0.802  0.00  0.00     0.087 A 
ENDROOT
BRANCH   1   7
ATOM      7  C   UNL d   1      26.095 -15.254  -2.302  0.00  0.00     0.274 C 
ATOM      8  O   UNL d   1      25.590 -14.204  -2.711  0.00  0.00    -0.266 OA
ATOM      9  N   UNL d   1      27.419 -15.594  -2.570  0.00  0.00    -0.243 N 
ATOM     10  H   UNL d   1      27.897 -16.357  -2.100  0.00  0.00     0.192 HD
BRANCH   9  11
ATOM     11  N   UNL d   1      28.067 -14.851  -3.544  0.00  0.00    -0.183 NA
ATOM     12  C   UNL d   1      27.645 -14.922  -4.764  0.00  0.00     0.150 C 
BRANCH  12  13
ATOM     13  C   UNL d   1      28.233 -14.080  -5.842  0.00  0.00    -0.014 A 
ATOM     14  C   UNL d   1      27.588 -12.944  -6.359  0.00  0.00     0.016 A 
ATOM     15  C   UNL d   1      28.171 -12.216  -7.416  0.00  0.00     0.040 A 
ATOM     16  C   UNL d   1      29.386 -12.637  -7.951  0.00  0.00     0.098 A 
ATOM     17  C   UNL d   1      30.027 -13.756  -7.419  0.00  0.00     0.099 A 
ATOM     18  C   UNL d   1      29.466 -14.473  -6.367  0.00  0.00     0.052 A 
BRANCH  16  19
ATOM     19  O   UNL d   1      29.992 -11.994  -8.996  0.00  0.00    -0.358 OA
ATOM     20  H   UNL d   1      30.713 -12.553  -9.338  0.00  0.00     0.217 HD
ENDBRANCH  16  19
BRANCH  17  21
ATOM     21  O   UNL d   1      31.220 -14.185  -7.929  0.00  0.00    -0.358 OA
ATOM     22  H   UNL d   1      31.128 -14.122  -8.900  0.00  0.00     0.217 HD
ENDBRANCH  17  21
ENDBRANCH  12  13
ENDBRANCH   9  11
ENDBRANCH   1   7
BRANCH   6  23
ATOM     23  O   UNL d   1      27.012 -17.742  -0.596  0.00  0.00    -0.346 OA
BRANCH  23  24
ATOM     24  C   UNL d   1      27.654 -17.213   0.555  0.00  0.00     0.214 C 
BRANCH  24  25
ATOM     25  C   UNL d   1      28.223 -15.847   0.366  0.00  0.00    -0.034 A 
ATOM     26  C   UNL d   1      27.526 -14.714   0.767  0.00  0.00     0.009 A 
ATOM     27  C   UNL d   1      28.035 -13.466   0.463  0.00  0.00     0.001 A 
ATOM     28  C   UNL d   1      29.285 -13.351  -0.149  0.00  0.00     0.000 A 
ATOM     29  C   UNL d   1      30.014 -14.486  -0.504  0.00  0.00     0.001 A 
ATOM     30  C   UNL d   1      29.478 -15.739  -0.257  0.00  0.00     0.009 A 
ENDBRANCH  24  25
ENDBRANCH  23  24
ENDBRANCH   6  23
BRANCH   4  31
ATOM     31  O   UNL d   1      22.460 -18.839   0.249  0.00  0.00    -0.347 OA
BRANCH  31  32
ATOM     32  C   UNL d   1      21.217 -18.901  -0.461  0.00  0.00     0.214 C 
BRANCH  32  33
ATOM     33  C   UNL d   1      20.130 -19.620   0.319  0.00  0.00    -0.034 A 
ATOM     34  C   UNL d   1      20.119 -19.702   1.717  0.00  0.00     0.009 A 
ATOM     35  C   UNL d   1      19.143 -20.456   2.376  0.00  0.00     0.001 A 
ATOM     36  C   UNL d   1      18.118 -21.063   1.653  0.00  0.00     0.000 A 
ATOM     37  C   UNL d   1      18.093 -20.958   0.265  0.00  0.00     0.001 A 
ATOM     38  C   UNL d   1      19.096 -20.249  -0.397  0.00  0.00     0.009 A 
ENDBRANCH  32  33
ENDBRANCH  31  32
ENDBRANCH   4  31
TORSDOF 11
ENDMDL
MODEL 8
REMARK VINA RESULT:    -8.337      3.897      7.920
REMARK INTER + INTRA:         -15.248
REMARK INTER:                 -11.619
REMARK INTRA:                  -3.630
REMARK CONF_INDEPENDENT:        3.281
REMARK UNBOUND:                -3.630
REMARK  11 active torsions:
REMARK  status: ('A' for Active; 'I' for Inactive)
REMARK       I    between atoms: C_2  and  N_3 
REMARK    1  A    between atoms: C_2  and  C_14 
REMARK    2  A    between atoms: N_3  and  N_4 
REMARK    3  A    between atoms: C_5  and  C_6 
REMARK    4  A    between atoms: C_9  and  O_10 
REMARK    5  A    between atoms: C_11  and  O_12 
REMARK    6  A    between atoms: C_17  and  O_18 
REMARK    7  A    between atoms: O_18  and  C_19 
REMARK    8  A    between atoms: C_19  and  C_20 
REMARK    9  A    between atoms: C_27  and  O_28 
REMARK   10  A    between atoms: O_28  and  C_29 
REMARK   11  A    between atoms: C_29  and  C_30 
ROOT
ATOM      1  C   UNL d   1      27.444 -13.811   1.130  0.00  0.00     0.067 A 
ATOM      2  C   UNL d   1      26.992 -12.623   0.545  0.00  0.00     0.022 A 
ATOM      3  C   UNL d   1      27.068 -12.430  -0.846  0.00  0.00     0.038 A 
ATOM      4  C   UNL d   1      27.669 -13.374  -1.680  0.00  0.00     0.071 A 
ATOM      5  C   UNL d   1      28.121 -14.559  -1.111  0.00  0.00     0.074 A 
ATOM      6  C   UNL d   1      28.020 -14.789   0.283  0.00  0.00     0.087 A 
ENDROOT
BRANCH   1   7
ATOM      7  C   UNL d   1      27.398 -13.882   2.629  0.00  0.00     0.274 C 
ATOM      8  O   UNL d   1      26.658 -13.099   3.234  0.00  0.00    -0.266 OA
ATOM      9  N   UNL d   1      28.192 -14.816   3.291  0.00  0.00    -0.243 N 
ATOM     10  H   UNL d   1      28.663 -15.576   2.812  0.00  0.00     0.192 HD
BRANCH   9  11
ATOM     11  N   UNL d   1      28.338 -14.649   4.659  0.00  0.00    -0.183 NA
ATOM     12  C   UNL d   1      28.779 -13.518   5.104  0.00  0.00     0.150 C 
BRANCH  12  13
ATOM     13  C   UNL d   1      28.871 -13.236   6.563  0.00  0.00    -0.014 A 
ATOM     14  C   UNL d   1      28.909 -14.251   7.534  0.00  0.00     0.016 A 
ATOM     15  C   UNL d   1      28.944 -13.921   8.904  0.00  0.00     0.040 A 
ATOM     16  C   UNL d   1      28.932 -12.582   9.288  0.00  0.00     0.098 A 
ATOM     17  C   UNL d   1      28.912 -11.583   8.317  0.00  0.00     0.099 A 
ATOM     18  C   UNL d   1      28.891 -11.898   6.961  0.00  0.00     0.052 A 
BRANCH  16  19
ATOM     19  O   UNL d   1      28.935 -12.194  10.600  0.00  0.00    -0.358 OA
ATOM     20  H   UNL d   1      28.869 -11.223  10.645  0.00  0.00     0.217 HD
ENDBRANCH  16  19
BRANCH  17  21
ATOM     21  O   UNL d   1      28.901 -10.263   8.672  0.00  0.00    -0.358 OA
ATOM     22  H   UNL d   1      28.896 -10.255   9.650  0.00  0.00     0.217 HD
ENDBRANCH  17  21
ENDBRANCH  12  13
ENDBRANCH   9  11
ENDBRANCH   1   7
BRANCH   6  23
ATOM     23  O   UNL d   1      28.526 -16.024   0.609  0.00  0.00    -0.346 OA
BRANCH  23  24
ATOM     24  C   UNL d   1      28.201 -17.082  -0.281  0.00  0.00     0.214 C 
BRANCH  24  25
ATOM     25  C   UNL d   1      26.738 -17.328  -0.433  0.00  0.00    -0.034 A 
ATOM     26  C   UNL d   1      26.045 -16.878  -1.550  0.00  0.00     0.009 A 
ATOM     27  C   UNL d   1      24.670 -17.021  -1.593  0.00  0.00     0.001 A 
ATOM     28  C   UNL d   1      24.005 -17.699  -0.570  0.00  0.00     0.000 A 
ATOM     29  C   UNL d   1      24.705 -18.200   0.528  0.00  0.00     0.001 A 
ATOM     30  C   UNL d   1      26.075 -18.005   0.604  0.00  0.00     0.009 A 
ENDBRANCH  24  25
ENDBRANCH  23  24
ENDBRANCH   6  23
BRANCH   4  31
ATOM     31  O   UNL d   1      27.772 -13.016  -2.999  0.00  0.00    -0.347 OA
BRANCH  31  32
ATOM     32  C   UNL d   1      27.144 -13.867  -3.966  0.00  0.00     0.214 C 
BRANCH  32  33
ATOM     33  C   UNL d   1      28.138 -14.736  -4.717  0.00  0.00    -0.034 A 
ATOM     34  C   UNL d   1      28.838 -15.791  -4.116  0.00  0.00     0.009 A 
ATOM     35  C   UNL d   1      29.809 -16.497  -4.834  0.00  0.00     0.001 A 
ATOM     36  C   UNL d   1      30.028 -16.218  -6.181  0.00  0.00     0.000 A 
ATOM     37  C   UNL d   1      29.312 -15.199  -6.803  0.00  0.00     0.001 A 
ATOM     38  C   UNL d   1      28.380 -14.459  -6.074  0.00  0.00     0.009 A 
ENDBRANCH  32  33
ENDBRANCH  31  32
ENDBRANCH   4  31
TORSDOF 11
ENDMDL
MODEL 9
REMARK VINA RESULT:    -8.046      4.630      7.358
REMARK INTER + INTRA:         -15.033
REMARK INTER:                 -11.327
REMARK INTRA:                  -3.706
REMARK CONF_INDEPENDENT:        3.281
REMARK UNBOUND:                -3.706
REMARK  11 active torsions:
REMARK  status: ('A' for Active; 'I' for Inactive)
REMARK       I    between atoms: C_2  and  N_3 
REMARK    1  A    between atoms: C_2  and  C_14 
REMARK    2  A    between atoms: N_3  and  N_4 
REMARK    3  A    between atoms: C_5  and  C_6 
REMARK    4  A    between atoms: C_9  and  O_10 
REMARK    5  A    between atoms: C_11  and  O_12 
REMARK    6  A    between atoms: C_17  and  O_18 
REMARK    7  A    between atoms: O_18  and  C_19 
REMARK    8  A    between atoms: C_19  and  C_20 
REMARK    9  A    between atoms: C_27  and  O_28 
REMARK   10  A    between atoms: O_28  and  C_29 
REMARK   11  A    between atoms: C_29  and  C_30 
ROOT
ATOM      1  C   UNL d   1      27.547 -14.163   2.246  0.00  0.00     0.067 A 
ATOM      2  C   UNL d   1      28.157 -15.201   1.533  0.00  0.00     0.022 A 
ATOM      3  C   UNL d   1      28.049 -15.275   0.133  0.00  0.00     0.038 A 
ATOM      4  C   UNL d   1      27.266 -14.369  -0.585  0.00  0.00     0.071 A 
ATOM      5  C   UNL d   1      26.656 -13.333   0.111  0.00  0.00     0.074 A 
ATOM      6  C   UNL d   1      26.783 -13.220   1.518  0.00  0.00     0.087 A 
ENDROOT
BRANCH   1   7
ATOM      7  C   UNL d   1      27.651 -14.224   3.743  0.00  0.00     0.274 C 
ATOM      8  O   UNL d   1      26.759 -13.699   4.418  0.00  0.00    -0.266 OA
ATOM      9  N   UNL d   1      28.747 -14.857   4.324  0.00  0.00    -0.243 N 
ATOM     10  H   UNL d   1      29.389 -15.440   3.797  0.00  0.00     0.192 HD
BRANCH   9  11
ATOM     11  N   UNL d   1      28.948 -14.634   5.677  0.00  0.00    -0.183 NA
ATOM     12  C   UNL d   1      28.970 -13.417   6.110  0.00  0.00     0.150 C 
BRANCH  12  13
ATOM     13  C   UNL d   1      29.087 -13.107   7.562  0.00  0.00    -0.014 A 
ATOM     14  C   UNL d   1      28.906 -14.075   8.565  0.00  0.00     0.016 A 
ATOM     15  C   UNL d   1      28.979 -13.711   9.924  0.00  0.00     0.040 A 
ATOM     16  C   UNL d   1      29.221 -12.382  10.267  0.00  0.00     0.098 A 
ATOM     17  C   UNL d   1      29.416 -11.433   9.265  0.00  0.00     0.099 A 
ATOM     18  C   UNL d   1      29.359 -11.785   7.920  0.00  0.00     0.052 A 
BRANCH  16  19
ATOM     19  O   UNL d   1      29.274 -11.956  11.566  0.00  0.00    -0.358 OA
ATOM     20  H   UNL d   1      29.262 -10.983  11.582  0.00  0.00     0.217 HD
ENDBRANCH  16  19
BRANCH  17  21
ATOM     21  O   UNL d   1      29.655 -10.124   9.580  0.00  0.00    -0.358 OA
ATOM     22  H   UNL d   1      29.645 -10.084  10.556  0.00  0.00     0.217 HD
ENDBRANCH  17  21
ENDBRANCH  12  13
ENDBRANCH   9  11
ENDBRANCH   1   7
BRANCH   6  23
ATOM     23  O   UNL d   1      26.100 -12.120   1.979  0.00  0.00    -0.346 OA
BRANCH  23  24
ATOM     24  C   UNL d   1      26.810 -10.891   1.948  0.00  0.00     0.214 C 
BRANCH  24  25
ATOM     25  C   UNL d   1      27.809 -10.732   3.044  0.00  0.00    -0.034 A 
ATOM     26  C   UNL d   1      27.452 -10.192   4.273  0.00  0.00     0.009 A 
ATOM     27  C   UNL d   1      28.434  -9.951   5.215  0.00  0.00     0.001 A 
ATOM     28  C   UNL d   1      29.752 -10.341   4.967  0.00  0.00     0.000 A 
ATOM     29  C   UNL d   1      30.105 -10.934   3.754  0.00  0.00     0.001 A 
ATOM     30  C   UNL d   1      29.135 -11.120   2.784  0.00  0.00     0.009 A 
ENDBRANCH  24  25
ENDBRANCH  23  24
ENDBRANCH   6  23
BRANCH   4  31
ATOM     31  O   UNL d   1      27.161 -14.616  -1.930  0.00  0.00    -0.347 OA
BRANCH  31  32
ATOM     32  C   UNL d   1      26.822 -15.950  -2.331  0.00  0.00     0.214 C 
BRANCH  32  33
ATOM     33  C   UNL d   1      25.678 -16.534  -1.521  0.00  0.00    -0.034 A 
ATOM     34  C   UNL d   1      25.828 -17.639  -0.673  0.00  0.00     0.009 A 
ATOM     35  C   UNL d   1      24.719 -18.190  -0.023  0.00  0.00     0.001 A 
ATOM     36  C   UNL d   1      23.466 -17.592  -0.143  0.00  0.00     0.000 A 
ATOM     37  C   UNL d   1      23.309 -16.470  -0.952  0.00  0.00     0.001 A 
ATOM     38  C   UNL d   1      24.405 -15.950  -1.642  0.00  0.00     0.009 A 
ENDBRANCH  32  33
ENDBRANCH  31  32
ENDBRANCH   4  31
TORSDOF 11
ENDMDL
