MODEL 1
REMARK VINA RESULT:    -9.171      0.000      0.000
REMARK INTER + INTRA:         -11.800
REMARK INTER:                 -10.961
REMARK INTRA:                  -0.839
REMARK CONF_INDEPENDENT:        1.790
REMARK UNBOUND:                -0.839
REMARK  6 active torsions:
REMARK  status: ('A' for Active; 'I' for Inactive)
REMARK    1  A    between atoms: O_2  and  C_3 
REMARK    2  A    between atoms: C_6  and  N_7 
REMARK    3  A    between atoms: C_12  and  N_13 
REMARK       I    between atoms: N_13  and  C_14 
REMARK    4  A    between atoms: C_14  and  C_16 
REMARK    5  A    between atoms: C_17  and  C_18 
REMARK    6  A    between atoms: C_21  and  C_22 
ROOT
ATOM      1  N   UNL d   1      22.983 -18.100  -0.694  0.00  0.00    -0.150 N 
ATOM      2  N   UNL d   1      23.839 -17.803   0.305  0.00  0.00    -0.147 NA
ATOM      3  C   UNL d   1      24.888 -17.277  -0.344  0.00  0.00     0.109 A 
ATOM      4  C   UNL d   1      26.117 -16.858   0.172  0.00  0.00     0.038 A 
ATOM      5  C   UNL d   1      26.986 -16.268  -0.769  0.00  0.00     0.032 A 
ATOM      6  C   UNL d   1      26.711 -16.065  -2.152  0.00  0.00     0.037 A 
ATOM      7  C   UNL d   1      25.467 -16.521  -2.686  0.00  0.00     0.065 A 
ATOM      8  C   UNL d   1      24.566 -17.159  -1.765  0.00  0.00     0.111 A 
ATOM      9  N   UNL d   1      23.368 -17.757  -1.957  0.00  0.00    -0.147 NA
ENDROOT
BRANCH   6  10
ATOM     10  N   UNL d   1      27.687 -15.413  -3.006  0.00  0.00    -0.324 N 
ATOM     11  C   UNL d   1      27.552 -15.217  -4.384  0.00  0.00     0.245 C 
ATOM     12  O   UNL d   1      26.588 -15.580  -5.065  0.00  0.00    -0.268 OA
ATOM     13  H   UNL d   1      28.528 -15.074  -2.550  0.00  0.00     0.169 HD
BRANCH  11  14
ATOM     14  C   UNL d   1      28.668 -14.519  -5.106  0.00  0.00     0.077 C 
ATOM     15  C   UNL d   1      28.495 -14.241  -6.419  0.00  0.00     0.042 C 
BRANCH  15  16
ATOM     16  C   UNL d   1      29.490 -13.617  -7.237  0.00  0.00     0.076 A 
ATOM     17  C   UNL d   1      29.543 -12.313  -7.715  0.00  0.00     0.040 A 
ATOM     18  C   UNL d   1      30.759 -12.140  -8.411  0.00  0.00     0.041 A 
ATOM     19  C   UNL d   1      31.409 -13.348  -8.368  0.00  0.00     0.086 A 
ATOM     20  O   UNL d   1      30.664 -14.245  -7.648  0.00  0.00    -0.310 OA
BRANCH  19  21
ATOM     21  C   UNL d   1      32.706 -13.772  -8.880  0.00  0.00    -0.002 A 
ATOM     22  C   UNL d   1      33.080 -15.122  -8.910  0.00  0.00     0.017 A 
ATOM     23  C   UNL d   1      34.355 -15.493  -9.354  0.00  0.00     0.043 A 
ATOM     24  C   UNL d   1      35.213 -14.527  -9.869  0.00  0.00     0.116 A 
ATOM     25  F   UNL d   1      36.443 -14.877 -10.268  0.00  0.00    -0.206 F 
ATOM     26  C   UNL d   1      34.810 -13.204  -9.973  0.00  0.00     0.043 A 
ATOM     27  C   UNL d   1      33.577 -12.821  -9.439  0.00  0.00     0.017 A 
ENDBRANCH  19  21
ENDBRANCH  15  16
ENDBRANCH  11  14
ENDBRANCH   6  10
BRANCH   1  28
ATOM     28  C   UNL d   1      21.728 -18.714  -0.409  0.00  0.00     0.081 A 
ATOM     29  C   UNL d   1      20.827 -19.020  -1.431  0.00  0.00     0.036 A 
ATOM     30  C   UNL d   1      19.603 -19.648  -1.121  0.00  0.00     0.041 A 
ATOM     31  C   UNL d   1      19.236 -19.925   0.210  0.00  0.00     0.090 A 
ATOM     32  C   UNL d   1      20.170 -19.652   1.222  0.00  0.00     0.069 A 
ATOM     33  C   UNL d   1      21.408 -19.059   0.911  0.00  0.00     0.060 A 
ATOM     34 CL   UNL d   1      19.951 -20.075   2.884  0.00  0.00    -0.081 Cl
BRANCH  31  35
ATOM     35  O   UNL d   1      18.023 -20.552   0.362  0.00  0.00    -0.354 OA
ATOM     36  C   UNL d   1      18.041 -21.839   0.983  0.00  0.00     0.210 C 
ENDBRANCH  31  35
ENDBRANCH   1  28
TORSDOF 6
ENDMDL
MODEL 2
REMARK VINA RESULT:    -8.687      6.379      8.460
REMARK INTER + INTRA:         -11.351
REMARK INTER:                 -10.477
REMARK INTRA:                  -0.874
REMARK CONF_INDEPENDENT:        1.790
REMARK UNBOUND:                -0.874
REMARK  6 active torsions:
REMARK  status: ('A' for Active; 'I' for Inactive)
REMARK    1  A    between atoms: O_2  and  C_3 
REMARK    2  A    between atoms: C_6  and  N_7 
REMARK    3  A    between atoms: C_12  and  N_13 
REMARK       I    between atoms: N_13  and  C_14 
REMARK    4  A    between atoms: C_14  and  C_16 
REMARK    5  A    between atoms: C_17  and  C_18 
REMARK    6  A    between atoms: C_21  and  C_22 
ROOT
ATOM      1  N   UNL d   1      22.826 -18.221  -0.221  0.00  0.00    -0.150 N 
ATOM      2  N   UNL d   1      23.072 -17.257  -1.132  0.00  0.00    -0.147 NA
ATOM      3  C   UNL d   1      24.345 -16.922  -0.879  0.00  0.00     0.109 A 
ATOM      4  C   UNL d   1      25.117 -15.915  -1.463  0.00  0.00     0.038 A 
ATOM      5  C   UNL d   1      26.460 -15.872  -1.033  0.00  0.00     0.032 A 
ATOM      6  C   UNL d   1      27.068 -16.753  -0.093  0.00  0.00     0.037 A 
ATOM      7  C   UNL d   1      26.271 -17.763   0.526  0.00  0.00     0.065 A 
ATOM      8  C   UNL d   1      24.886 -17.819   0.140  0.00  0.00     0.111 A 
ATOM      9  N   UNL d   1      23.867 -18.589   0.582  0.00  0.00    -0.147 NA
ENDROOT
BRANCH   6  10
ATOM     10  N   UNL d   1      28.475 -16.616   0.236  0.00  0.00    -0.324 N 
ATOM     11  C   UNL d   1      29.518 -16.542  -0.694  0.00  0.00     0.245 C 
ATOM     12  O   UNL d   1      29.385 -16.591  -1.920  0.00  0.00    -0.268 OA
ATOM     13  H   UNL d   1      28.704 -16.569   1.223  0.00  0.00     0.169 HD
BRANCH  11  14
ATOM     14  C   UNL d   1      30.917 -16.401  -0.168  0.00  0.00     0.077 C 
ATOM     15  C   UNL d   1      31.521 -17.505   0.328  0.00  0.00     0.042 C 
BRANCH  15  16
ATOM     16  C   UNL d   1      32.834 -17.506   0.897  0.00  0.00     0.076 A 
ATOM     17  C   UNL d   1      33.971 -16.823   0.483  0.00  0.00     0.040 A 
ATOM     18  C   UNL d   1      35.007 -17.075   1.409  0.00  0.00     0.041 A 
ATOM     19  C   UNL d   1      34.488 -17.928   2.352  0.00  0.00     0.086 A 
ATOM     20  O   UNL d   1      33.173 -18.183   2.066  0.00  0.00    -0.310 OA
BRANCH  19  21
ATOM     21  C   UNL d   1      35.066 -18.508   3.558  0.00  0.00    -0.002 A 
ATOM     22  C   UNL d   1      36.050 -17.839   4.297  0.00  0.00     0.017 A 
ATOM     23  C   UNL d   1      36.628 -18.447   5.418  0.00  0.00     0.043 A 
ATOM     24  C   UNL d   1      36.145 -19.674   5.862  0.00  0.00     0.116 A 
ATOM     25  F   UNL d   1      36.715 -20.269   6.918  0.00  0.00    -0.206 F 
ATOM     26  C   UNL d   1      35.079 -20.289   5.222  0.00  0.00     0.043 A 
ATOM     27  C   UNL d   1      34.570 -19.729   4.048  0.00  0.00     0.017 A 
ENDBRANCH  19  21
ENDBRANCH  15  16
ENDBRANCH  11  14
ENDBRANCH   6  10
BRANCH   1  28
ATOM     28  C   UNL d   1      21.540 -18.833  -0.147  0.00  0.00     0.081 A 
ATOM     29  C   UNL d   1      20.768 -19.028  -1.294  0.00  0.00     0.036 A 
ATOM     30  C   UNL d   1      19.510 -19.656  -1.193  0.00  0.00     0.041 A 
ATOM     31  C   UNL d   1      18.981 -20.045   0.053  0.00  0.00     0.090 A 
ATOM     32  C   UNL d   1      19.786 -19.883   1.191  0.00  0.00     0.069 A 
ATOM     33  C   UNL d   1      21.058 -19.289   1.087  0.00  0.00     0.060 A 
ATOM     34 CL   UNL d   1      19.362 -20.450   2.768  0.00  0.00    -0.081 Cl
BRANCH  31  35
ATOM     35  O   UNL d   1      17.753 -20.659  -0.001  0.00  0.00    -0.354 OA
ATOM     36  C   UNL d   1      17.655 -21.950   0.605  0.00  0.00     0.210 C 
ENDBRANCH  31  35
ENDBRANCH   1  28
TORSDOF 6
ENDMDL
MODEL 3
REMARK VINA RESULT:    -8.646      1.717      2.337
REMARK INTER + INTRA:         -11.274
REMARK INTER:                 -10.436
REMARK INTRA:                  -0.838
REMARK CONF_INDEPENDENT:        1.790
REMARK UNBOUND:                -0.838
REMARK  6 active torsions:
REMARK  status: ('A' for Active; 'I' for Inactive)
REMARK    1  A    between atoms: O_2  and  C_3 
REMARK    2  A    between atoms: C_6  and  N_7 
REMARK    3  A    between atoms: C_12  and  N_13 
REMARK       I    between atoms: N_13  and  C_14 
REMARK    4  A    between atoms: C_14  and  C_16 
REMARK    5  A    between atoms: C_17  and  C_18 
REMARK    6  A    between atoms: C_21  and  C_22 
ROOT
ATOM      1  N   UNL d   1      22.662 -18.304  -0.572  0.00  0.00    -0.150 N 
ATOM      2  N   UNL d   1      23.532 -18.017   0.418  0.00  0.00    -0.147 NA
ATOM      3  C   UNL d   1      24.585 -17.514  -0.242  0.00  0.00     0.109 A 
ATOM      4  C   UNL d   1      25.825 -17.115   0.261  0.00  0.00     0.038 A 
ATOM      5  C   UNL d   1      26.697 -16.545  -0.689  0.00  0.00     0.032 A 
ATOM      6  C   UNL d   1      26.414 -16.343  -2.071  0.00  0.00     0.037 A 
ATOM      7  C   UNL d   1      25.157 -16.778  -2.592  0.00  0.00     0.065 A 
ATOM      8  C   UNL d   1      24.252 -17.396  -1.661  0.00  0.00     0.111 A 
ATOM      9  N   UNL d   1      23.042 -17.972  -1.840  0.00  0.00    -0.147 NA
ENDROOT
BRANCH   6  10
ATOM     10  N   UNL d   1      27.394 -15.712  -2.936  0.00  0.00    -0.324 N 
ATOM     11  C   UNL d   1      27.133 -15.193  -4.209  0.00  0.00     0.245 C 
ATOM     12  O   UNL d   1      26.036 -15.209  -4.774  0.00  0.00    -0.268 OA
ATOM     13  H   UNL d   1      28.339 -15.646  -2.572  0.00  0.00     0.169 HD
BRANCH  11  14
ATOM     14  C   UNL d   1      28.275 -14.574  -4.961  0.00  0.00     0.077 C 
ATOM     15  C   UNL d   1      28.871 -15.311  -5.927  0.00  0.00     0.042 C 
BRANCH  15  16
ATOM     16  C   UNL d   1      29.993 -14.862  -6.692  0.00  0.00     0.076 A 
ATOM     17  C   UNL d   1      31.085 -15.585  -7.158  0.00  0.00     0.040 A 
ATOM     18  C   UNL d   1      31.892 -14.727  -7.937  0.00  0.00     0.041 A 
ATOM     19  C   UNL d   1      31.290 -13.493  -7.907  0.00  0.00     0.086 A 
ATOM     20  O   UNL d   1      30.135 -13.563  -7.174  0.00  0.00    -0.310 OA
BRANCH  19  21
ATOM     21  C   UNL d   1      31.638 -12.228  -8.543  0.00  0.00    -0.002 A 
ATOM     22  C   UNL d   1      32.969 -11.885  -8.817  0.00  0.00     0.017 A 
ATOM     23  C   UNL d   1      33.276 -10.639  -9.376  0.00  0.00     0.043 A 
ATOM     24  C   UNL d   1      32.249  -9.783  -9.760  0.00  0.00     0.116 A 
ATOM     25  F   UNL d   1      32.543  -8.580 -10.270  0.00  0.00    -0.206 F 
ATOM     26  C   UNL d   1      30.922 -10.163  -9.621  0.00  0.00     0.043 A 
ATOM     27  C   UNL d   1      30.618 -11.363  -8.974  0.00  0.00     0.017 A 
ENDBRANCH  19  21
ENDBRANCH  15  16
ENDBRANCH  11  14
ENDBRANCH   6  10
BRANCH   1  28
ATOM     28  C   UNL d   1      21.399 -18.893  -0.274  0.00  0.00     0.081 A 
ATOM     29  C   UNL d   1      20.442 -19.090  -1.271  0.00  0.00     0.036 A 
ATOM     30  C   UNL d   1      19.210 -19.696  -0.951  0.00  0.00     0.041 A 
ATOM     31  C   UNL d   1      18.893 -20.060   0.371  0.00  0.00     0.090 A 
ATOM     32  C   UNL d   1      19.880 -19.897   1.356  0.00  0.00     0.069 A 
ATOM     33  C   UNL d   1      21.125 -19.325   1.031  0.00  0.00     0.060 A 
ATOM     34 CL   UNL d   1      19.720 -20.436   2.990  0.00  0.00    -0.081 Cl
BRANCH  31  35
ATOM     35  O   UNL d   1      17.664 -20.655   0.534  0.00  0.00    -0.354 OA
ATOM     36  C   UNL d   1      17.655 -21.951   1.137  0.00  0.00     0.210 C 
ENDBRANCH  31  35
ENDBRANCH   1  28
TORSDOF 6
ENDMDL
MODEL 4
REMARK VINA RESULT:    -8.611      6.072      7.810
REMARK INTER + INTRA:         -11.238
REMARK INTER:                 -10.401
REMARK INTRA:                  -0.836
REMARK CONF_INDEPENDENT:        1.790
REMARK UNBOUND:                -0.836
REMARK  6 active torsions:
REMARK  status: ('A' for Active; 'I' for Inactive)
REMARK    1  A    between atoms: O_2  and  C_3 
REMARK    2  A    between atoms: C_6  and  N_7 
REMARK    3  A    between atoms: C_12  and  N_13 
REMARK       I    between atoms: N_13  and  C_14 
REMARK    4  A    between atoms: C_14  and  C_16 
REMARK    5  A    between atoms: C_17  and  C_18 
REMARK    6  A    between atoms: C_21  and  C_22 
ROOT
ATOM      1  N   UNL d   1      22.846 -18.242  -0.249  0.00  0.00    -0.150 N 
ATOM      2  N   UNL d   1      23.017 -17.083  -0.919  0.00  0.00    -0.147 NA
ATOM      3  C   UNL d   1      24.317 -16.815  -0.730  0.00  0.00     0.109 A 
ATOM      4  C   UNL d   1      25.047 -15.694  -1.130  0.00  0.00     0.038 A 
ATOM      5  C   UNL d   1      26.428 -15.752  -0.849  0.00  0.00     0.032 A 
ATOM      6  C   UNL d   1      27.111 -16.834  -0.222  0.00  0.00     0.037 A 
ATOM      7  C   UNL d   1      26.360 -17.967   0.214  0.00  0.00     0.065 A 
ATOM      8  C   UNL d   1      24.942 -17.932  -0.023  0.00  0.00     0.111 A 
ATOM      9  N   UNL d   1      23.957 -18.790   0.324  0.00  0.00    -0.147 NA
ENDROOT
BRANCH   6  10
ATOM     10  N   UNL d   1      28.547 -16.776  -0.022  0.00  0.00    -0.324 N 
ATOM     11  C   UNL d   1      29.506 -16.814  -1.040  0.00  0.00     0.245 C 
ATOM     12  O   UNL d   1      29.262 -16.910  -2.246  0.00  0.00    -0.268 OA
ATOM     13  H   UNL d   1      28.865 -16.700   0.938  0.00  0.00     0.169 HD
BRANCH  11  14
ATOM     14  C   UNL d   1      30.952 -16.743  -0.644  0.00  0.00     0.077 C 
ATOM     15  C   UNL d   1      31.241 -16.583   0.668  0.00  0.00     0.042 C 
BRANCH  15  16
ATOM     16  C   UNL d   1      32.572 -16.459   1.180  0.00  0.00     0.076 A 
ATOM     17  C   UNL d   1      33.710 -17.188   0.854  0.00  0.00     0.040 A 
ATOM     18  C   UNL d   1      34.806 -16.646   1.561  0.00  0.00     0.041 A 
ATOM     19  C   UNL d   1      34.309 -15.618   2.323  0.00  0.00     0.086 A 
ATOM     20  O   UNL d   1      32.966 -15.482   2.091  0.00  0.00    -0.310 OA
BRANCH  19  21
ATOM     21  C   UNL d   1      34.960 -14.678   3.228  0.00  0.00    -0.002 A 
ATOM     22  C   UNL d   1      36.023 -15.069   4.053  0.00  0.00     0.017 A 
ATOM     23  C   UNL d   1      36.590 -14.158   4.953  0.00  0.00     0.043 A 
ATOM     24  C   UNL d   1      36.168 -12.832   4.950  0.00  0.00     0.116 A 
ATOM     25  F   UNL d   1      36.691 -11.968   5.829  0.00  0.00    -0.206 F 
ATOM     26  C   UNL d   1      35.211 -12.395   4.046  0.00  0.00     0.043 A 
ATOM     27  C   UNL d   1      34.579 -13.325   3.217  0.00  0.00     0.017 A 
ENDBRANCH  19  21
ENDBRANCH  15  16
ENDBRANCH  11  14
ENDBRANCH   6  10
BRANCH   1  28
ATOM     28  C   UNL d   1      21.562 -18.857  -0.188  0.00  0.00     0.081 A 
ATOM     29  C   UNL d   1      20.809 -19.068  -1.345  0.00  0.00     0.036 A 
ATOM     30  C   UNL d   1      19.551 -19.700  -1.257  0.00  0.00     0.041 A 
ATOM     31  C   UNL d   1      19.004 -20.077  -0.017  0.00  0.00     0.090 A 
ATOM     32  C   UNL d   1      19.791 -19.900   1.133  0.00  0.00     0.069 A 
ATOM     33  C   UNL d   1      21.062 -19.302   1.043  0.00  0.00     0.060 A 
ATOM     34 CL   UNL d   1      19.344 -20.451   2.709  0.00  0.00    -0.081 Cl
BRANCH  31  35
ATOM     35  O   UNL d   1      17.779 -20.697  -0.083  0.00  0.00    -0.354 OA
ATOM     36  C   UNL d   1      17.653 -21.941   0.609  0.00  0.00     0.210 C 
ENDBRANCH  31  35
ENDBRANCH   1  28
TORSDOF 6
ENDMDL
MODEL 5
REMARK VINA RESULT:    -8.178      2.529      3.457
REMARK INTER + INTRA:         -10.781
REMARK INTER:                  -9.967
REMARK INTRA:                  -0.813
REMARK CONF_INDEPENDENT:        1.790
REMARK UNBOUND:                -0.813
REMARK  6 active torsions:
REMARK  status: ('A' for Active; 'I' for Inactive)
REMARK    1  A    between atoms: O_2  and  C_3 
REMARK    2  A    between atoms: C_6  and  N_7 
REMARK    3  A    between atoms: C_12  and  N_13 
REMARK       I    between atoms: N_13  and  C_14 
REMARK    4  A    between atoms: C_14  and  C_16 
REMARK    5  A    between atoms: C_17  and  C_18 
REMARK    6  A    between atoms: C_21  and  C_22 
ROOT
ATOM      1  N   UNL d   1      22.697 -18.301  -0.516  0.00  0.00    -0.150 N 
ATOM      2  N   UNL d   1      23.633 -18.229   0.453  0.00  0.00    -0.147 NA
ATOM      3  C   UNL d   1      24.668 -17.648  -0.171  0.00  0.00     0.109 A 
ATOM      4  C   UNL d   1      25.951 -17.388   0.316  0.00  0.00     0.038 A 
ATOM      5  C   UNL d   1      26.792 -16.683  -0.570  0.00  0.00     0.032 A 
ATOM      6  C   UNL d   1      26.440 -16.223  -1.872  0.00  0.00     0.037 A 
ATOM      7  C   UNL d   1      25.139 -16.515  -2.382  0.00  0.00     0.065 A 
ATOM      8  C   UNL d   1      24.261 -17.262  -1.522  0.00  0.00     0.111 A 
ATOM      9  N   UNL d   1      23.019 -17.756  -1.725  0.00  0.00    -0.147 NA
ENDROOT
BRANCH   6  10
ATOM     10  N   UNL d   1      27.397 -15.477  -2.669  0.00  0.00    -0.324 N 
ATOM     11  C   UNL d   1      27.316 -15.279  -4.051  0.00  0.00     0.245 C 
ATOM     12  O   UNL d   1      26.425 -15.718  -4.784  0.00  0.00    -0.268 OA
ATOM     13  H   UNL d   1      28.180 -15.071  -2.168  0.00  0.00     0.169 HD
BRANCH  11  14
ATOM     14  C   UNL d   1      28.401 -14.477  -4.710  0.00  0.00     0.077 C 
ATOM     15  C   UNL d   1      28.176 -14.017  -5.961  0.00  0.00     0.042 C 
BRANCH  15  16
ATOM     16  C   UNL d   1      29.136 -13.275  -6.721  0.00  0.00     0.076 A 
ATOM     17  C   UNL d   1      30.213 -13.739  -7.468  0.00  0.00     0.040 A 
ATOM     18  C   UNL d   1      30.823 -12.637  -8.106  0.00  0.00     0.041 A 
ATOM     19  C   UNL d   1      30.123 -11.523  -7.713  0.00  0.00     0.086 A 
ATOM     20  O   UNL d   1      29.093 -11.893  -6.891  0.00  0.00    -0.310 OA
BRANCH  19  21
ATOM     21  C   UNL d   1      30.264 -10.115  -8.065  0.00  0.00    -0.002 A 
ATOM     22  C   UNL d   1      31.464  -9.422  -7.857  0.00  0.00     0.017 A 
ATOM     23  C   UNL d   1      31.552  -8.056  -8.151  0.00  0.00     0.043 A 
ATOM     24  C   UNL d   1      30.476  -7.410  -8.752  0.00  0.00     0.116 A 
ATOM     25  F   UNL d   1      30.549  -6.097  -9.008  0.00  0.00    -0.206 F 
ATOM     26  C   UNL d   1      29.327  -8.111  -9.088  0.00  0.00     0.043 A 
ATOM     27  C   UNL d   1      29.205  -9.449  -8.706  0.00  0.00     0.017 A 
ENDBRANCH  19  21
ENDBRANCH  15  16
ENDBRANCH  11  14
ENDBRANCH   6  10
BRANCH   1  28
ATOM     28  C   UNL d   1      21.428 -18.893  -0.249  0.00  0.00     0.081 A 
ATOM     29  C   UNL d   1      20.495 -19.088  -1.270  0.00  0.00     0.036 A 
ATOM     30  C   UNL d   1      19.257 -19.697  -0.980  0.00  0.00     0.041 A 
ATOM     31  C   UNL d   1      18.909 -20.066   0.334  0.00  0.00     0.090 A 
ATOM     32  C   UNL d   1      19.873 -19.905   1.341  0.00  0.00     0.069 A 
ATOM     33  C   UNL d   1      21.124 -19.330   1.047  0.00  0.00     0.060 A 
ATOM     34 CL   UNL d   1      19.676 -20.450   2.970  0.00  0.00    -0.081 Cl
BRANCH  31  35
ATOM     35  O   UNL d   1      17.678 -20.663   0.466  0.00  0.00    -0.354 OA
ATOM     36  C   UNL d   1      17.655 -21.952   1.082  0.00  0.00     0.210 C 
ENDBRANCH  31  35
ENDBRANCH   1  28
TORSDOF 6
ENDMDL
MODEL 6
REMARK VINA RESULT:    -7.912      8.038     13.370
REMARK INTER + INTRA:         -10.594
REMARK INTER:                  -9.702
REMARK INTRA:                  -0.893
REMARK CONF_INDEPENDENT:        1.790
REMARK UNBOUND:                -0.893
REMARK  6 active torsions:
REMARK  status: ('A' for Active; 'I' for Inactive)
REMARK    1  A    between atoms: O_2  and  C_3 
REMARK    2  A    between atoms: C_6  and  N_7 
REMARK    3  A    between atoms: C_12  and  N_13 
REMARK       I    between atoms: N_13  and  C_14 
REMARK    4  A    between atoms: C_14  and  C_16 
REMARK    5  A    between atoms: C_17  and  C_18 
REMARK    6  A    between atoms: C_21  and  C_22 
ROOT
ATOM      1  N   UNL d   1      29.481 -16.709  -3.661  0.00  0.00    -0.150 N 
ATOM      2  N   UNL d   1      28.432 -15.862  -3.700  0.00  0.00    -0.147 NA
ATOM      3  C   UNL d   1      28.198 -15.613  -2.404  0.00  0.00     0.109 A 
ATOM      4  C   UNL d   1      27.173 -14.858  -1.829  0.00  0.00     0.038 A 
ATOM      5  C   UNL d   1      27.253 -14.717  -0.428  0.00  0.00     0.032 A 
ATOM      6  C   UNL d   1      28.269 -15.257   0.412  0.00  0.00     0.037 A 
ATOM      7  C   UNL d   1      29.300 -16.054  -0.172  0.00  0.00     0.065 A 
ATOM      8  C   UNL d   1      29.235 -16.250  -1.595  0.00  0.00     0.111 A 
ATOM      9  N   UNL d   1      29.995 -16.994  -2.430  0.00  0.00    -0.147 NA
ENDROOT
BRANCH   6  10
ATOM     10  N   UNL d   1      28.248 -15.007   1.842  0.00  0.00    -0.324 N 
ATOM     11  C   UNL d   1      27.446 -14.056   2.483  0.00  0.00     0.245 C 
ATOM     12  O   UNL d   1      26.654 -13.295   1.921  0.00  0.00    -0.268 OA
ATOM     13  H   UNL d   1      28.867 -15.577   2.408  0.00  0.00     0.169 HD
BRANCH  11  14
ATOM     14  C   UNL d   1      27.558 -13.937   3.975  0.00  0.00     0.077 C 
ATOM     15  C   UNL d   1      28.258 -12.894   4.476  0.00  0.00     0.042 C 
BRANCH  15  16
ATOM     16  C   UNL d   1      28.479 -12.681   5.874  0.00  0.00     0.076 A 
ATOM     17  C   UNL d   1      28.162 -11.576   6.655  0.00  0.00     0.040 A 
ATOM     18  C   UNL d   1      28.498 -11.864   7.996  0.00  0.00     0.041 A 
ATOM     19  C   UNL d   1      29.037 -13.126   8.000  0.00  0.00     0.086 A 
ATOM     20  O   UNL d   1      29.017 -13.639   6.730  0.00  0.00    -0.310 OA
BRANCH  19  21
ATOM     21  C   UNL d   1      29.534 -13.965   9.084  0.00  0.00    -0.002 A 
ATOM     22  C   UNL d   1      30.814 -14.535   9.045  0.00  0.00     0.017 A 
ATOM     23  C   UNL d   1      31.241 -15.383  10.074  0.00  0.00     0.043 A 
ATOM     24  C   UNL d   1      30.434 -15.574  11.190  0.00  0.00     0.116 A 
ATOM     25  F   UNL d   1      30.830 -16.407  12.161  0.00  0.00    -0.206 F 
ATOM     26  C   UNL d   1      29.221 -14.912  11.309  0.00  0.00     0.043 A 
ATOM     27  C   UNL d   1      28.753 -14.144  10.239  0.00  0.00     0.017 A 
ENDBRANCH  19  21
ENDBRANCH  15  16
ENDBRANCH  11  14
ENDBRANCH   6  10
BRANCH   1  28
ATOM     28  C   UNL d   1      30.026 -17.238  -4.867  0.00  0.00     0.081 A 
ATOM     29  C   UNL d   1      30.252 -16.420  -5.976  0.00  0.00     0.036 A 
ATOM     30  C   UNL d   1      30.814 -16.967  -7.148  0.00  0.00     0.041 A 
ATOM     31  C   UNL d   1      31.104 -18.340  -7.251  0.00  0.00     0.090 A 
ATOM     32  C   UNL d   1      30.915 -19.142  -6.115  0.00  0.00     0.069 A 
ATOM     33  C   UNL d   1      30.387 -18.591  -4.932  0.00  0.00     0.060 A 
ATOM     34 CL   UNL d   1      31.368 -20.807  -6.015  0.00  0.00    -0.081 Cl
BRANCH  31  35
ATOM     35  O   UNL d   1      31.663 -18.730  -8.445  0.00  0.00    -0.354 OA
ATOM     36  C   UNL d   1      30.956 -19.726  -9.187  0.00  0.00     0.210 C 
ENDBRANCH  31  35
ENDBRANCH   1  28
TORSDOF 6
ENDMDL
MODEL 7
REMARK VINA RESULT:    -7.888      2.494      2.733
REMARK INTER + INTRA:         -10.579
REMARK INTER:                  -9.677
REMARK INTRA:                  -0.902
REMARK CONF_INDEPENDENT:        1.790
REMARK UNBOUND:                -0.902
REMARK  6 active torsions:
REMARK  status: ('A' for Active; 'I' for Inactive)
REMARK    1  A    between atoms: O_2  and  C_3 
REMARK    2  A    between atoms: C_6  and  N_7 
REMARK    3  A    between atoms: C_12  and  N_13 
REMARK       I    between atoms: N_13  and  C_14 
REMARK    4  A    between atoms: C_14  and  C_16 
REMARK    5  A    between atoms: C_17  and  C_18 
REMARK    6  A    between atoms: C_21  and  C_22 
ROOT
ATOM      1  N   UNL d   1      22.726 -18.306  -0.501  0.00  0.00    -0.150 N 
ATOM      2  N   UNL d   1      23.724 -18.400   0.402  0.00  0.00    -0.147 NA
ATOM      3  C   UNL d   1      24.743 -17.778  -0.208  0.00  0.00     0.109 A 
ATOM      4  C   UNL d   1      26.064 -17.635   0.222  0.00  0.00     0.038 A 
ATOM      5  C   UNL d   1      26.879 -16.846  -0.617  0.00  0.00     0.032 A 
ATOM      6  C   UNL d   1      26.468 -16.200  -1.819  0.00  0.00     0.037 A 
ATOM      7  C   UNL d   1      25.125 -16.372  -2.274  0.00  0.00     0.065 A 
ATOM      8  C   UNL d   1      24.270 -17.197  -1.463  0.00  0.00     0.111 A 
ATOM      9  N   UNL d   1      22.997 -17.613  -1.645  0.00  0.00    -0.147 NA
ENDROOT
BRANCH   6  10
ATOM     10  N   UNL d   1      27.406 -15.388  -2.573  0.00  0.00    -0.324 N 
ATOM     11  C   UNL d   1      27.330 -15.132  -3.946  0.00  0.00     0.245 C 
ATOM     12  O   UNL d   1      26.462 -15.569  -4.706  0.00  0.00    -0.268 OA
ATOM     13  H   UNL d   1      28.169 -14.977  -2.046  0.00  0.00     0.169 HD
BRANCH  11  14
ATOM     14  C   UNL d   1      28.393 -14.265  -4.557  0.00  0.00     0.077 C 
ATOM     15  C   UNL d   1      29.320 -14.860  -5.342  0.00  0.00     0.042 C 
BRANCH  15  16
ATOM     16  C   UNL d   1      30.410 -14.163  -5.954  0.00  0.00     0.076 A 
ATOM     17  C   UNL d   1      30.647 -13.912  -7.300  0.00  0.00     0.040 A 
ATOM     18  C   UNL d   1      31.808 -13.115  -7.409  0.00  0.00     0.041 A 
ATOM     19  C   UNL d   1      32.270 -12.921  -6.131  0.00  0.00     0.086 A 
ATOM     20  O   UNL d   1      31.427 -13.533  -5.241  0.00  0.00    -0.310 OA
BRANCH  19  21
ATOM     21  C   UNL d   1      33.403 -12.164  -5.613  0.00  0.00    -0.002 A 
ATOM     22  C   UNL d   1      33.468 -11.765  -4.271  0.00  0.00     0.017 A 
ATOM     23  C   UNL d   1      34.541 -10.989  -3.816  0.00  0.00     0.043 A 
ATOM     24  C   UNL d   1      35.600 -10.707  -4.673  0.00  0.00     0.116 A 
ATOM     25  F   UNL d   1      36.613  -9.943  -4.247  0.00  0.00    -0.206 F 
ATOM     26  C   UNL d   1      35.617 -11.208  -5.967  0.00  0.00     0.043 A 
ATOM     27  C   UNL d   1      34.502 -11.898  -6.448  0.00  0.00     0.017 A 
ENDBRANCH  19  21
ENDBRANCH  15  16
ENDBRANCH  11  14
ENDBRANCH   6  10
BRANCH   1  28
ATOM     28  C   UNL d   1      21.451 -18.882  -0.230  0.00  0.00     0.081 A 
ATOM     29  C   UNL d   1      20.509 -19.056  -1.245  0.00  0.00     0.036 A 
ATOM     30  C   UNL d   1      19.264 -19.650  -0.951  0.00  0.00     0.041 A 
ATOM     31  C   UNL d   1      18.920 -20.024   0.361  0.00  0.00     0.090 A 
ATOM     32  C   UNL d   1      19.894 -19.885   1.363  0.00  0.00     0.069 A 
ATOM     33  C   UNL d   1      21.150 -19.325   1.065  0.00  0.00     0.060 A 
ATOM     34 CL   UNL d   1      19.700 -20.440   2.989  0.00  0.00    -0.081 Cl
BRANCH  31  35
ATOM     35  O   UNL d   1      17.682 -20.605   0.497  0.00  0.00    -0.354 OA
ATOM     36  C   UNL d   1      17.655 -21.952   0.976  0.00  0.00     0.210 C 
ENDBRANCH  31  35
ENDBRANCH   1  28
TORSDOF 6
ENDMDL
MODEL 8
REMARK VINA RESULT:    -7.859      5.792     14.230
REMARK INTER + INTRA:         -10.591
REMARK INTER:                  -9.649
REMARK INTRA:                  -0.943
REMARK CONF_INDEPENDENT:        1.790
REMARK UNBOUND:                -0.943
REMARK  6 active torsions:
REMARK  status: ('A' for Active; 'I' for Inactive)
REMARK    1  A    between atoms: O_2  and  C_3 
REMARK    2  A    between atoms: C_6  and  N_7 
REMARK    3  A    between atoms: C_12  and  N_13 
REMARK       I    between atoms: N_13  and  C_14 
REMARK    4  A    between atoms: C_14  and  C_16 
REMARK    5  A    between atoms: C_17  and  C_18 
REMARK    6  A    between atoms: C_21  and  C_22 
ROOT
ATOM      1  N   UNL d   1      31.504 -12.856  -7.173  0.00  0.00    -0.150 N 
ATOM      2  N   UNL d   1      30.445 -12.059  -7.423  0.00  0.00    -0.147 NA
ATOM      3  C   UNL d   1      29.495 -12.560  -6.621  0.00  0.00     0.109 A 
ATOM      4  C   UNL d   1      28.154 -12.184  -6.511  0.00  0.00     0.038 A 
ATOM      5  C   UNL d   1      27.429 -12.856  -5.506  0.00  0.00     0.032 A 
ATOM      6  C   UNL d   1      27.945 -13.846  -4.619  0.00  0.00     0.037 A 
ATOM      7  C   UNL d   1      29.307 -14.252  -4.752  0.00  0.00     0.065 A 
ATOM      8  C   UNL d   1      30.073 -13.614  -5.789  0.00  0.00     0.111 A 
ATOM      9  N   UNL d   1      31.338 -13.817  -6.219  0.00  0.00    -0.147 NA
ENDROOT
BRANCH   6  10
ATOM     10  N   UNL d   1      27.092 -14.436  -3.604  0.00  0.00    -0.324 N 
ATOM     11  C   UNL d   1      25.730 -14.716  -3.757  0.00  0.00     0.245 C 
ATOM     12  O   UNL d   1      25.065 -14.491  -4.772  0.00  0.00    -0.268 OA
ATOM     13  H   UNL d   1      27.535 -14.661  -2.719  0.00  0.00     0.169 HD
BRANCH  11  14
ATOM     14  C   UNL d   1      25.006 -15.331  -2.594  0.00  0.00     0.077 C 
ATOM     15  C   UNL d   1      25.123 -16.666  -2.410  0.00  0.00     0.042 C 
BRANCH  15  16
ATOM     16  C   UNL d   1      24.456 -17.387  -1.370  0.00  0.00     0.076 A 
ATOM     17  C   UNL d   1      24.896 -17.682  -0.084  0.00  0.00     0.040 A 
ATOM     18  C   UNL d   1      23.855 -18.343   0.604  0.00  0.00     0.041 A 
ATOM     19  C   UNL d   1      22.814 -18.463  -0.283  0.00  0.00     0.086 A 
ATOM     20  O   UNL d   1      23.156 -17.876  -1.473  0.00  0.00    -0.310 OA
BRANCH  19  21
ATOM     21  C   UNL d   1      21.476 -19.023  -0.140  0.00  0.00    -0.002 A 
ATOM     22  C   UNL d   1      20.932 -19.314   1.118  0.00  0.00     0.017 A 
ATOM     23  C   UNL d   1      19.667 -19.905   1.221  0.00  0.00     0.043 A 
ATOM     24  C   UNL d   1      18.904 -20.106   0.076  0.00  0.00     0.116 A 
ATOM     25  F   UNL d   1      17.706 -20.696   0.171  0.00  0.00    -0.206 F 
ATOM     26  C   UNL d   1      19.371 -19.700  -1.167  0.00  0.00     0.043 A 
ATOM     27  C   UNL d   1      20.671 -19.201  -1.279  0.00  0.00     0.017 A 
ENDBRANCH  19  21
ENDBRANCH  15  16
ENDBRANCH  11  14
ENDBRANCH   6  10
BRANCH   1  28
ATOM     28  C   UNL d   1      32.735 -12.659  -7.865  0.00  0.00     0.081 A 
ATOM     29  C   UNL d   1      32.850 -12.945  -9.226  0.00  0.00     0.036 A 
ATOM     30  C   UNL d   1      34.074 -12.718  -9.889  0.00  0.00     0.041 A 
ATOM     31  C   UNL d   1      35.210 -12.258  -9.195  0.00  0.00     0.090 A 
ATOM     32  C   UNL d   1      35.067 -11.932  -7.838  0.00  0.00     0.069 A 
ATOM     33  C   UNL d   1      33.836 -12.124  -7.183  0.00  0.00     0.060 A 
ATOM     34 CL   UNL d   1      36.309 -11.207  -6.878  0.00  0.00    -0.081 Cl
BRANCH  31  35
ATOM     35  O   UNL d   1      36.329 -12.067  -9.971  0.00  0.00    -0.354 OA
ATOM     36  C   UNL d   1      36.729 -10.713 -10.194  0.00  0.00     0.210 C 
ENDBRANCH  31  35
ENDBRANCH   1  28
TORSDOF 6
ENDMDL
MODEL 9
REMARK VINA RESULT:    -7.728      8.112     12.263
REMARK INTER + INTRA:         -10.522
REMARK INTER:                  -9.518
REMARK INTRA:                  -1.004
REMARK CONF_INDEPENDENT:        1.790
REMARK UNBOUND:                -1.004
REMARK  6 active torsions:
REMARK  status: ('A' for Active; 'I' for Inactive)
REMARK    1  A    between atoms: O_2  and  C_3 
REMARK    2  A    between atoms: C_6  and  N_7 
REMARK    3  A    between atoms: C_12  and  N_13 
REMARK       I    between atoms: N_13  and  C_14 
REMARK    4  A    between atoms: C_14  and  C_16 
REMARK    5  A    between atoms: C_17  and  C_18 
REMARK    6  A    between atoms: C_21  and  C_22 
ROOT
ATOM      1  N   UNL d   1      29.454 -15.449  -6.289  0.00  0.00    -0.150 N 
ATOM      2  N   UNL d   1      28.579 -15.947  -5.391  0.00  0.00    -0.147 NA
ATOM      3  C   UNL d   1      27.828 -14.882  -5.078  0.00  0.00     0.109 A 
ATOM      4  C   UNL d   1      26.806 -14.778  -4.133  0.00  0.00     0.038 A 
ATOM      5  C   UNL d   1      26.148 -13.531  -4.102  0.00  0.00     0.032 A 
ATOM      6  C   UNL d   1      26.431 -12.413  -4.940  0.00  0.00     0.037 A 
ATOM      7  C   UNL d   1      27.496 -12.509  -5.887  0.00  0.00     0.065 A 
ATOM      8  C   UNL d   1      28.215 -13.754  -5.925  0.00  0.00     0.111 A 
ATOM      9  N   UNL d   1      29.299 -14.138  -6.636  0.00  0.00    -0.147 NA
ENDROOT
BRANCH   6  10
ATOM     10  N   UNL d   1      25.652 -11.194  -4.825  0.00  0.00    -0.324 N 
ATOM     11  C   UNL d   1      26.012 -10.075  -4.067  0.00  0.00     0.245 C 
ATOM     12  O   UNL d   1      27.037  -9.973  -3.387  0.00  0.00    -0.268 OA
ATOM     13  H   UNL d   1      24.780 -11.167  -5.343  0.00  0.00     0.169 HD
BRANCH  11  14
ATOM     14  C   UNL d   1      25.078  -8.899  -4.066  0.00  0.00     0.077 C 
ATOM     15  C   UNL d   1      24.523  -8.532  -5.244  0.00  0.00     0.042 C 
BRANCH  15  16
ATOM     16  C   UNL d   1      23.649  -7.408  -5.395  0.00  0.00     0.076 A 
ATOM     17  C   UNL d   1      23.745  -6.139  -4.836  0.00  0.00     0.040 A 
ATOM     18  C   UNL d   1      22.693  -5.346  -5.344  0.00  0.00     0.041 A 
ATOM     19  C   UNL d   1      21.963  -6.154  -6.179  0.00  0.00     0.086 A 
ATOM     20  O   UNL d   1      22.537  -7.397  -6.234  0.00  0.00    -0.310 OA
BRANCH  19  21
ATOM     21  C   UNL d   1      20.791  -5.890  -7.005  0.00  0.00    -0.002 A 
ATOM     22  C   UNL d   1      19.856  -4.904  -6.661  0.00  0.00     0.017 A 
ATOM     23  C   UNL d   1      18.711  -4.713  -7.444  0.00  0.00     0.043 A 
ATOM     24  C   UNL d   1      18.555  -5.430  -8.625  0.00  0.00     0.116 A 
ATOM     25  F   UNL d   1      17.447  -5.268  -9.359  0.00  0.00    -0.206 F 
ATOM     26  C   UNL d   1      19.536  -6.314  -9.052  0.00  0.00     0.043 A 
ATOM     27  C   UNL d   1      20.629  -6.575  -8.222  0.00  0.00     0.017 A 
ENDBRANCH  19  21
ENDBRANCH  15  16
ENDBRANCH  11  14
ENDBRANCH   6  10
BRANCH   1  28
ATOM     28  C   UNL d   1      30.459 -16.284  -6.857  0.00  0.00     0.081 A 
ATOM     29  C   UNL d   1      31.528 -15.741  -7.572  0.00  0.00     0.036 A 
ATOM     30  C   UNL d   1      32.521 -16.591  -8.102  0.00  0.00     0.041 A 
ATOM     31  C   UNL d   1      32.432 -17.990  -7.977  0.00  0.00     0.090 A 
ATOM     32  C   UNL d   1      31.377 -18.520  -7.218  0.00  0.00     0.069 A 
ATOM     33  C   UNL d   1      30.405 -17.670  -6.657  0.00  0.00     0.060 A 
ATOM     34 CL   UNL d   1      31.207 -20.195  -6.829  0.00  0.00    -0.081 Cl
BRANCH  31  35
ATOM     35  O   UNL d   1      33.477 -18.692  -8.529  0.00  0.00    -0.354 OA
ATOM     36  C   UNL d   1      33.349 -19.057  -9.905  0.00  0.00     0.210 C 
ENDBRANCH  31  35
ENDBRANCH   1  28
TORSDOF 6
ENDMDL
