MODEL 1
REMARK VINA RESULT:    -9.468      0.000      0.000
REMARK INTER + INTRA:         -16.165
REMARK INTER:                 -13.645
REMARK INTRA:                  -2.521
REMARK CONF_INDEPENDENT:        4.176
REMARK UNBOUND:                -2.521
REMARK  14 active torsions:
REMARK  status: ('A' for Active; 'I' for Inactive)
REMARK    1  A    between atoms: C_2  and  C_3 
REMARK    2  A    between atoms: C_3  and  C_4 
REMARK    3  A    between atoms: C_3  and  C_6 
REMARK    4  A    between atoms: C_9  and  O_10 
REMARK    5  A    between atoms: O_10  and  C_11 
REMARK    6  A    between atoms: C_11  and  C_12 
REMARK       I    between atoms: C_12  and  N_14 
REMARK    7  A    between atoms: N_14  and  N_15 
REMARK    8  A    between atoms: C_16  and  C_17 
REMARK    9  A    between atoms: C_19  and  N_20 
REMARK   10  A    between atoms: C_25  and  N_26 
REMARK   11  A    between atoms: N_26  and  C_27 
REMARK   12  A    between atoms: N_26  and  C_31 
REMARK   13  A    between atoms: C_27  and  C_28 
REMARK   14  A    between atoms: C_31  and  C_32 
ROOT
ATOM      1  N   UNL d   1      26.871 -12.955   0.887  0.00  0.00    -0.184 NA
ATOM      2  C   UNL d   1      26.952 -12.920   2.182  0.00  0.00     0.152 C 
ENDROOT
BRANCH   2   3
ATOM      3  C   UNL d   1      27.045 -11.619   2.949  0.00  0.00     0.012 C 
ATOM      4  C   UNL d   1      26.293 -10.521   2.414  0.00  0.00     0.051 C 
ATOM      5  C   UNL d   1      26.401  -9.221   2.951  0.00  0.00     0.103 C 
ATOM      6  C   UNL d   1      27.215  -8.998   4.018  0.00  0.00     0.038 C 
ATOM      7  C   UNL d   1      28.066 -10.026   4.351  0.00  0.00     0.033 C 
ATOM      8  C   UNL d   1      27.980 -11.399   4.002  0.00  0.00     0.042 C 
BRANCH   5   9
ATOM      9  N   UNL d   1      25.902  -8.010   2.303  0.00  0.00    -0.116 N 
ATOM     10  O   UNL d   1      26.183  -6.924   2.851  0.00  0.00    -0.532 OA
ATOM     11  O   UNL d   1      25.179  -8.128   1.312  0.00  0.00    -0.532 OA
ENDBRANCH   5   9
BRANCH   8  12
ATOM     12  N   UNL d   1      28.802 -12.341   4.670  0.00  0.00    -0.379 N 
BRANCH  12  13
ATOM     13  C   UNL d   1      30.121 -12.833   4.185  0.00  0.00     0.126 C 
BRANCH  13  14
ATOM     14  C   UNL d   1      30.416 -12.941   2.715  0.00  0.00    -0.005 C 
ATOM     15  C   UNL d   1      30.470 -11.519   2.089  0.00  0.00     0.011 C 
ATOM     16  C   UNL d   1      31.708 -13.647   2.390  0.00  0.00     0.011 C 
ENDBRANCH  13  14
ENDBRANCH  12  13
BRANCH  12  17
ATOM     17  C   UNL d   1      28.659 -12.493   6.149  0.00  0.00     0.126 C 
BRANCH  17  18
ATOM     18  C   UNL d   1      28.902 -13.869   6.817  0.00  0.00    -0.005 C 
ATOM     19  C   UNL d   1      28.562 -15.028   5.864  0.00  0.00     0.011 C 
ATOM     20  C   UNL d   1      30.387 -14.076   7.167  0.00  0.00     0.011 C 
ENDBRANCH  17  18
ENDBRANCH  12  17
ENDBRANCH   8  12
ENDBRANCH   2   3
BRANCH   1  21
ATOM     21  N   UNL d   1      26.423 -14.092   0.221  0.00  0.00    -0.246 N 
ATOM     22  C   UNL d   1      27.265 -15.228   0.260  0.00  0.00     0.261 C 
ATOM     23  O   UNL d   1      28.324 -15.253   0.892  0.00  0.00    -0.269 OA
ATOM     24  H   UNL d   1      25.691 -14.001  -0.477  0.00  0.00     0.192 HD
BRANCH  22  25
ATOM     25  C   UNL d   1      26.797 -16.460  -0.552  0.00  0.00     0.280 C 
BRANCH  25  26
ATOM     26  O   UNL d   1      25.561 -16.216  -1.254  0.00  0.00    -0.342 OA
BRANCH  26  27
ATOM     27  C   UNL d   1      24.483 -17.002  -0.934  0.00  0.00     0.069 A 
ATOM     28  C   UNL d   1      24.703 -18.376  -0.766  0.00  0.00     0.037 A 
ATOM     29  C   UNL d   1      23.636 -19.257  -0.493  0.00  0.00     0.010 A 
ATOM     30  C   UNL d   1      22.329 -18.772  -0.318  0.00  0.00    -0.054 A 
ATOM     31  C   UNL d   1      22.146 -17.389  -0.473  0.00  0.00     0.010 A 
ATOM     32  C   UNL d   1      23.195 -16.522  -0.772  0.00  0.00     0.037 A 
BRANCH  30  33
ATOM     33  C   UNL d   1      21.160 -19.696   0.094  0.00  0.00     0.018 C 
BRANCH  33  34
ATOM     34  C   UNL d   1      20.637 -19.323   1.510  0.00  0.00     0.005 C 
ATOM     35  C   UNL d   1      19.885 -20.373   2.301  0.00  0.00     0.006 C 
ENDBRANCH  33  34
BRANCH  33  36
ATOM     36  C   UNL d   1      20.053 -19.687  -0.988  0.00  0.00     0.005 C 
ATOM     37  C   UNL d   1      18.660 -20.083  -0.516  0.00  0.00     0.006 C 
ENDBRANCH  33  36
ENDBRANCH  30  33
ENDBRANCH  26  27
ENDBRANCH  25  26
ENDBRANCH  22  25
ENDBRANCH   1  21
TORSDOF 14
ENDMDL
MODEL 2
REMARK VINA RESULT:    -9.269      1.140      2.253
REMARK INTER + INTRA:         -15.547
REMARK INTER:                 -13.445
REMARK INTRA:                  -2.102
REMARK CONF_INDEPENDENT:        4.176
REMARK UNBOUND:                -2.102
REMARK  14 active torsions:
REMARK  status: ('A' for Active; 'I' for Inactive)
REMARK    1  A    between atoms: C_2  and  C_3 
REMARK    2  A    between atoms: C_3  and  C_4 
REMARK    3  A    between atoms: C_3  and  C_6 
REMARK    4  A    between atoms: C_9  and  O_10 
REMARK    5  A    between atoms: O_10  and  C_11 
REMARK    6  A    between atoms: C_11  and  C_12 
REMARK       I    between atoms: C_12  and  N_14 
REMARK    7  A    between atoms: N_14  and  N_15 
REMARK    8  A    between atoms: C_16  and  C_17 
REMARK    9  A    between atoms: C_19  and  N_20 
REMARK   10  A    between atoms: C_25  and  N_26 
REMARK   11  A    between atoms: N_26  and  C_27 
REMARK   12  A    between atoms: N_26  and  C_31 
REMARK   13  A    between atoms: C_27  and  C_28 
REMARK   14  A    between atoms: C_31  and  C_32 
ROOT
ATOM      1  N   UNL d   1      26.581 -12.610   0.960  0.00  0.00    -0.184 NA
ATOM      2  C   UNL d   1      27.355 -12.393   1.979  0.00  0.00     0.152 C 
ENDROOT
BRANCH   2   3
ATOM      3  C   UNL d   1      27.223 -11.157   2.843  0.00  0.00     0.012 C 
ATOM      4  C   UNL d   1      26.508 -10.059   2.260  0.00  0.00     0.051 C 
ATOM      5  C   UNL d   1      26.432  -8.804   2.901  0.00  0.00     0.103 C 
ATOM      6  C   UNL d   1      27.026  -8.629   4.113  0.00  0.00     0.038 C 
ATOM      7  C   UNL d   1      27.870  -9.636   4.520  0.00  0.00     0.033 C 
ATOM      8  C   UNL d   1      27.939 -10.977   4.062  0.00  0.00     0.042 C 
BRANCH   5   9
ATOM      9  N   UNL d   1      25.978  -7.571   2.262  0.00  0.00    -0.116 N 
ATOM     10  O   UNL d   1      25.414  -7.689   1.154  0.00  0.00    -0.532 OA
ATOM     11  O   UNL d   1      26.239  -6.496   2.804  0.00  0.00    -0.532 OA
ENDBRANCH   5   9
BRANCH   8  12
ATOM     12  N   UNL d   1      28.689 -11.929   4.799  0.00  0.00    -0.379 N 
BRANCH  12  13
ATOM     13  C   UNL d   1      28.276 -12.537   6.093  0.00  0.00     0.126 C 
BRANCH  13  14
ATOM     14  C   UNL d   1      28.770 -11.989   7.402  0.00  0.00    -0.005 C 
ATOM     15  C   UNL d   1      29.810 -12.969   8.016  0.00  0.00     0.011 C 
ATOM     16  C   UNL d   1      29.410 -10.627   7.305  0.00  0.00     0.011 C 
ENDBRANCH  13  14
ENDBRANCH  12  13
BRANCH  12  17
ATOM     17  C   UNL d   1      29.676 -12.781   4.070  0.00  0.00     0.126 C 
BRANCH  17  18
ATOM     18  C   UNL d   1      29.360 -14.271   3.792  0.00  0.00    -0.005 C 
ATOM     19  C   UNL d   1      30.076 -15.196   4.792  0.00  0.00     0.011 C 
ATOM     20  C   UNL d   1      27.864 -14.580   3.978  0.00  0.00     0.011 C 
ENDBRANCH  17  18
ENDBRANCH  12  17
ENDBRANCH   8  12
ENDBRANCH   2   3
BRANCH   1  21
ATOM     21  N   UNL d   1      26.456 -13.881   0.405  0.00  0.00    -0.246 N 
ATOM     22  C   UNL d   1      26.320 -13.953  -1.000  0.00  0.00     0.261 C 
ATOM     23  O   UNL d   1      26.361 -12.957  -1.728  0.00  0.00    -0.269 OA
ATOM     24  H   UNL d   1      26.189 -14.657   1.003  0.00  0.00     0.192 HD
BRANCH  22  25
ATOM     25  C   UNL d   1      26.098 -15.364  -1.599  0.00  0.00     0.280 C 
BRANCH  25  26
ATOM     26  O   UNL d   1      26.036 -16.386  -0.583  0.00  0.00    -0.342 OA
BRANCH  26  27
ATOM     27  C   UNL d   1      24.872 -17.102  -0.474  0.00  0.00     0.069 A 
ATOM     28  C   UNL d   1      24.971 -18.479  -0.232  0.00  0.00     0.037 A 
ATOM     29  C   UNL d   1      23.821 -19.293  -0.165  0.00  0.00     0.010 A 
ATOM     30  C   UNL d   1      22.537 -18.734  -0.276  0.00  0.00    -0.054 A 
ATOM     31  C   UNL d   1      22.471 -17.350  -0.498  0.00  0.00     0.010 A 
ATOM     32  C   UNL d   1      23.608 -16.550  -0.594  0.00  0.00     0.037 A 
BRANCH  30  33
ATOM     33  C   UNL d   1      21.256 -19.580  -0.092  0.00  0.00     0.018 C 
BRANCH  33  34
ATOM     34  C   UNL d   1      20.624 -19.325   1.306  0.00  0.00     0.005 C 
ATOM     35  C   UNL d   1      19.722 -20.390   1.893  0.00  0.00     0.006 C 
ENDBRANCH  33  34
BRANCH  33  36
ATOM     36  C   UNL d   1      20.271 -19.334  -1.261  0.00  0.00     0.005 C 
ATOM     37  C   UNL d   1      18.793 -19.334  -0.895  0.00  0.00     0.006 C 
ENDBRANCH  33  36
ENDBRANCH  30  33
ENDBRANCH  26  27
ENDBRANCH  25  26
ENDBRANCH  22  25
ENDBRANCH   1  21
TORSDOF 14
ENDMDL
MODEL 3
REMARK VINA RESULT:    -9.037      4.919      8.805
REMARK INTER + INTRA:         -16.019
REMARK INTER:                 -13.213
REMARK INTRA:                  -2.806
REMARK CONF_INDEPENDENT:        4.176
REMARK UNBOUND:                -2.806
REMARK  14 active torsions:
REMARK  status: ('A' for Active; 'I' for Inactive)
REMARK    1  A    between atoms: C_2  and  C_3 
REMARK    2  A    between atoms: C_3  and  C_4 
REMARK    3  A    between atoms: C_3  and  C_6 
REMARK    4  A    between atoms: C_9  and  O_10 
REMARK    5  A    between atoms: O_10  and  C_11 
REMARK    6  A    between atoms: C_11  and  C_12 
REMARK       I    between atoms: C_12  and  N_14 
REMARK    7  A    between atoms: N_14  and  N_15 
REMARK    8  A    between atoms: C_16  and  C_17 
REMARK    9  A    between atoms: C_19  and  N_20 
REMARK   10  A    between atoms: C_25  and  N_26 
REMARK   11  A    between atoms: N_26  and  C_27 
REMARK   12  A    between atoms: N_26  and  C_31 
REMARK   13  A    between atoms: C_27  and  C_28 
REMARK   14  A    between atoms: C_31  and  C_32 
ROOT
ATOM      1  N   UNL d   1      25.087 -14.949  -3.275  0.00  0.00    -0.184 NA
ATOM      2  C   UNL d   1      25.415 -15.259  -2.058  0.00  0.00     0.152 C 
ENDROOT
BRANCH   2   3
ATOM      3  C   UNL d   1      24.994 -16.563  -1.416  0.00  0.00     0.012 C 
ATOM      4  C   UNL d   1      23.636 -16.963  -1.645  0.00  0.00     0.051 C 
ATOM      5  C   UNL d   1      23.076 -18.083  -0.993  0.00  0.00     0.103 C 
ATOM      6  C   UNL d   1      23.842 -18.821  -0.145  0.00  0.00     0.038 C 
ATOM      7  C   UNL d   1      25.056 -18.275   0.201  0.00  0.00     0.033 C 
ATOM      8  C   UNL d   1      25.791 -17.255  -0.459  0.00  0.00     0.042 C 
BRANCH   5   9
ATOM      9  N   UNL d   1      21.648 -18.389  -0.947  0.00  0.00    -0.116 N 
ATOM     10  O   UNL d   1      21.330 -19.593  -1.043  0.00  0.00    -0.532 OA
ATOM     11  O   UNL d   1      20.847 -17.455  -0.895  0.00  0.00    -0.532 OA
ENDBRANCH   5   9
BRANCH   8  12
ATOM     12  N   UNL d   1      27.144 -17.026  -0.099  0.00  0.00    -0.379 N 
BRANCH  12  13
ATOM     13  C   UNL d   1      28.296 -17.010  -1.041  0.00  0.00     0.126 C 
BRANCH  13  14
ATOM     14  C   UNL d   1      29.701 -17.223  -0.553  0.00  0.00    -0.005 C 
ATOM     15  C   UNL d   1      30.441 -18.200  -1.509  0.00  0.00     0.011 C 
ATOM     16  C   UNL d   1      30.520 -15.962  -0.443  0.00  0.00     0.011 C 
ENDBRANCH  13  14
ENDBRANCH  12  13
BRANCH  12  17
ATOM     17  C   UNL d   1      27.431 -16.257   1.149  0.00  0.00     0.126 C 
BRANCH  17  18
ATOM     18  C   UNL d   1      27.823 -14.761   1.067  0.00  0.00    -0.005 C 
ATOM     19  C   UNL d   1      26.643 -13.892   0.595  0.00  0.00     0.011 C 
ATOM     20  C   UNL d   1      28.195 -14.195   2.449  0.00  0.00     0.011 C 
ENDBRANCH  17  18
ENDBRANCH  12  17
ENDBRANCH   8  12
ENDBRANCH   2   3
BRANCH   1  21
ATOM     21  N   UNL d   1      25.764 -13.953  -3.975  0.00  0.00    -0.246 N 
ATOM     22  C   UNL d   1      26.580 -14.373  -5.050  0.00  0.00     0.261 C 
ATOM     23  O   UNL d   1      26.664 -15.551  -5.407  0.00  0.00    -0.269 OA
ATOM     24  H   UNL d   1      25.881 -13.041  -3.547  0.00  0.00     0.192 HD
BRANCH  22  25
ATOM     25  C   UNL d   1      27.392 -13.267  -5.769  0.00  0.00     0.280 C 
BRANCH  25  26
ATOM     26  O   UNL d   1      28.806 -13.365  -5.500  0.00  0.00    -0.342 OA
BRANCH  26  27
ATOM     27  C   UNL d   1      29.401 -14.589  -5.668  0.00  0.00     0.069 A 
ATOM     28  C   UNL d   1      29.564 -15.397  -4.534  0.00  0.00     0.037 A 
ATOM     29  C   UNL d   1      30.218 -16.644  -4.615  0.00  0.00     0.010 A 
ATOM     30  C   UNL d   1      30.670 -17.141  -5.850  0.00  0.00    -0.054 A 
ATOM     31  C   UNL d   1      30.474 -16.316  -6.969  0.00  0.00     0.010 A 
ATOM     32  C   UNL d   1      29.854 -15.071  -6.884  0.00  0.00     0.037 A 
BRANCH  30  33
ATOM     33  C   UNL d   1      31.287 -18.551  -5.990  0.00  0.00     0.018 C 
BRANCH  33  34
ATOM     34  C   UNL d   1      30.400 -19.613  -5.279  0.00  0.00     0.005 C 
ATOM     35  C   UNL d   1      31.075 -20.825  -4.672  0.00  0.00     0.006 C 
ENDBRANCH  33  34
BRANCH  33  36
ATOM     36  C   UNL d   1      31.558 -18.880  -7.479  0.00  0.00     0.005 C 
ATOM     37  C   UNL d   1      30.785 -20.062  -8.049  0.00  0.00     0.006 C 
ENDBRANCH  33  36
ENDBRANCH  30  33
ENDBRANCH  26  27
ENDBRANCH  25  26
ENDBRANCH  22  25
ENDBRANCH   1  21
TORSDOF 14
ENDMDL
MODEL 4
REMARK VINA RESULT:    -8.886      0.817      2.534
REMARK INTER + INTRA:         -15.702
REMARK INTER:                 -13.062
REMARK INTRA:                  -2.640
REMARK CONF_INDEPENDENT:        4.176
REMARK UNBOUND:                -2.640
REMARK  14 active torsions:
REMARK  status: ('A' for Active; 'I' for Inactive)
REMARK    1  A    between atoms: C_2  and  C_3 
REMARK    2  A    between atoms: C_3  and  C_4 
REMARK    3  A    between atoms: C_3  and  C_6 
REMARK    4  A    between atoms: C_9  and  O_10 
REMARK    5  A    between atoms: O_10  and  C_11 
REMARK    6  A    between atoms: C_11  and  C_12 
REMARK       I    between atoms: C_12  and  N_14 
REMARK    7  A    between atoms: N_14  and  N_15 
REMARK    8  A    between atoms: C_16  and  C_17 
REMARK    9  A    between atoms: C_19  and  N_20 
REMARK   10  A    between atoms: C_25  and  N_26 
REMARK   11  A    between atoms: N_26  and  C_27 
REMARK   12  A    between atoms: N_26  and  C_31 
REMARK   13  A    between atoms: C_27  and  C_28 
REMARK   14  A    between atoms: C_31  and  C_32 
ROOT
ATOM      1  N   UNL d   1      27.088 -12.997   0.762  0.00  0.00    -0.184 NA
ATOM      2  C   UNL d   1      27.321 -12.869   2.032  0.00  0.00     0.152 C 
ENDROOT
BRANCH   2   3
ATOM      3  C   UNL d   1      27.520 -11.517   2.683  0.00  0.00     0.012 C 
ATOM      4  C   UNL d   1      26.540 -10.519   2.365  0.00  0.00     0.051 C 
ATOM      5  C   UNL d   1      26.683  -9.182   2.793  0.00  0.00     0.103 C 
ATOM      6  C   UNL d   1      27.758  -8.827   3.547  0.00  0.00     0.038 C 
ATOM      7  C   UNL d   1      28.763  -9.761   3.640  0.00  0.00     0.033 C 
ATOM      8  C   UNL d   1      28.706 -11.156   3.387  0.00  0.00     0.042 C 
BRANCH   5   9
ATOM      9  N   UNL d   1      25.898  -8.059   2.285  0.00  0.00    -0.116 N 
ATOM     10  O   UNL d   1      25.097  -8.308   1.360  0.00  0.00    -0.532 OA
ATOM     11  O   UNL d   1      26.121  -6.934   2.734  0.00  0.00    -0.532 OA
ENDBRANCH   5   9
BRANCH   8  12
ATOM     12  N   UNL d   1      29.777 -11.986   3.803  0.00  0.00    -0.379 N 
BRANCH  12  13
ATOM     13  C   UNL d   1      29.656 -13.162   4.707  0.00  0.00     0.126 C 
BRANCH  13  14
ATOM     14  C   UNL d   1      28.311 -13.714   5.087  0.00  0.00    -0.005 C 
ATOM     15  C   UNL d   1      28.454 -15.213   5.474  0.00  0.00     0.011 C 
ATOM     16  C   UNL d   1      27.644 -12.995   6.232  0.00  0.00     0.011 C 
ENDBRANCH  13  14
ENDBRANCH  12  13
BRANCH  12  17
ATOM     17  C   UNL d   1      30.996 -12.065   2.944  0.00  0.00     0.126 C 
BRANCH  17  18
ATOM     18  C   UNL d   1      30.858 -12.281   1.417  0.00  0.00    -0.005 C 
ATOM     19  C   UNL d   1      30.082 -11.131   0.750  0.00  0.00     0.011 C 
ATOM     20  C   UNL d   1      32.229 -12.283   0.716  0.00  0.00     0.011 C 
ENDBRANCH  17  18
ENDBRANCH  12  17
ENDBRANCH   8  12
ENDBRANCH   2   3
BRANCH   1  21
ATOM     21  N   UNL d   1      26.550 -14.171   0.240  0.00  0.00    -0.246 N 
ATOM     22  C   UNL d   1      27.369 -15.322   0.287  0.00  0.00     0.261 C 
ATOM     23  O   UNL d   1      28.488 -15.328   0.807  0.00  0.00    -0.269 OA
ATOM     24  H   UNL d   1      25.752 -14.114  -0.384  0.00  0.00     0.192 HD
BRANCH  22  25
ATOM     25  C   UNL d   1      26.795 -16.602  -0.370  0.00  0.00     0.280 C 
BRANCH  25  26
ATOM     26  O   UNL d   1      25.603 -16.336  -1.137  0.00  0.00    -0.342 OA
BRANCH  26  27
ATOM     27  C   UNL d   1      24.474 -17.049  -0.822  0.00  0.00     0.069 A 
ATOM     28  C   UNL d   1      24.630 -18.395  -0.465  0.00  0.00     0.037 A 
ATOM     29  C   UNL d   1      23.512 -19.209  -0.184  0.00  0.00     0.010 A 
ATOM     30  C   UNL d   1      22.213 -18.675  -0.193  0.00  0.00    -0.054 A 
ATOM     31  C   UNL d   1      22.093 -17.319  -0.536  0.00  0.00     0.010 A 
ATOM     32  C   UNL d   1      23.194 -16.522  -0.842  0.00  0.00     0.037 A 
BRANCH  30  33
ATOM     33  C   UNL d   1      20.980 -19.510   0.221  0.00  0.00     0.018 C 
BRANCH  33  34
ATOM     34  C   UNL d   1      20.657 -19.305   1.729  0.00  0.00     0.005 C 
ATOM     35  C   UNL d   1      19.766 -20.316   2.419  0.00  0.00     0.006 C 
ENDBRANCH  33  34
BRANCH  33  36
ATOM     36  C   UNL d   1      19.779 -19.204  -0.707  0.00  0.00     0.005 C 
ATOM     37  C   UNL d   1      18.549 -20.080  -0.512  0.00  0.00     0.006 C 
ENDBRANCH  33  36
ENDBRANCH  30  33
ENDBRANCH  26  27
ENDBRANCH  25  26
ENDBRANCH  22  25
ENDBRANCH   1  21
TORSDOF 14
ENDMDL
MODEL 5
REMARK VINA RESULT:    -8.808      2.357      4.218
REMARK INTER + INTRA:         -16.214
REMARK INTER:                 -12.984
REMARK INTRA:                  -3.230
REMARK CONF_INDEPENDENT:        4.176
REMARK UNBOUND:                -3.230
REMARK  14 active torsions:
REMARK  status: ('A' for Active; 'I' for Inactive)
REMARK    1  A    between atoms: C_2  and  C_3 
REMARK    2  A    between atoms: C_3  and  C_4 
REMARK    3  A    between atoms: C_3  and  C_6 
REMARK    4  A    between atoms: C_9  and  O_10 
REMARK    5  A    between atoms: O_10  and  C_11 
REMARK    6  A    between atoms: C_11  and  C_12 
REMARK       I    between atoms: C_12  and  N_14 
REMARK    7  A    between atoms: N_14  and  N_15 
REMARK    8  A    between atoms: C_16  and  C_17 
REMARK    9  A    between atoms: C_19  and  N_20 
REMARK   10  A    between atoms: C_25  and  N_26 
REMARK   11  A    between atoms: N_26  and  C_27 
REMARK   12  A    between atoms: N_26  and  C_31 
REMARK   13  A    between atoms: C_27  and  C_28 
REMARK   14  A    between atoms: C_31  and  C_32 
ROOT
ATOM      1  N   UNL d   1      27.124 -11.414  -1.110  0.00  0.00    -0.184 NA
ATOM      2  C   UNL d   1      27.464 -11.957   0.018  0.00  0.00     0.152 C 
ENDROOT
BRANCH   2   3
ATOM      3  C   UNL d   1      27.168 -11.303   1.350  0.00  0.00     0.012 C 
ATOM      4  C   UNL d   1      26.618  -9.980   1.290  0.00  0.00     0.051 C 
ATOM      5  C   UNL d   1      26.426  -9.206   2.454  0.00  0.00     0.103 C 
ATOM      6  C   UNL d   1      26.743  -9.727   3.670  0.00  0.00     0.038 C 
ATOM      7  C   UNL d   1      27.459 -10.901   3.653  0.00  0.00     0.033 C 
ATOM      8  C   UNL d   1      27.603 -11.839   2.598  0.00  0.00     0.042 C 
BRANCH   5   9
ATOM      9  N   UNL d   1      26.145  -7.772   2.461  0.00  0.00    -0.116 N 
ATOM     10  O   UNL d   1      25.459  -7.330   1.516  0.00  0.00    -0.532 OA
ATOM     11  O   UNL d   1      26.656  -7.076   3.340  0.00  0.00    -0.532 OA
ENDBRANCH   5   9
BRANCH   8  12
ATOM     12  N   UNL d   1      28.156 -13.116   2.869  0.00  0.00    -0.379 N 
BRANCH  12  13
ATOM     13  C   UNL d   1      27.577 -14.128   3.795  0.00  0.00     0.126 C 
BRANCH  13  14
ATOM     14  C   UNL d   1      28.108 -14.296   5.191  0.00  0.00    -0.005 C 
ATOM     15  C   UNL d   1      29.654 -14.452   5.144  0.00  0.00     0.011 C 
ATOM     16  C   UNL d   1      27.779 -13.157   6.123  0.00  0.00     0.011 C 
ENDBRANCH  13  14
ENDBRANCH  12  13
BRANCH  12  17
ATOM     17  C   UNL d   1      29.050 -13.740   1.848  0.00  0.00     0.126 C 
BRANCH  17  18
ATOM     18  C   UNL d   1      28.626 -15.050   1.139  0.00  0.00    -0.005 C 
ATOM     19  C   UNL d   1      27.117 -15.065   0.835  0.00  0.00     0.011 C 
ATOM     20  C   UNL d   1      29.302 -15.197  -0.236  0.00  0.00     0.011 C 
ENDBRANCH  17  18
ENDBRANCH  12  17
ENDBRANCH   8  12
ENDBRANCH   2   3
BRANCH   1  21
ATOM     21  N   UNL d   1      27.060 -12.162  -2.283  0.00  0.00    -0.246 N 
ATOM     22  C   UNL d   1      26.174 -11.704  -3.284  0.00  0.00     0.261 C 
ATOM     23  O   UNL d   1      25.518 -10.664  -3.172  0.00  0.00    -0.269 OA
ATOM     24  H   UNL d   1      27.406 -13.116  -2.280  0.00  0.00     0.192 HD
BRANCH  22  25
ATOM     25  C   UNL d   1      26.049 -12.587  -4.549  0.00  0.00     0.280 C 
BRANCH  25  26
ATOM     26  O   UNL d   1      26.724 -13.854  -4.402  0.00  0.00    -0.342 OA
BRANCH  26  27
ATOM     27  C   UNL d   1      26.271 -14.704  -3.425  0.00  0.00     0.069 A 
ATOM     28  C   UNL d   1      24.922 -14.615  -3.056  0.00  0.00     0.037 A 
ATOM     29  C   UNL d   1      24.396 -15.415  -2.019  0.00  0.00     0.010 A 
ATOM     30  C   UNL d   1      25.196 -16.369  -1.370  0.00  0.00    -0.054 A 
ATOM     31  C   UNL d   1      26.537 -16.447  -1.777  0.00  0.00     0.010 A 
ATOM     32  C   UNL d   1      27.065 -15.636  -2.780  0.00  0.00     0.037 A 
BRANCH  30  33
ATOM     33  C   UNL d   1      24.621 -17.338  -0.311  0.00  0.00     0.018 C 
BRANCH  33  34
ATOM     34  C   UNL d   1      23.150 -17.714  -0.650  0.00  0.00     0.005 C 
ATOM     35  C   UNL d   1      22.896 -18.950  -1.486  0.00  0.00     0.006 C 
ENDBRANCH  33  34
BRANCH  33  36
ATOM     36  C   UNL d   1      25.543 -18.571  -0.146  0.00  0.00     0.005 C 
ATOM     37  C   UNL d   1      26.654 -18.436   0.886  0.00  0.00     0.006 C 
ENDBRANCH  33  36
ENDBRANCH  30  33
ENDBRANCH  26  27
ENDBRANCH  25  26
ENDBRANCH  22  25
ENDBRANCH   1  21
TORSDOF 14
ENDMDL
MODEL 6
REMARK VINA RESULT:    -8.788      5.056      9.015
REMARK INTER + INTRA:         -15.849
REMARK INTER:                 -12.964
REMARK INTRA:                  -2.884
REMARK CONF_INDEPENDENT:        4.176
REMARK UNBOUND:                -2.884
REMARK  14 active torsions:
REMARK  status: ('A' for Active; 'I' for Inactive)
REMARK    1  A    between atoms: C_2  and  C_3 
REMARK    2  A    between atoms: C_3  and  C_4 
REMARK    3  A    between atoms: C_3  and  C_6 
REMARK    4  A    between atoms: C_9  and  O_10 
REMARK    5  A    between atoms: O_10  and  C_11 
REMARK    6  A    between atoms: C_11  and  C_12 
REMARK       I    between atoms: C_12  and  N_14 
REMARK    7  A    between atoms: N_14  and  N_15 
REMARK    8  A    between atoms: C_16  and  C_17 
REMARK    9  A    between atoms: C_19  and  N_20 
REMARK   10  A    between atoms: C_25  and  N_26 
REMARK   11  A    between atoms: N_26  and  C_27 
REMARK   12  A    between atoms: N_26  and  C_31 
REMARK   13  A    between atoms: C_27  and  C_28 
REMARK   14  A    between atoms: C_31  and  C_32 
ROOT
ATOM      1  N   UNL d   1      25.325 -15.090  -3.405  0.00  0.00    -0.184 NA
ATOM      2  C   UNL d   1      25.317 -15.175  -2.110  0.00  0.00     0.152 C 
ENDROOT
BRANCH   2   3
ATOM      3  C   UNL d   1      24.930 -16.447  -1.387  0.00  0.00     0.012 C 
ATOM      4  C   UNL d   1      23.606 -16.936  -1.644  0.00  0.00     0.051 C 
ATOM      5  C   UNL d   1      23.072 -18.030  -0.932  0.00  0.00     0.103 C 
ATOM      6  C   UNL d   1      23.832 -18.660   0.005  0.00  0.00     0.038 C 
ATOM      7  C   UNL d   1      24.998 -18.025   0.360  0.00  0.00     0.033 C 
ATOM      8  C   UNL d   1      25.713 -17.021  -0.344  0.00  0.00     0.042 C 
BRANCH   5   9
ATOM      9  N   UNL d   1      21.661 -18.408  -0.926  0.00  0.00    -0.116 N 
ATOM     10  O   UNL d   1      20.830 -17.476  -0.895  0.00  0.00    -0.532 OA
ATOM     11  O   UNL d   1      21.372 -19.605  -0.874  0.00  0.00    -0.532 OA
ENDBRANCH   5   9
BRANCH   8  12
ATOM     12  N   UNL d   1      27.033 -16.694   0.057  0.00  0.00    -0.379 N 
BRANCH  12  13
ATOM     13  C   UNL d   1      27.408 -16.041   1.341  0.00  0.00     0.126 C 
BRANCH  13  14
ATOM     14  C   UNL d   1      27.703 -14.569   1.406  0.00  0.00    -0.005 C 
ATOM     15  C   UNL d   1      26.692 -13.796   0.513  0.00  0.00     0.011 C 
ATOM     16  C   UNL d   1      27.646 -13.983   2.795  0.00  0.00     0.011 C 
ENDBRANCH  13  14
ENDBRANCH  12  13
BRANCH  12  17
ATOM     17  C   UNL d   1      28.170 -17.463  -0.531  0.00  0.00     0.126 C 
BRANCH  17  18
ATOM     18  C   UNL d   1      29.117 -16.791  -1.556  0.00  0.00    -0.005 C 
ATOM     19  C   UNL d   1      28.757 -15.310  -1.770  0.00  0.00     0.011 C 
ATOM     20  C   UNL d   1      30.573 -16.769  -1.056  0.00  0.00     0.011 C 
ENDBRANCH  17  18
ENDBRANCH  12  17
ENDBRANCH   8  12
ENDBRANCH   2   3
BRANCH   1  21
ATOM     21  N   UNL d   1      26.017 -14.074  -4.058  0.00  0.00    -0.246 N 
ATOM     22  C   UNL d   1      26.724 -14.435  -5.228  0.00  0.00     0.261 C 
ATOM     23  O   UNL d   1      26.702 -15.576  -5.699  0.00  0.00    -0.269 OA
ATOM     24  H   UNL d   1      26.227 -13.217  -3.557  0.00  0.00     0.192 HD
BRANCH  22  25
ATOM     25  C   UNL d   1      27.558 -13.317  -5.900  0.00  0.00     0.280 C 
BRANCH  25  26
ATOM     26  O   UNL d   1      28.967 -13.437  -5.615  0.00  0.00    -0.342 OA
BRANCH  26  27
ATOM     27  C   UNL d   1      29.558 -14.653  -5.842  0.00  0.00     0.069 A 
ATOM     28  C   UNL d   1      29.694 -15.527  -4.755  0.00  0.00     0.037 A 
ATOM     29  C   UNL d   1      30.343 -16.772  -4.897  0.00  0.00     0.010 A 
ATOM     30  C   UNL d   1      30.817 -17.198  -6.149  0.00  0.00    -0.054 A 
ATOM     31  C   UNL d   1      30.648 -16.308  -7.221  0.00  0.00     0.010 A 
ATOM     32  C   UNL d   1      30.034 -15.066  -7.075  0.00  0.00     0.037 A 
BRANCH  30  33
ATOM     33  C   UNL d   1      31.430 -18.602  -6.359  0.00  0.00     0.018 C 
BRANCH  33  34
ATOM     34  C   UNL d   1      30.406 -19.711  -5.983  0.00  0.00     0.005 C 
ATOM     35  C   UNL d   1      30.852 -20.815  -5.047  0.00  0.00     0.006 C 
ENDBRANCH  33  34
BRANCH  33  36
ATOM     36  C   UNL d   1      31.981 -18.743  -7.799  0.00  0.00     0.005 C 
ATOM     37  C   UNL d   1      31.033 -19.367  -8.815  0.00  0.00     0.006 C 
ENDBRANCH  33  36
ENDBRANCH  30  33
ENDBRANCH  26  27
ENDBRANCH  25  26
ENDBRANCH  22  25
ENDBRANCH   1  21
TORSDOF 14
ENDMDL
MODEL 7
REMARK VINA RESULT:    -8.521      2.478      3.803
REMARK INTER + INTRA:         -16.134
REMARK INTER:                 -12.697
REMARK INTRA:                  -3.438
REMARK CONF_INDEPENDENT:        4.176
REMARK UNBOUND:                -3.438
REMARK  14 active torsions:
REMARK  status: ('A' for Active; 'I' for Inactive)
REMARK    1  A    between atoms: C_2  and  C_3 
REMARK    2  A    between atoms: C_3  and  C_4 
REMARK    3  A    between atoms: C_3  and  C_6 
REMARK    4  A    between atoms: C_9  and  O_10 
REMARK    5  A    between atoms: O_10  and  C_11 
REMARK    6  A    between atoms: C_11  and  C_12 
REMARK       I    between atoms: C_12  and  N_14 
REMARK    7  A    between atoms: N_14  and  N_15 
REMARK    8  A    between atoms: C_16  and  C_17 
REMARK    9  A    between atoms: C_19  and  N_20 
REMARK   10  A    between atoms: C_25  and  N_26 
REMARK   11  A    between atoms: N_26  and  C_27 
REMARK   12  A    between atoms: N_26  and  C_31 
REMARK   13  A    between atoms: C_27  and  C_28 
REMARK   14  A    between atoms: C_31  and  C_32 
ROOT
ATOM      1  N   UNL d   1      27.600 -11.111  -1.296  0.00  0.00    -0.184 NA
ATOM      2  C   UNL d   1      27.690 -11.780  -0.187  0.00  0.00     0.152 C 
ENDROOT
BRANCH   2   3
ATOM      3  C   UNL d   1      27.343 -11.171   1.154  0.00  0.00     0.012 C 
ATOM      4  C   UNL d   1      26.629  -9.927   1.110  0.00  0.00     0.051 C 
ATOM      5  C   UNL d   1      26.366  -9.186   2.281  0.00  0.00     0.103 C 
ATOM      6  C   UNL d   1      26.772  -9.665   3.488  0.00  0.00     0.038 C 
ATOM      7  C   UNL d   1      27.630 -10.739   3.452  0.00  0.00     0.033 C 
ATOM      8  C   UNL d   1      27.868 -11.650   2.389  0.00  0.00     0.042 C 
BRANCH   5   9
ATOM      9  N   UNL d   1      25.906  -7.799   2.300  0.00  0.00    -0.116 N 
ATOM     10  O   UNL d   1      25.175  -7.437   1.355  0.00  0.00    -0.532 OA
ATOM     11  O   UNL d   1      26.321  -7.053   3.189  0.00  0.00    -0.532 OA
ENDBRANCH   5   9
BRANCH   8  12
ATOM     12  N   UNL d   1      28.583 -12.847   2.644  0.00  0.00    -0.379 N 
BRANCH  12  13
ATOM     13  C   UNL d   1      29.330 -13.639   1.628  0.00  0.00     0.126 C 
BRANCH  13  14
ATOM     14  C   UNL d   1      28.733 -14.873   1.014  0.00  0.00    -0.005 C 
ATOM     15  C   UNL d   1      27.185 -14.732   0.962  0.00  0.00     0.011 C 
ATOM     16  C   UNL d   1      29.224 -15.176  -0.379  0.00  0.00     0.011 C 
ENDBRANCH  13  14
ENDBRANCH  12  13
BRANCH  12  17
ATOM     17  C   UNL d   1      29.085 -13.099   4.028  0.00  0.00     0.126 C 
BRANCH  17  18
ATOM     18  C   UNL d   1      28.131 -13.660   5.111  0.00  0.00    -0.005 C 
ATOM     19  C   UNL d   1      28.141 -15.200   5.130  0.00  0.00     0.011 C 
ATOM     20  C   UNL d   1      28.575 -13.251   6.527  0.00  0.00     0.011 C 
ENDBRANCH  17  18
ENDBRANCH  12  17
ENDBRANCH   8  12
ENDBRANCH   2   3
BRANCH   1  21
ATOM     21  N   UNL d   1      27.560 -11.757  -2.528  0.00  0.00    -0.246 N 
ATOM     22  C   UNL d   1      26.484 -11.428  -3.385  0.00  0.00     0.261 C 
ATOM     23  O   UNL d   1      25.639 -10.574  -3.101  0.00  0.00    -0.269 OA
ATOM     24  H   UNL d   1      28.100 -12.606  -2.660  0.00  0.00     0.192 HD
BRANCH  22  25
ATOM     25  C   UNL d   1      26.402 -12.212  -4.718  0.00  0.00     0.280 C 
BRANCH  25  26
ATOM     26  O   UNL d   1      26.943 -13.544  -4.604  0.00  0.00    -0.342 OA
BRANCH  26  27
ATOM     27  C   UNL d   1      26.396 -14.372  -3.657  0.00  0.00     0.069 A 
ATOM     28  C   UNL d   1      27.223 -15.351  -3.088  0.00  0.00     0.037 A 
ATOM     29  C   UNL d   1      26.719 -16.276  -2.151  0.00  0.00     0.010 A 
ATOM     30  C   UNL d   1      25.386 -16.203  -1.713  0.00  0.00    -0.054 A 
ATOM     31  C   UNL d   1      24.590 -15.200  -2.287  0.00  0.00     0.010 A 
ATOM     32  C   UNL d   1      25.079 -14.304  -3.235  0.00  0.00     0.037 A 
BRANCH  30  33
ATOM     33  C   UNL d   1      24.835 -17.129  -0.604  0.00  0.00     0.018 C 
BRANCH  33  34
ATOM     34  C   UNL d   1      23.417 -17.649  -0.975  0.00  0.00     0.005 C 
ATOM     35  C   UNL d   1      22.620 -18.386   0.080  0.00  0.00     0.006 C 
ENDBRANCH  33  34
BRANCH  33  36
ATOM     36  C   UNL d   1      25.840 -18.265  -0.295  0.00  0.00     0.005 C 
ATOM     37  C   UNL d   1      26.656 -18.102   0.980  0.00  0.00     0.006 C 
ENDBRANCH  33  36
ENDBRANCH  30  33
ENDBRANCH  26  27
ENDBRANCH  25  26
ENDBRANCH  22  25
ENDBRANCH   1  21
TORSDOF 14
ENDMDL
MODEL 8
REMARK VINA RESULT:    -8.209      4.822      8.910
REMARK INTER + INTRA:         -15.626
REMARK INTER:                 -12.385
REMARK INTRA:                  -3.241
REMARK CONF_INDEPENDENT:        4.176
REMARK UNBOUND:                -3.241
REMARK  14 active torsions:
REMARK  status: ('A' for Active; 'I' for Inactive)
REMARK    1  A    between atoms: C_2  and  C_3 
REMARK    2  A    between atoms: C_3  and  C_4 
REMARK    3  A    between atoms: C_3  and  C_6 
REMARK    4  A    between atoms: C_9  and  O_10 
REMARK    5  A    between atoms: O_10  and  C_11 
REMARK    6  A    between atoms: C_11  and  C_12 
REMARK       I    between atoms: C_12  and  N_14 
REMARK    7  A    between atoms: N_14  and  N_15 
REMARK    8  A    between atoms: C_16  and  C_17 
REMARK    9  A    between atoms: C_19  and  N_20 
REMARK   10  A    between atoms: C_25  and  N_26 
REMARK   11  A    between atoms: N_26  and  C_27 
REMARK   12  A    between atoms: N_26  and  C_31 
REMARK   13  A    between atoms: C_27  and  C_28 
REMARK   14  A    between atoms: C_31  and  C_32 
ROOT
ATOM      1  N   UNL d   1      25.628 -14.268  -1.852  0.00  0.00    -0.184 NA
ATOM      2  C   UNL d   1      25.948 -15.507  -2.066  0.00  0.00     0.152 C 
ENDROOT
BRANCH   2   3
ATOM      3  C   UNL d   1      25.333 -16.646  -1.282  0.00  0.00     0.012 C 
ATOM      4  C   UNL d   1      23.998 -17.014  -1.655  0.00  0.00     0.051 C 
ATOM      5  C   UNL d   1      23.260 -17.963  -0.916  0.00  0.00     0.103 C 
ATOM      6  C   UNL d   1      23.828 -18.567   0.162  0.00  0.00     0.038 C 
ATOM      7  C   UNL d   1      25.015 -18.028   0.599  0.00  0.00     0.033 C 
ATOM      8  C   UNL d   1      25.919 -17.187  -0.101  0.00  0.00     0.042 C 
BRANCH   5   9
ATOM      9  N   UNL d   1      21.822 -18.183  -1.050  0.00  0.00    -0.116 N 
ATOM     10  O   UNL d   1      21.459 -19.328  -1.395  0.00  0.00    -0.532 OA
ATOM     11  O   UNL d   1      21.062 -17.226  -0.895  0.00  0.00    -0.532 OA
ENDBRANCH   5   9
BRANCH   8  12
ATOM     12  N   UNL d   1      27.216 -16.963   0.429  0.00  0.00    -0.379 N 
BRANCH  12  13
ATOM     13  C   UNL d   1      28.486 -17.475  -0.154  0.00  0.00     0.126 C 
BRANCH  13  14
ATOM     14  C   UNL d   1      29.308 -16.629  -1.085  0.00  0.00    -0.005 C 
ATOM     15  C   UNL d   1      30.817 -16.799  -0.746  0.00  0.00     0.011 C 
ATOM     16  C   UNL d   1      29.118 -16.945  -2.546  0.00  0.00     0.011 C 
ENDBRANCH  13  14
ENDBRANCH  12  13
BRANCH  12  17
ATOM     17  C   UNL d   1      27.439 -15.762   1.288  0.00  0.00     0.126 C 
BRANCH  17  18
ATOM     18  C   UNL d   1      27.313 -14.341   0.685  0.00  0.00    -0.005 C 
ATOM     19  C   UNL d   1      26.657 -13.362   1.676  0.00  0.00     0.011 C 
ATOM     20  C   UNL d   1      28.692 -13.726   0.386  0.00  0.00     0.011 C 
ENDBRANCH  17  18
ENDBRANCH  12  17
ENDBRANCH   8  12
ENDBRANCH   2   3
BRANCH   1  21
ATOM     21  N   UNL d   1      25.901 -13.278  -2.792  0.00  0.00    -0.246 N 
ATOM     22  C   UNL d   1      25.235 -13.378  -4.035  0.00  0.00     0.261 C 
ATOM     23  O   UNL d   1      24.405 -14.258  -4.280  0.00  0.00    -0.269 OA
ATOM     24  H   UNL d   1      26.735 -12.710  -2.684  0.00  0.00     0.192 HD
BRANCH  22  25
ATOM     25  C   UNL d   1      25.608 -12.321  -5.103  0.00  0.00     0.280 C 
BRANCH  25  26
ATOM     26  O   UNL d   1      27.027 -12.070  -5.153  0.00  0.00    -0.342 OA
BRANCH  26  27
ATOM     27  C   UNL d   1      27.843 -13.109  -5.522  0.00  0.00     0.069 A 
ATOM     28  C   UNL d   1      28.459 -13.041  -6.779  0.00  0.00     0.037 A 
ATOM     29  C   UNL d   1      29.265 -14.097  -7.254  0.00  0.00     0.010 A 
ATOM     30  C   UNL d   1      29.524 -15.221  -6.452  0.00  0.00    -0.054 A 
ATOM     31  C   UNL d   1      28.907 -15.250  -5.191  0.00  0.00     0.010 A 
ATOM     32  C   UNL d   1      28.087 -14.220  -4.733  0.00  0.00     0.037 A 
BRANCH  30  33
ATOM     33  C   UNL d   1      30.493 -16.341  -6.897  0.00  0.00     0.018 C 
BRANCH  33  34
ATOM     34  C   UNL d   1      31.935 -15.784  -7.068  0.00  0.00     0.005 C 
ATOM     35  C   UNL d   1      32.275 -15.044  -8.345  0.00  0.00     0.006 C 
ENDBRANCH  33  34
BRANCH  33  36
ATOM     36  C   UNL d   1      30.415 -17.545  -5.927  0.00  0.00     0.005 C 
ATOM     37  C   UNL d   1      30.752 -18.903  -6.526  0.00  0.00     0.006 C 
ENDBRANCH  33  36
ENDBRANCH  30  33
ENDBRANCH  26  27
ENDBRANCH  25  26
ENDBRANCH  22  25
ENDBRANCH   1  21
TORSDOF 14
ENDMDL
MODEL 9
REMARK VINA RESULT:    -8.020      4.862      9.079
REMARK INTER + INTRA:         -15.580
REMARK INTER:                 -12.196
REMARK INTRA:                  -3.384
REMARK CONF_INDEPENDENT:        4.176
REMARK UNBOUND:                -3.384
REMARK  14 active torsions:
REMARK  status: ('A' for Active; 'I' for Inactive)
REMARK    1  A    between atoms: C_2  and  C_3 
REMARK    2  A    between atoms: C_3  and  C_4 
REMARK    3  A    between atoms: C_3  and  C_6 
REMARK    4  A    between atoms: C_9  and  O_10 
REMARK    5  A    between atoms: O_10  and  C_11 
REMARK    6  A    between atoms: C_11  and  C_12 
REMARK       I    between atoms: C_12  and  N_14 
REMARK    7  A    between atoms: N_14  and  N_15 
REMARK    8  A    between atoms: C_16  and  C_17 
REMARK    9  A    between atoms: C_19  and  N_20 
REMARK   10  A    between atoms: C_25  and  N_26 
REMARK   11  A    between atoms: N_26  and  C_27 
REMARK   12  A    between atoms: N_26  and  C_31 
REMARK   13  A    between atoms: C_27  and  C_28 
REMARK   14  A    between atoms: C_31  and  C_32 
ROOT
ATOM      1  N   UNL d   1      24.441 -14.536  -3.116  0.00  0.00    -0.184 NA
ATOM      2  C   UNL d   1      25.279 -15.040  -2.263  0.00  0.00     0.152 C 
ENDROOT
BRANCH   2   3
ATOM      3  C   UNL d   1      24.977 -16.304  -1.487  0.00  0.00     0.012 C 
ATOM      4  C   UNL d   1      23.655 -16.836  -1.646  0.00  0.00     0.051 C 
ATOM      5  C   UNL d   1      23.200 -17.927  -0.875  0.00  0.00     0.103 C 
ATOM      6  C   UNL d   1      24.037 -18.511   0.025  0.00  0.00     0.038 C 
ATOM      7  C   UNL d   1      25.205 -17.835   0.289  0.00  0.00     0.033 C 
ATOM      8  C   UNL d   1      25.843 -16.830  -0.484  0.00  0.00     0.042 C 
BRANCH   5   9
ATOM      9  N   UNL d   1      21.804 -18.344  -0.769  0.00  0.00    -0.116 N 
ATOM     10  O   UNL d   1      21.593 -19.567  -0.633  0.00  0.00    -0.532 OA
ATOM     11  O   UNL d   1      20.924 -17.492  -0.895  0.00  0.00    -0.532 OA
ENDBRANCH   5   9
BRANCH   8  12
ATOM     12  N   UNL d   1      27.176 -16.455  -0.177  0.00  0.00    -0.379 N 
BRANCH  12  13
ATOM     13  C   UNL d   1      27.632 -15.869   1.112  0.00  0.00     0.126 C 
BRANCH  13  14
ATOM     14  C   UNL d   1      27.791 -14.384   1.276  0.00  0.00    -0.005 C 
ATOM     15  C   UNL d   1      26.655 -13.651   0.508  0.00  0.00     0.011 C 
ATOM     16  C   UNL d   1      27.772 -13.909   2.707  0.00  0.00     0.011 C 
ENDBRANCH  13  14
ENDBRANCH  12  13
BRANCH  12  17
ATOM     17  C   UNL d   1      28.292 -17.119  -0.916  0.00  0.00     0.126 C 
BRANCH  17  18
ATOM     18  C   UNL d   1      29.234 -16.282  -1.816  0.00  0.00    -0.005 C 
ATOM     19  C   UNL d   1      29.514 -16.991  -3.154  0.00  0.00     0.011 C 
ATOM     20  C   UNL d   1      28.597 -14.939  -2.213  0.00  0.00     0.011 C 
ENDBRANCH  17  18
ENDBRANCH  12  17
ENDBRANCH   8  12
ENDBRANCH   2   3
BRANCH   1  21
ATOM     21  N   UNL d   1      24.854 -13.615  -4.076  0.00  0.00    -0.246 N 
ATOM     22  C   UNL d   1      25.605 -12.509  -3.616  0.00  0.00     0.261 C 
ATOM     23  O   UNL d   1      25.940 -12.371  -2.436  0.00  0.00    -0.269 OA
ATOM     24  H   UNL d   1      24.391 -13.601  -4.979  0.00  0.00     0.192 HD
BRANCH  22  25
ATOM     25  C   UNL d   1      25.988 -11.448  -4.677  0.00  0.00     0.280 C 
BRANCH  25  26
ATOM     26  O   UNL d   1      26.362 -12.044  -5.937  0.00  0.00    -0.342 OA
BRANCH  26  27
ATOM     27  C   UNL d   1      27.378 -12.965  -5.925  0.00  0.00     0.069 A 
ATOM     28  C   UNL d   1      28.682 -12.503  -6.145  0.00  0.00     0.037 A 
ATOM     29  C   UNL d   1      29.772 -13.397  -6.206  0.00  0.00     0.010 A 
ATOM     30  C   UNL d   1      29.588 -14.772  -5.984  0.00  0.00    -0.054 A 
ATOM     31  C   UNL d   1      28.273 -15.200  -5.747  0.00  0.00     0.010 A 
ATOM     32  C   UNL d   1      27.191 -14.321  -5.716  0.00  0.00     0.037 A 
BRANCH  30  33
ATOM     33  C   UNL d   1      30.776 -15.760  -5.930  0.00  0.00     0.018 C 
BRANCH  33  34
ATOM     34  C   UNL d   1      30.406 -17.103  -6.621  0.00  0.00     0.005 C 
ATOM     35  C   UNL d   1      30.892 -18.393  -5.995  0.00  0.00     0.006 C 
ENDBRANCH  33  34
BRANCH  33  36
ATOM     36  C   UNL d   1      32.054 -15.107  -6.512  0.00  0.00     0.005 C 
ATOM     37  C   UNL d   1      32.062 -14.891  -8.019  0.00  0.00     0.006 C 
ENDBRANCH  33  36
ENDBRANCH  30  33
ENDBRANCH  26  27
ENDBRANCH  25  26
ENDBRANCH  22  25
ENDBRANCH   1  21
TORSDOF 14
ENDMDL
