MODEL 1
REMARK VINA RESULT:    -8.066      0.000      0.000
REMARK INTER + INTRA:          -9.861
REMARK INTER:                  -9.259
REMARK INTRA:                  -0.601
REMARK CONF_INDEPENDENT:        1.193
REMARK UNBOUND:                -0.601
REMARK  4 active torsions:
REMARK  status: ('A' for Active; 'I' for Inactive)
REMARK       I    between atoms: C_2  and  N_3 
REMARK    1  A    between atoms: C_2  and  C_14 
REMARK    2  A    between atoms: N_3  and  C_4 
REMARK    3  A    between atoms: C_4  and  N_6 
REMARK    4  A    between atoms: N_6  and  C_7 
ROOT
ATOM      1  O   UNL d   1      22.397 -16.720  -0.230  0.00  0.00    -0.267 OA
ATOM      2  C   UNL d   1      22.637 -17.924  -0.107  0.00  0.00     0.257 C 
ATOM      3  N   UNL d   1      23.918 -18.517  -0.017  0.00  0.00    -0.299 N 
ATOM      4  H   UNL d   1      23.945 -19.526   0.048  0.00  0.00     0.171 HD
ENDROOT
BRANCH   3   5
ATOM      5  C   UNL d   1      25.150 -17.826  -0.136  0.00  0.00     0.179 C 
ATOM      6  S   UNL d   1      26.634 -18.574   0.191  0.00  0.00    -0.040 SA
BRANCH   5   7
ATOM      7  N   UNL d   1      25.033 -16.459  -0.519  0.00  0.00    -0.333 N 
ATOM      8  H   UNL d   1      24.739 -15.786   0.180  0.00  0.00     0.168 HD
BRANCH   7   9
ATOM      9  C   UNL d   1      25.796 -15.903  -1.614  0.00  0.00     0.034 A 
ATOM     10  C   UNL d   1      25.144 -15.349  -2.728  0.00  0.00     0.031 A 
ATOM     11  C   UNL d   1      25.835 -15.023  -3.899  0.00  0.00     0.026 A 
ATOM     12  C   UNL d   1      27.211 -15.183  -3.948  0.00  0.00     0.034 A 
ATOM     13 CL   UNL d   1      28.058 -14.821  -5.402  0.00  0.00    -0.084 Cl
ATOM     14  C   UNL d   1      27.897 -15.635  -2.819  0.00  0.00     0.026 A 
ATOM     15  C   UNL d   1      27.195 -15.980  -1.643  0.00  0.00     0.031 A 
ENDBRANCH   7   9
ENDBRANCH   5   7
ENDBRANCH   3   5
BRANCH   2  16
ATOM     16  C   UNL d   1      21.418 -18.762  -0.058  0.00  0.00     0.035 A 
ATOM     17  C   UNL d   1      20.664 -18.935  -1.254  0.00  0.00     0.020 A 
ATOM     18  C   UNL d   1      19.492 -19.700  -1.268  0.00  0.00     0.041 A 
ATOM     19  C   UNL d   1      19.083 -20.240  -0.070  0.00  0.00     0.105 A 
ATOM     20  C   UNL d   1      19.775 -20.013   1.100  0.00  0.00     0.106 A 
ATOM     21  O   UNL d   1      17.992 -21.028   0.118  0.00  0.00    -0.323 OA
ATOM     22  C   UNL d   1      20.940 -19.271   1.148  0.00  0.00     0.056 A 
ATOM     23  O   UNL d   1      19.181 -20.604   2.172  0.00  0.00    -0.323 OA
ATOM     24  C   UNL d   1      18.019 -21.193   1.550  0.00  0.00     0.352 A 
ENDBRANCH   2  16
TORSDOF 4
ENDMDL
MODEL 2
REMARK VINA RESULT:    -7.805      4.055      8.758
REMARK INTER + INTRA:          -9.955
REMARK INTER:                  -8.998
REMARK INTRA:                  -0.957
REMARK CONF_INDEPENDENT:        1.193
REMARK UNBOUND:                -0.957
REMARK  4 active torsions:
REMARK  status: ('A' for Active; 'I' for Inactive)
REMARK       I    between atoms: C_2  and  N_3 
REMARK    1  A    between atoms: C_2  and  C_14 
REMARK    2  A    between atoms: N_3  and  C_4 
REMARK    3  A    between atoms: C_4  and  N_6 
REMARK    4  A    between atoms: N_6  and  C_7 
ROOT
ATOM      1  O   UNL d   1      23.541 -14.955  -2.247  0.00  0.00    -0.267 OA
ATOM      2  C   UNL d   1      24.618 -15.532  -2.413  0.00  0.00     0.257 C 
ATOM      3  N   UNL d   1      25.015 -16.750  -1.813  0.00  0.00    -0.299 N 
ATOM      4  H   UNL d   1      25.948 -17.077  -2.030  0.00  0.00     0.171 HD
ENDROOT
BRANCH   3   5
ATOM      5  C   UNL d   1      24.267 -17.471  -0.850  0.00  0.00     0.179 C 
ATOM      6  S   UNL d   1      25.002 -18.515   0.262  0.00  0.00    -0.040 SA
BRANCH   5   7
ATOM      7  N   UNL d   1      22.858 -17.268  -0.915  0.00  0.00    -0.333 N 
ATOM      8  H   UNL d   1      22.494 -16.631  -1.616  0.00  0.00     0.168 HD
BRANCH   7   9
ATOM      9  C   UNL d   1      21.919 -18.267  -0.458  0.00  0.00     0.034 A 
ATOM     10  C   UNL d   1      21.049 -18.895  -1.365  0.00  0.00     0.031 A 
ATOM     11  C   UNL d   1      19.976 -19.680  -0.933  0.00  0.00     0.026 A 
ATOM     12  C   UNL d   1      19.798 -19.909   0.423  0.00  0.00     0.034 A 
ATOM     13 CL   UNL d   1      18.455 -20.843   0.959  0.00  0.00    -0.084 Cl
ATOM     14  C   UNL d   1      20.710 -19.382   1.340  0.00  0.00     0.026 A 
ATOM     15  C   UNL d   1      21.782 -18.574   0.902  0.00  0.00     0.031 A 
ENDBRANCH   7   9
ENDBRANCH   5   7
ENDBRANCH   3   5
BRANCH   2  16
ATOM     16  C   UNL d   1      25.526 -14.823  -3.342  0.00  0.00     0.035 A 
ATOM     17  C   UNL d   1      25.443 -13.403  -3.421  0.00  0.00     0.020 A 
ATOM     18  C   UNL d   1      26.261 -12.676  -4.293  0.00  0.00     0.041 A 
ATOM     19  C   UNL d   1      27.115 -13.397  -5.097  0.00  0.00     0.105 A 
ATOM     20  C   UNL d   1      27.143 -14.775  -5.071  0.00  0.00     0.106 A 
ATOM     21  O   UNL d   1      28.001 -12.877  -5.987  0.00  0.00    -0.323 OA
ATOM     22  C   UNL d   1      26.357 -15.522  -4.215  0.00  0.00     0.056 A 
ATOM     23  O   UNL d   1      28.028 -15.288  -5.968  0.00  0.00    -0.323 OA
ATOM     24  C   UNL d   1      28.521 -14.081  -6.587  0.00  0.00     0.352 A 
ENDBRANCH   2  16
TORSDOF 4
ENDMDL
MODEL 3
REMARK VINA RESULT:    -7.674      3.575      4.588
REMARK INTER + INTRA:          -9.479
REMARK INTER:                  -8.867
REMARK INTRA:                  -0.612
REMARK CONF_INDEPENDENT:        1.193
REMARK UNBOUND:                -0.612
REMARK  4 active torsions:
REMARK  status: ('A' for Active; 'I' for Inactive)
REMARK       I    between atoms: C_2  and  N_3 
REMARK    1  A    between atoms: C_2  and  C_14 
REMARK    2  A    between atoms: N_3  and  C_4 
REMARK    3  A    between atoms: C_4  and  N_6 
REMARK    4  A    between atoms: N_6  and  C_7 
ROOT
ATOM      1  O   UNL d   1      26.261 -18.483   0.868  0.00  0.00    -0.267 OA
ATOM      2  C   UNL d   1      25.947 -17.653   0.012  0.00  0.00     0.257 C 
ATOM      3  N   UNL d   1      26.820 -16.746  -0.633  0.00  0.00    -0.299 N 
ATOM      4  H   UNL d   1      26.398 -16.104  -1.293  0.00  0.00     0.171 HD
ENDROOT
BRANCH   3   5
ATOM      5  C   UNL d   1      28.197 -16.584  -0.339  0.00  0.00     0.179 C 
ATOM      6  S   UNL d   1      29.409 -17.095  -1.405  0.00  0.00    -0.040 SA
BRANCH   5   7
ATOM      7  N   UNL d   1      28.470 -15.991   0.927  0.00  0.00    -0.333 N 
ATOM      8  H   UNL d   1      29.353 -16.201   1.378  0.00  0.00     0.168 HD
BRANCH   7   9
ATOM      9  C   UNL d   1      27.863 -14.743   1.334  0.00  0.00     0.034 A 
ATOM     10  C   UNL d   1      27.419 -13.819   0.374  0.00  0.00     0.031 A 
ATOM     11  C   UNL d   1      27.052 -12.515   0.720  0.00  0.00     0.026 A 
ATOM     12  C   UNL d   1      27.057 -12.135   2.053  0.00  0.00     0.034 A 
ATOM     13 CL   UNL d   1      26.644 -10.518   2.477  0.00  0.00    -0.084 Cl
ATOM     14  C   UNL d   1      27.395 -13.065   3.038  0.00  0.00     0.026 A 
ATOM     15  C   UNL d   1      27.782 -14.376   2.684  0.00  0.00     0.031 A 
ENDBRANCH   7   9
ENDBRANCH   5   7
ENDBRANCH   3   5
BRANCH   2  16
ATOM     16  C   UNL d   1      24.505 -17.669  -0.319  0.00  0.00     0.035 A 
ATOM     17  C   UNL d   1      23.857 -16.430  -0.593  0.00  0.00     0.020 A 
ATOM     18  C   UNL d   1      22.491 -16.376  -0.894  0.00  0.00     0.041 A 
ATOM     19  C   UNL d   1      21.799 -17.565  -0.873  0.00  0.00     0.105 A 
ATOM     20  C   UNL d   1      22.412 -18.754  -0.539  0.00  0.00     0.106 A 
ATOM     21  O   UNL d   1      20.480 -17.725  -1.159  0.00  0.00    -0.323 OA
ATOM     22  C   UNL d   1      23.759 -18.843  -0.246  0.00  0.00     0.056 A 
ATOM     23  O   UNL d   1      21.542 -19.799  -0.541  0.00  0.00    -0.323 OA
ATOM     24  C   UNL d   1      20.308 -19.128  -0.875  0.00  0.00     0.352 A 
ENDBRANCH   2  16
TORSDOF 4
ENDMDL
MODEL 4
REMARK VINA RESULT:    -7.602      6.325      9.016
REMARK INTER + INTRA:          -9.251
REMARK INTER:                  -8.795
REMARK INTRA:                  -0.456
REMARK CONF_INDEPENDENT:        1.193
REMARK UNBOUND:                -0.456
REMARK  4 active torsions:
REMARK  status: ('A' for Active; 'I' for Inactive)
REMARK       I    between atoms: C_2  and  N_3 
REMARK    1  A    between atoms: C_2  and  C_14 
REMARK    2  A    between atoms: N_3  and  C_4 
REMARK    3  A    between atoms: C_4  and  N_6 
REMARK    4  A    between atoms: N_6  and  C_7 
ROOT
ATOM      1  O   UNL d   1      26.631 -13.360   2.270  0.00  0.00    -0.267 OA
ATOM      2  C   UNL d   1      27.633 -13.987   2.625  0.00  0.00     0.257 C 
ATOM      3  N   UNL d   1      28.427 -14.826   1.809  0.00  0.00    -0.299 N 
ATOM      4  H   UNL d   1      29.201 -15.295   2.262  0.00  0.00     0.171 HD
ENDROOT
BRANCH   3   5
ATOM      5  C   UNL d   1      28.152 -15.152   0.458  0.00  0.00     0.179 C 
ATOM      6  S   UNL d   1      28.055 -13.971  -0.750  0.00  0.00    -0.040 SA
BRANCH   5   7
ATOM      7  N   UNL d   1      27.937 -16.539   0.212  0.00  0.00    -0.333 N 
ATOM      8  H   UNL d   1      28.551 -17.210   0.661  0.00  0.00     0.168 HD
BRANCH   7   9
ATOM      9  C   UNL d   1      26.640 -17.059  -0.159  0.00  0.00     0.034 A 
ATOM     10  C   UNL d   1      25.829 -16.365  -1.071  0.00  0.00     0.031 A 
ATOM     11  C   UNL d   1      24.487 -16.704  -1.270  0.00  0.00     0.026 A 
ATOM     12  C   UNL d   1      23.952 -17.796  -0.605  0.00  0.00     0.034 A 
ATOM     13 CL   UNL d   1      22.290 -18.191  -0.817  0.00  0.00    -0.084 Cl
ATOM     14  C   UNL d   1      24.765 -18.566   0.230  0.00  0.00     0.026 A 
ATOM     15  C   UNL d   1      26.115 -18.211   0.442  0.00  0.00     0.031 A 
ENDBRANCH   7   9
ENDBRANCH   5   7
ENDBRANCH   3   5
BRANCH   2  16
ATOM     16  C   UNL d   1      27.972 -13.790   4.052  0.00  0.00     0.035 A 
ATOM     17  C   UNL d   1      28.267 -14.937   4.844  0.00  0.00     0.020 A 
ATOM     18  C   UNL d   1      28.577 -14.820   6.204  0.00  0.00     0.041 A 
ATOM     19  C   UNL d   1      28.543 -13.555   6.746  0.00  0.00     0.105 A 
ATOM     20  C   UNL d   1      28.187 -12.455   5.996  0.00  0.00     0.106 A 
ATOM     21  O   UNL d   1      28.834 -13.232   8.033  0.00  0.00    -0.323 OA
ATOM     22  C   UNL d   1      27.885 -12.534   4.650  0.00  0.00     0.056 A 
ATOM     23  O   UNL d   1      28.179 -11.311   6.732  0.00  0.00    -0.323 OA
ATOM     24  C   UNL d   1      28.530 -11.822   8.036  0.00  0.00     0.352 A 
ENDBRANCH   2  16
TORSDOF 4
ENDMDL
MODEL 5
REMARK VINA RESULT:    -7.385      1.517      1.758
REMARK INTER + INTRA:          -8.918
REMARK INTER:                  -8.578
REMARK INTRA:                  -0.339
REMARK CONF_INDEPENDENT:        1.193
REMARK UNBOUND:                -0.339
REMARK  4 active torsions:
REMARK  status: ('A' for Active; 'I' for Inactive)
REMARK       I    between atoms: C_2  and  N_3 
REMARK    1  A    between atoms: C_2  and  C_14 
REMARK    2  A    between atoms: N_3  and  C_4 
REMARK    3  A    between atoms: C_4  and  N_6 
REMARK    4  A    between atoms: N_6  and  C_7 
ROOT
ATOM      1  O   UNL d   1      23.994 -18.974  -0.779  0.00  0.00    -0.267 OA
ATOM      2  C   UNL d   1      23.049 -18.182  -0.784  0.00  0.00     0.257 C 
ATOM      3  N   UNL d   1      23.111 -16.808  -1.116  0.00  0.00    -0.299 N 
ATOM      4  H   UNL d   1      22.248 -16.285  -1.040  0.00  0.00     0.171 HD
ENDROOT
BRANCH   3   5
ATOM      5  C   UNL d   1      24.296 -16.092  -1.421  0.00  0.00     0.179 C 
ATOM      6  S   UNL d   1      25.767 -16.418  -0.648  0.00  0.00    -0.040 SA
BRANCH   5   7
ATOM      7  N   UNL d   1      24.138 -15.067  -2.398  0.00  0.00    -0.333 N 
ATOM      8  H   UNL d   1      23.418 -14.369  -2.253  0.00  0.00     0.168 HD
BRANCH   7   9
ATOM      9  C   UNL d   1      25.230 -14.645  -3.246  0.00  0.00     0.034 A 
ATOM     10  C   UNL d   1      25.360 -13.298  -3.623  0.00  0.00     0.031 A 
ATOM     11  C   UNL d   1      26.250 -12.895  -4.624  0.00  0.00     0.026 A 
ATOM     12  C   UNL d   1      27.081 -13.833  -5.217  0.00  0.00     0.034 A 
ATOM     13 CL   UNL d   1      28.149 -13.346  -6.477  0.00  0.00    -0.084 Cl
ATOM     14  C   UNL d   1      27.045 -15.161  -4.788  0.00  0.00     0.026 A 
ATOM     15  C   UNL d   1      26.133 -15.568  -3.790  0.00  0.00     0.031 A 
ENDBRANCH   7   9
ENDBRANCH   5   7
ENDBRANCH   3   5
BRANCH   2  16
ATOM     16  C   UNL d   1      21.762 -18.801  -0.396  0.00  0.00     0.035 A 
ATOM     17  C   UNL d   1      20.830 -19.129  -1.422  0.00  0.00     0.020 A 
ATOM     18  C   UNL d   1      19.588 -19.699  -1.119  0.00  0.00     0.041 A 
ATOM     19  C   UNL d   1      19.296 -19.890   0.212  0.00  0.00     0.105 A 
ATOM     20  C   UNL d   1      20.169 -19.506   1.207  0.00  0.00     0.106 A 
ATOM     21  O   UNL d   1      18.160 -20.448   0.707  0.00  0.00    -0.323 OA
ATOM     22  C   UNL d   1      21.406 -18.950   0.942  0.00  0.00     0.056 A 
ATOM     23  O   UNL d   1      19.671 -19.747   2.450  0.00  0.00    -0.323 OA
ATOM     24  C   UNL d   1      18.372 -20.287   2.124  0.00  0.00     0.352 A 
ENDBRANCH   2  16
TORSDOF 4
ENDMDL
MODEL 6
REMARK VINA RESULT:    -7.290      5.916      8.690
REMARK INTER + INTRA:          -9.044
REMARK INTER:                  -8.483
REMARK INTRA:                  -0.561
REMARK CONF_INDEPENDENT:        1.193
REMARK UNBOUND:                -0.561
REMARK  4 active torsions:
REMARK  status: ('A' for Active; 'I' for Inactive)
REMARK       I    between atoms: C_2  and  N_3 
REMARK    1  A    between atoms: C_2  and  C_14 
REMARK    2  A    between atoms: N_3  and  C_4 
REMARK    3  A    between atoms: C_4  and  N_6 
REMARK    4  A    between atoms: N_6  and  C_7 
ROOT
ATOM      1  O   UNL d   1      26.672 -13.715   1.434  0.00  0.00    -0.267 OA
ATOM      2  C   UNL d   1      27.670 -14.201   1.972  0.00  0.00     0.257 C 
ATOM      3  N   UNL d   1      28.588 -15.098   1.376  0.00  0.00    -0.299 N 
ATOM      4  H   UNL d   1      29.341 -15.431   1.965  0.00  0.00     0.171 HD
ENDROOT
BRANCH   3   5
ATOM      5  C   UNL d   1      28.464 -15.655   0.079  0.00  0.00     0.179 C 
ATOM      6  S   UNL d   1      28.805 -14.763  -1.318  0.00  0.00    -0.040 SA
BRANCH   5   7
ATOM      7  N   UNL d   1      28.005 -17.004   0.051  0.00  0.00    -0.333 N 
ATOM      8  H   UNL d   1      28.502 -17.695   0.601  0.00  0.00     0.168 HD
BRANCH   7   9
ATOM      9  C   UNL d   1      26.628 -17.337  -0.240  0.00  0.00     0.034 A 
ATOM     10  C   UNL d   1      25.960 -16.732  -1.317  0.00  0.00     0.031 A 
ATOM     11  C   UNL d   1      24.576 -16.844  -1.483  0.00  0.00     0.026 A 
ATOM     12  C   UNL d   1      23.844 -17.630  -0.605  0.00  0.00     0.034 A 
ATOM     13 CL   UNL d   1      22.136 -17.738  -0.784  0.00  0.00    -0.084 Cl
ATOM     14  C   UNL d   1      24.499 -18.326   0.413  0.00  0.00     0.026 A 
ATOM     15  C   UNL d   1      25.894 -18.196   0.589  0.00  0.00     0.031 A 
ENDBRANCH   7   9
ENDBRANCH   5   7
ENDBRANCH   3   5
BRANCH   2  16
ATOM     16  C   UNL d   1      27.859 -13.755   3.370  0.00  0.00     0.035 A 
ATOM     17  C   UNL d   1      27.689 -12.373   3.671  0.00  0.00     0.020 A 
ATOM     18  C   UNL d   1      27.871 -11.885   4.970  0.00  0.00     0.041 A 
ATOM     19  C   UNL d   1      28.260 -12.792   5.930  0.00  0.00     0.105 A 
ATOM     20  C   UNL d   1      28.492 -14.116   5.623  0.00  0.00     0.106 A 
ATOM     21  O   UNL d   1      28.463 -12.522   7.245  0.00  0.00    -0.323 OA
ATOM     22  C   UNL d   1      28.312 -14.632   4.354  0.00  0.00     0.056 A 
ATOM     23  O   UNL d   1      28.904 -14.830   6.705  0.00  0.00    -0.323 OA
ATOM     24  C   UNL d   1      28.942 -13.799   7.715  0.00  0.00     0.352 A 
ENDBRANCH   2  16
TORSDOF 4
ENDMDL
MODEL 7
REMARK VINA RESULT:    -7.075      3.820      4.848
REMARK INTER + INTRA:          -8.830
REMARK INTER:                  -8.268
REMARK INTRA:                  -0.562
REMARK CONF_INDEPENDENT:        1.193
REMARK UNBOUND:                -0.562
REMARK  4 active torsions:
REMARK  status: ('A' for Active; 'I' for Inactive)
REMARK       I    between atoms: C_2  and  N_3 
REMARK    1  A    between atoms: C_2  and  C_14 
REMARK    2  A    between atoms: N_3  and  C_4 
REMARK    3  A    between atoms: C_4  and  N_6 
REMARK    4  A    between atoms: N_6  and  C_7 
ROOT
ATOM      1  O   UNL d   1      25.178 -15.208  -0.984  0.00  0.00    -0.267 OA
ATOM      2  C   UNL d   1      25.438 -16.318  -0.512  0.00  0.00     0.257 C 
ATOM      3  N   UNL d   1      26.686 -16.734   0.007  0.00  0.00    -0.299 N 
ATOM      4  H   UNL d   1      26.745 -17.691   0.329  0.00  0.00     0.171 HD
ENDROOT
BRANCH   3   5
ATOM      5  C   UNL d   1      27.876 -15.964  -0.005  0.00  0.00     0.179 C 
ATOM      6  S   UNL d   1      28.805 -15.769  -1.407  0.00  0.00    -0.040 SA
BRANCH   5   7
ATOM      7  N   UNL d   1      28.234 -15.401   1.253  0.00  0.00    -0.333 N 
ATOM      8  H   UNL d   1      29.022 -15.797   1.752  0.00  0.00     0.168 HD
BRANCH   7   9
ATOM      9  C   UNL d   1      27.931 -14.028   1.592  0.00  0.00     0.034 A 
ATOM     10  C   UNL d   1      27.925 -13.609   2.932  0.00  0.00     0.031 A 
ATOM     11  C   UNL d   1      27.408 -12.367   3.314  0.00  0.00     0.026 A 
ATOM     12  C   UNL d   1      26.952 -11.489   2.342  0.00  0.00     0.034 A 
ATOM     13 CL   UNL d   1      26.279  -9.976   2.813  0.00  0.00    -0.084 Cl
ATOM     14  C   UNL d   1      27.042 -11.839   0.994  0.00  0.00     0.026 A 
ATOM     15  C   UNL d   1      27.548 -13.101   0.612  0.00  0.00     0.031 A 
ENDBRANCH   7   9
ENDBRANCH   5   7
ENDBRANCH   3   5
BRANCH   2  16
ATOM     16  C   UNL d   1      24.285 -17.245  -0.525  0.00  0.00     0.035 A 
ATOM     17  C   UNL d   1      24.540 -18.646  -0.462  0.00  0.00     0.020 A 
ATOM     18  C   UNL d   1      23.493 -19.575  -0.489  0.00  0.00     0.041 A 
ATOM     19  C   UNL d   1      22.217 -19.077  -0.619  0.00  0.00     0.105 A 
ATOM     20  C   UNL d   1      21.978 -17.726  -0.751  0.00  0.00     0.106 A 
ATOM     21  O   UNL d   1      21.074 -19.810  -0.640  0.00  0.00    -0.323 OA
ATOM     22  C   UNL d   1      22.986 -16.781  -0.718  0.00  0.00     0.056 A 
ATOM     23  O   UNL d   1      20.654 -17.451  -0.905  0.00  0.00    -0.323 OA
ATOM     24  C   UNL d   1      20.095 -18.782  -0.896  0.00  0.00     0.352 A 
ENDBRANCH   2  16
TORSDOF 4
ENDMDL
MODEL 8
REMARK VINA RESULT:    -6.985      4.243      8.957
REMARK INTER + INTRA:          -8.926
REMARK INTER:                  -8.178
REMARK INTRA:                  -0.748
REMARK CONF_INDEPENDENT:        1.193
REMARK UNBOUND:                -0.748
REMARK  4 active torsions:
REMARK  status: ('A' for Active; 'I' for Inactive)
REMARK       I    between atoms: C_2  and  N_3 
REMARK    1  A    between atoms: C_2  and  C_14 
REMARK    2  A    between atoms: N_3  and  C_4 
REMARK    3  A    between atoms: C_4  and  N_6 
REMARK    4  A    between atoms: N_6  and  C_7 
ROOT
ATOM      1  O   UNL d   1      25.089 -15.221  -3.132  0.00  0.00    -0.267 OA
ATOM      2  C   UNL d   1      26.317 -15.336  -3.169  0.00  0.00     0.257 C 
ATOM      3  N   UNL d   1      27.122 -16.011  -2.221  0.00  0.00    -0.299 N 
ATOM      4  H   UNL d   1      28.121 -15.988  -2.379  0.00  0.00     0.171 HD
ENDROOT
BRANCH   3   5
ATOM      5  C   UNL d   1      26.654 -16.600  -1.020  0.00  0.00     0.179 C 
ATOM      6  S   UNL d   1      27.582 -17.711  -0.143  0.00  0.00    -0.040 SA
BRANCH   5   7
ATOM      7  N   UNL d   1      25.341 -16.205  -0.635  0.00  0.00    -0.333 N 
ATOM      8  H   UNL d   1      25.108 -15.218  -0.654  0.00  0.00     0.168 HD
BRANCH   7   9
ATOM      9  C   UNL d   1      24.208 -17.096  -0.751  0.00  0.00     0.034 A 
ATOM     10  C   UNL d   1      22.924 -16.588  -1.006  0.00  0.00     0.031 A 
ATOM     11  C   UNL d   1      21.780 -17.383  -0.888  0.00  0.00     0.026 A 
ATOM     12  C   UNL d   1      21.911 -18.728  -0.579  0.00  0.00     0.034 A 
ATOM     13 CL   UNL d   1      20.502 -19.699  -0.394  0.00  0.00    -0.084 Cl
ATOM     14  C   UNL d   1      23.183 -19.282  -0.422  0.00  0.00     0.026 A 
ATOM     15  C   UNL d   1      24.336 -18.473  -0.524  0.00  0.00     0.031 A 
ENDBRANCH   7   9
ENDBRANCH   5   7
ENDBRANCH   3   5
BRANCH   2  16
ATOM     16  C   UNL d   1      26.933 -14.682  -4.344  0.00  0.00     0.035 A 
ATOM     17  C   UNL d   1      27.991 -15.356  -5.020  0.00  0.00     0.020 A 
ATOM     18  C   UNL d   1      28.627 -14.782  -6.126  0.00  0.00     0.041 A 
ATOM     19  C   UNL d   1      28.211 -13.525  -6.504  0.00  0.00     0.105 A 
ATOM     20  C   UNL d   1      27.237 -12.845  -5.806  0.00  0.00     0.106 A 
ATOM     21  O   UNL d   1      28.685 -12.813  -7.560  0.00  0.00    -0.323 OA
ATOM     22  C   UNL d   1      26.582 -13.386  -4.716  0.00  0.00     0.056 A 
ATOM     23  O   UNL d   1      27.004 -11.607  -6.321  0.00  0.00    -0.323 OA
ATOM     24  C   UNL d   1      27.970 -11.572  -7.395  0.00  0.00     0.352 A 
ENDBRANCH   2  16
TORSDOF 4
ENDMDL
MODEL 9
REMARK VINA RESULT:    -6.782      3.062      4.318
REMARK INTER + INTRA:          -8.921
REMARK INTER:                  -7.975
REMARK INTRA:                  -0.946
REMARK CONF_INDEPENDENT:        1.193
REMARK UNBOUND:                -0.946
REMARK  4 active torsions:
REMARK  status: ('A' for Active; 'I' for Inactive)
REMARK       I    between atoms: C_2  and  N_3 
REMARK    1  A    between atoms: C_2  and  C_14 
REMARK    2  A    between atoms: N_3  and  C_4 
REMARK    3  A    between atoms: C_4  and  N_6 
REMARK    4  A    between atoms: N_6  and  C_7 
ROOT
ATOM      1  O   UNL d   1      26.736 -18.326   0.520  0.00  0.00    -0.267 OA
ATOM      2  C   UNL d   1      26.264 -17.347  -0.063  0.00  0.00     0.257 C 
ATOM      3  N   UNL d   1      26.975 -16.193  -0.469  0.00  0.00    -0.299 N 
ATOM      4  H   UNL d   1      26.434 -15.461  -0.910  0.00  0.00     0.171 HD
ENDROOT
BRANCH   3   5
ATOM      5  C   UNL d   1      28.342 -15.936  -0.197  0.00  0.00     0.179 C 
ATOM      6  S   UNL d   1      28.913 -14.377   0.138  0.00  0.00    -0.040 SA
BRANCH   5   7
ATOM      7  N   UNL d   1      29.188 -17.080  -0.259  0.00  0.00    -0.333 N 
ATOM      8  H   UNL d   1      29.009 -17.848   0.378  0.00  0.00     0.168 HD
BRANCH   7   9
ATOM      9  C   UNL d   1      29.891 -17.447  -1.468  0.00  0.00     0.034 A 
ATOM     10  C   UNL d   1      29.637 -16.772  -2.673  0.00  0.00     0.031 A 
ATOM     11  C   UNL d   1      30.112 -17.249  -3.899  0.00  0.00     0.026 A 
ATOM     12  C   UNL d   1      30.914 -18.379  -3.929  0.00  0.00     0.034 A 
ATOM     13 CL   UNL d   1      31.466 -18.990  -5.441  0.00  0.00    -0.084 Cl
ATOM     14  C   UNL d   1      31.267 -19.010  -2.734  0.00  0.00     0.026 A 
ATOM     15  C   UNL d   1      30.772 -18.537  -1.499  0.00  0.00     0.031 A 
ENDBRANCH   7   9
ENDBRANCH   5   7
ENDBRANCH   3   5
BRANCH   2  16
ATOM     16  C   UNL d   1      24.813 -17.465  -0.328  0.00  0.00     0.035 A 
ATOM     17  C   UNL d   1      24.084 -16.284  -0.652  0.00  0.00     0.020 A 
ATOM     18  C   UNL d   1      22.707 -16.326  -0.895  0.00  0.00     0.041 A 
ATOM     19  C   UNL d   1      22.086 -17.548  -0.766  0.00  0.00     0.105 A 
ATOM     20  C   UNL d   1      22.779 -18.675  -0.383  0.00  0.00     0.106 A 
ATOM     21  O   UNL d   1      20.768 -17.798  -0.982  0.00  0.00    -0.323 OA
ATOM     22  C   UNL d   1      24.141 -18.671  -0.145  0.00  0.00     0.056 A 
ATOM     23  O   UNL d   1      21.972 -19.765  -0.279  0.00  0.00    -0.323 OA
ATOM     24  C   UNL d   1      20.689 -19.187  -0.600  0.00  0.00     0.352 A 
ENDBRANCH   2  16
TORSDOF 4
ENDMDL
