MODEL 1
REMARK VINA RESULT:    -8.494      0.000      0.000
REMARK INTER + INTRA:         -14.546
REMARK INTER:                 -11.775
REMARK INTRA:                  -2.771
REMARK CONF_INDEPENDENT:        3.281
REMARK UNBOUND:                -2.771
REMARK  11 active torsions:
REMARK  status: ('A' for Active; 'I' for Inactive)
REMARK    1  A    between atoms: C_2  and  O_3 
REMARK    2  A    between atoms: O_3  and  C_4 
REMARK    3  A    between atoms: C_10  and  C_11 
REMARK       I    between atoms: C_11  and  N_13 
REMARK    4  A    between atoms: N_13  and  C_14 
REMARK    5  A    between atoms: C_14  and  C_15 
REMARK    6  A    between atoms: C_15  and  C_16 
REMARK    7  A    between atoms: C_19  and  O_20 
REMARK    8  A    between atoms: C_22  and  O_23 
REMARK    9  A    between atoms: C_26  and  N_27 
REMARK   10  A    between atoms: N_27  and  N_28 
REMARK       I    between atoms: N_28  and  C_29 
REMARK   11  A    between atoms: C_29  and  C_31 
ROOT
ATOM      1  C   UNL d   1      29.316 -11.970   8.266  0.00  0.00     0.103 C 
ATOM      2  C   UNL d   1      30.215 -12.834   8.879  0.00  0.00     0.040 C 
ATOM      3  C   UNL d   1      30.594 -14.016   8.237  0.00  0.00     0.004 C 
ATOM      4  C   UNL d   1      29.973 -14.406   7.050  0.00  0.00     0.014 C 
ATOM      5  C   UNL d   1      29.168 -13.498   6.368  0.00  0.00     0.002 A 
ATOM      6  C   UNL d   1      28.699 -13.751   5.008  0.00  0.00     0.035 A 
ATOM      7  C   UNL d   1      28.041 -12.807   4.308  0.00  0.00     0.085 A 
ATOM      8  C   UNL d   1      27.775 -11.540   5.009  0.00  0.00     0.178 A 
ATOM      9  O   UNL d   1      28.131 -11.301   6.303  0.00  0.00    -0.288 OA
ATOM     10  C   UNL d   1      28.865 -12.285   6.984  0.00  0.00     0.121 A 
ENDROOT
BRANCH   7  11
ATOM     11  C   UNL d   1      27.657 -13.149   2.879  0.00  0.00     0.256 C 
ATOM     12  O   UNL d   1      26.574 -12.779   2.433  0.00  0.00    -0.268 OA
ATOM     13  N   UNL d   1      28.525 -13.877   2.089  0.00  0.00    -0.356 N 
ATOM     14  H   UNL d   1      29.445 -14.211   2.205  0.00  0.00     0.162 HD
BRANCH  13  15
ATOM     15  C   UNL d   1      28.242 -14.224   0.710  0.00  0.00     0.127 C 
BRANCH  15  16
ATOM     16  C   UNL d   1      28.296 -15.762   0.592  0.00  0.00     0.058 C 
BRANCH  16  17
ATOM     17  C   UNL d   1      27.018 -16.314   0.068  0.00  0.00    -0.054 A 
ATOM     18  C   UNL d   1      26.523 -17.497   0.602  0.00  0.00     0.010 A 
ATOM     19  C   UNL d   1      25.357 -18.047   0.092  0.00  0.00     0.040 A 
ATOM     20  C   UNL d   1      24.758 -17.504  -1.050  0.00  0.00     0.101 A 
ATOM     21  C   UNL d   1      25.262 -16.308  -1.600  0.00  0.00     0.102 A 
ATOM     22  C   UNL d   1      26.348 -15.682  -0.984  0.00  0.00     0.046 A 
BRANCH  20  23
ATOM     23  O   UNL d   1      23.689 -18.084  -1.687  0.00  0.00    -0.353 OA
ATOM     24  C   UNL d   1      22.503 -18.248  -0.915  0.00  0.00     0.210 C 
ENDBRANCH  20  23
BRANCH  21  25
ATOM     25  O   UNL d   1      24.652 -15.832  -2.733  0.00  0.00    -0.353 OA
ATOM     26  C   UNL d   1      24.785 -14.443  -3.012  0.00  0.00     0.210 C 
ENDBRANCH  21  25
ENDBRANCH  16  17
ENDBRANCH  15  16
ENDBRANCH  13  15
ENDBRANCH   7  11
BRANCH   8  27
ATOM     27  N   UNL d   1      27.179 -10.556   4.479  0.00  0.00    -0.276 N 
ATOM     28  H   UNL d   1      26.751  -9.905   5.106  0.00  0.00     0.189 HD
BRANCH  27  29
ATOM     29  N   UNL d   1      26.997 -10.201   3.169  0.00  0.00    -0.262 N 
ATOM     30  C   UNL d   1      26.690  -8.861   2.949  0.00  0.00     0.293 C 
ATOM     31  O   UNL d   1      26.679  -8.076   3.909  0.00  0.00    -0.264 OA
ATOM     32  H   UNL d   1      27.087 -10.900   2.440  0.00  0.00     0.190 HD
BRANCH  30  33
ATOM     33  C   UNL d   1      26.343  -8.575   1.591  0.00  0.00     0.144 A 
ATOM     34  C   UNL d   1      27.038  -8.899   0.444  0.00  0.00     0.045 A 
ATOM     35  C   UNL d   1      26.288  -8.405  -0.638  0.00  0.00     0.027 A 
ATOM     36  C   UNL d   1      25.186  -7.788  -0.092  0.00  0.00     0.143 A 
ATOM     37  O   UNL d   1      25.203  -7.899   1.268  0.00  0.00    -0.317 OA
ENDBRANCH  30  33
ENDBRANCH  27  29
ENDBRANCH   8  27
BRANCH   1  38
ATOM     38  O   UNL d   1      28.788 -10.846   8.840  0.00  0.00    -0.349 OA
BRANCH  38  39
ATOM     39  C   UNL d   1      29.657  -9.715   8.887  0.00  0.00     0.171 C 
ATOM     40  C   UNL d   1      29.846  -9.217   7.466  0.00  0.00     0.034 C 
ENDBRANCH  38  39
ENDBRANCH   1  38
TORSDOF 11
ENDMDL
MODEL 2
REMARK VINA RESULT:    -8.085      1.606      2.322
REMARK INTER + INTRA:         -14.102
REMARK INTER:                 -11.367
REMARK INTRA:                  -2.736
REMARK CONF_INDEPENDENT:        3.281
REMARK UNBOUND:                -2.736
REMARK  11 active torsions:
REMARK  status: ('A' for Active; 'I' for Inactive)
REMARK    1  A    between atoms: C_2  and  O_3 
REMARK    2  A    between atoms: O_3  and  C_4 
REMARK    3  A    between atoms: C_10  and  C_11 
REMARK       I    between atoms: C_11  and  N_13 
REMARK    4  A    between atoms: N_13  and  C_14 
REMARK    5  A    between atoms: C_14  and  C_15 
REMARK    6  A    between atoms: C_15  and  C_16 
REMARK    7  A    between atoms: C_19  and  O_20 
REMARK    8  A    between atoms: C_22  and  O_23 
REMARK    9  A    between atoms: C_26  and  N_27 
REMARK   10  A    between atoms: N_27  and  N_28 
REMARK       I    between atoms: N_28  and  C_29 
REMARK   11  A    between atoms: C_29  and  C_31 
ROOT
ATOM      1  C   UNL d   1      29.239 -12.066   8.026  0.00  0.00     0.103 C 
ATOM      2  C   UNL d   1      30.075 -13.032   8.574  0.00  0.00     0.040 C 
ATOM      3  C   UNL d   1      30.423 -14.159   7.824  0.00  0.00     0.004 C 
ATOM      4  C   UNL d   1      29.828 -14.394   6.583  0.00  0.00     0.014 C 
ATOM      5  C   UNL d   1      29.091 -13.383   5.976  0.00  0.00     0.002 A 
ATOM      6  C   UNL d   1      28.661 -13.471   4.582  0.00  0.00     0.035 A 
ATOM      7  C   UNL d   1      28.072 -12.429   3.965  0.00  0.00     0.085 A 
ATOM      8  C   UNL d   1      27.839 -11.229   4.785  0.00  0.00     0.178 A 
ATOM      9  O   UNL d   1      28.158 -11.142   6.108  0.00  0.00    -0.288 OA
ATOM     10  C   UNL d   1      28.821 -12.226   6.704  0.00  0.00     0.121 A 
ENDROOT
BRANCH   7  11
ATOM     11  C   UNL d   1      27.725 -12.603   2.496  0.00  0.00     0.256 C 
ATOM     12  O   UNL d   1      28.082 -11.756   1.681  0.00  0.00    -0.268 OA
ATOM     13  N   UNL d   1      27.008 -13.709   2.084  0.00  0.00    -0.356 N 
ATOM     14  H   UNL d   1      26.684 -14.525   2.532  0.00  0.00     0.162 HD
BRANCH  13  15
ATOM     15  C   UNL d   1      26.657 -13.957   0.700  0.00  0.00     0.127 C 
BRANCH  15  16
ATOM     16  C   UNL d   1      27.498 -15.155   0.209  0.00  0.00     0.058 C 
BRANCH  16  17
ATOM     17  C   UNL d   1      27.409 -15.316  -1.267  0.00  0.00    -0.054 A 
ATOM     18  C   UNL d   1      28.567 -15.569  -1.991  0.00  0.00     0.010 A 
ATOM     19  C   UNL d   1      28.506 -15.676  -3.372  0.00  0.00     0.040 A 
ATOM     20  C   UNL d   1      27.319 -15.384  -4.053  0.00  0.00     0.101 A 
ATOM     21  C   UNL d   1      26.142 -15.119  -3.323  0.00  0.00     0.102 A 
ATOM     22  C   UNL d   1      26.185 -15.163  -1.928  0.00  0.00     0.046 A 
BRANCH  20  23
ATOM     23  O   UNL d   1      27.230 -15.331  -5.422  0.00  0.00    -0.353 OA
ATOM     24  C   UNL d   1      28.036 -14.352  -6.072  0.00  0.00     0.210 C 
ENDBRANCH  20  23
BRANCH  21  25
ATOM     25  O   UNL d   1      25.013 -14.816  -4.040  0.00  0.00    -0.353 OA
ATOM     26  C   UNL d   1      24.731 -13.439  -4.264  0.00  0.00     0.210 C 
ENDBRANCH  21  25
ENDBRANCH  16  17
ENDBRANCH  15  16
ENDBRANCH  13  15
ENDBRANCH   7  11
BRANCH   8  27
ATOM     27  N   UNL d   1      27.308 -10.168   4.343  0.00  0.00    -0.276 N 
ATOM     28  H   UNL d   1      26.998  -9.507   5.026  0.00  0.00     0.189 HD
BRANCH  27  29
ATOM     29  N   UNL d   1      27.064  -9.737   3.066  0.00  0.00    -0.262 N 
ATOM     30  C   UNL d   1      26.882  -8.364   2.921  0.00  0.00     0.293 C 
ATOM     31  O   UNL d   1      27.028  -7.626   3.907  0.00  0.00    -0.264 OA
ATOM     32  H   UNL d   1      27.023 -10.408   2.306  0.00  0.00     0.190 HD
BRANCH  30  33
ATOM     33  C   UNL d   1      26.463  -7.984   1.607  0.00  0.00     0.144 A 
ATOM     34  C   UNL d   1      27.234  -7.838   0.473  0.00  0.00     0.045 A 
ATOM     35  C   UNL d   1      26.362  -7.455  -0.563  0.00  0.00     0.027 A 
ATOM     36  C   UNL d   1      25.110  -7.368   0.001  0.00  0.00     0.143 A 
ATOM     37  O   UNL d   1      25.158  -7.703   1.323  0.00  0.00    -0.317 OA
ENDBRANCH  30  33
ENDBRANCH  27  29
ENDBRANCH   8  27
BRANCH   1  38
ATOM     38  O   UNL d   1      28.743 -10.983   8.698  0.00  0.00    -0.349 OA
BRANCH  38  39
ATOM     39  C   UNL d   1      29.652  -9.895   8.864  0.00  0.00     0.171 C 
ATOM     40  C   UNL d   1      29.464  -8.951   7.691  0.00  0.00     0.034 C 
ENDBRANCH  38  39
ENDBRANCH   1  38
TORSDOF 11
ENDMDL
MODEL 3
REMARK VINA RESULT:    -7.793      6.884      8.659
REMARK INTER + INTRA:         -14.503
REMARK INTER:                 -11.074
REMARK INTRA:                  -3.429
REMARK CONF_INDEPENDENT:        3.281
REMARK UNBOUND:                -3.429
REMARK  11 active torsions:
REMARK  status: ('A' for Active; 'I' for Inactive)
REMARK    1  A    between atoms: C_2  and  O_3 
REMARK    2  A    between atoms: O_3  and  C_4 
REMARK    3  A    between atoms: C_10  and  C_11 
REMARK       I    between atoms: C_11  and  N_13 
REMARK    4  A    between atoms: N_13  and  C_14 
REMARK    5  A    between atoms: C_14  and  C_15 
REMARK    6  A    between atoms: C_15  and  C_16 
REMARK    7  A    between atoms: C_19  and  O_20 
REMARK    8  A    between atoms: C_22  and  O_23 
REMARK    9  A    between atoms: C_26  and  N_27 
REMARK   10  A    between atoms: N_27  and  N_28 
REMARK       I    between atoms: N_28  and  C_29 
REMARK   11  A    between atoms: C_29  and  C_31 
ROOT
ATOM      1  C   UNL d   1      24.454 -17.050  -0.310  0.00  0.00     0.103 C 
ATOM      2  C   UNL d   1      25.163 -17.807   0.614  0.00  0.00     0.040 C 
ATOM      3  C   UNL d   1      26.524 -18.057   0.414  0.00  0.00     0.004 C 
ATOM      4  C   UNL d   1      27.146 -17.673  -0.775  0.00  0.00     0.014 C 
ATOM      5  C   UNL d   1      26.484 -16.813  -1.646  0.00  0.00     0.002 A 
ATOM      6  C   UNL d   1      27.168 -16.176  -2.769  0.00  0.00     0.035 A 
ATOM      7  C   UNL d   1      26.555 -15.239  -3.520  0.00  0.00     0.085 A 
ATOM      8  C   UNL d   1      25.154 -14.941  -3.179  0.00  0.00     0.178 A 
ATOM      9  O   UNL d   1      24.465 -15.574  -2.188  0.00  0.00    -0.288 OA
ATOM     10  C   UNL d   1      25.150 -16.503  -1.390  0.00  0.00     0.121 A 
ENDROOT
BRANCH   7  11
ATOM     11  C   UNL d   1      27.377 -14.591  -4.620  0.00  0.00     0.256 C 
ATOM     12  O   UNL d   1      27.399 -15.091  -5.741  0.00  0.00    -0.268 OA
ATOM     13  N   UNL d   1      28.100 -13.444  -4.354  0.00  0.00    -0.356 N 
ATOM     14  H   UNL d   1      28.179 -12.845  -3.575  0.00  0.00     0.162 HD
BRANCH  13  15
ATOM     15  C   UNL d   1      28.891 -12.754  -5.354  0.00  0.00     0.127 C 
BRANCH  15  16
ATOM     16  C   UNL d   1      30.342 -13.269  -5.243  0.00  0.00     0.058 C 
BRANCH  16  17
ATOM     17  C   UNL d   1      30.399 -14.754  -5.281  0.00  0.00    -0.054 A 
ATOM     18  C   UNL d   1      30.425 -15.399  -6.512  0.00  0.00     0.010 A 
ATOM     19  C   UNL d   1      30.432 -16.785  -6.563  0.00  0.00     0.040 A 
ATOM     20  C   UNL d   1      30.263 -17.537  -5.396  0.00  0.00     0.101 A 
ATOM     21  C   UNL d   1      30.228 -16.887  -4.145  0.00  0.00     0.102 A 
ATOM     22  C   UNL d   1      30.374 -15.500  -4.098  0.00  0.00     0.046 A 
BRANCH  20  23
ATOM     23  O   UNL d   1      30.116 -18.902  -5.395  0.00  0.00    -0.353 OA
ATOM     24  C   UNL d   1      30.514 -19.583  -6.582  0.00  0.00     0.210 C 
ENDBRANCH  20  23
BRANCH  21  25
ATOM     25  O   UNL d   1      30.036 -17.671  -3.036  0.00  0.00    -0.353 OA
ATOM     26  C   UNL d   1      30.877 -17.430  -1.913  0.00  0.00     0.210 C 
ENDBRANCH  21  25
ENDBRANCH  16  17
ENDBRANCH  15  16
ENDBRANCH  13  15
ENDBRANCH   7  11
BRANCH   8  27
ATOM     27  N   UNL d   1      24.453 -14.078  -3.785  0.00  0.00    -0.276 N 
ATOM     28  H   UNL d   1      23.461 -14.170  -3.698  0.00  0.00     0.189 HD
BRANCH  27  29
ATOM     29  N   UNL d   1      24.802 -13.009  -4.567  0.00  0.00    -0.262 N 
ATOM     30  C   UNL d   1      25.675 -12.097  -3.981  0.00  0.00     0.293 C 
ATOM     31  O   UNL d   1      26.137 -12.338  -2.855  0.00  0.00    -0.264 OA
ATOM     32  H   UNL d   1      24.422 -12.924  -5.504  0.00  0.00     0.190 HD
BRANCH  30  33
ATOM     33  C   UNL d   1      25.874 -10.918  -4.765  0.00  0.00     0.144 A 
ATOM     34  C   UNL d   1      26.356  -9.691  -4.358  0.00  0.00     0.045 A 
ATOM     35  C   UNL d   1      26.369  -8.863  -5.495  0.00  0.00     0.027 A 
ATOM     36  C   UNL d   1      25.876  -9.623  -6.530  0.00  0.00     0.143 A 
ATOM     37  O   UNL d   1      25.584 -10.885  -6.098  0.00  0.00    -0.317 OA
ENDBRANCH  30  33
ENDBRANCH  27  29
ENDBRANCH   8  27
BRANCH   1  38
ATOM     38  O   UNL d   1      23.105 -16.833  -0.280  0.00  0.00    -0.349 OA
BRANCH  38  39
ATOM     39  C   UNL d   1      22.298 -18.003  -0.146  0.00  0.00     0.171 C 
ATOM     40  C   UNL d   1      22.664 -18.950  -1.273  0.00  0.00     0.034 C 
ENDBRANCH  38  39
ENDBRANCH   1  38
TORSDOF 11
ENDMDL
MODEL 4
REMARK VINA RESULT:    -7.617      1.660      2.374
REMARK INTER + INTRA:         -14.559
REMARK INTER:                 -10.899
REMARK INTRA:                  -3.661
REMARK CONF_INDEPENDENT:        3.281
REMARK UNBOUND:                -3.661
REMARK  11 active torsions:
REMARK  status: ('A' for Active; 'I' for Inactive)
REMARK    1  A    between atoms: C_2  and  O_3 
REMARK    2  A    between atoms: O_3  and  C_4 
REMARK    3  A    between atoms: C_10  and  C_11 
REMARK       I    between atoms: C_11  and  N_13 
REMARK    4  A    between atoms: N_13  and  C_14 
REMARK    5  A    between atoms: C_14  and  C_15 
REMARK    6  A    between atoms: C_15  and  C_16 
REMARK    7  A    between atoms: C_19  and  O_20 
REMARK    8  A    between atoms: C_22  and  O_23 
REMARK    9  A    between atoms: C_26  and  N_27 
REMARK   10  A    between atoms: N_27  and  N_28 
REMARK       I    between atoms: N_28  and  C_29 
REMARK   11  A    between atoms: C_29  and  C_31 
ROOT
ATOM      1  C   UNL d   1      28.148 -12.021   5.878  0.00  0.00     0.103 C 
ATOM      2  C   UNL d   1      28.663 -12.732   6.955  0.00  0.00     0.040 C 
ATOM      3  C   UNL d   1      29.012 -14.077   6.799  0.00  0.00     0.004 C 
ATOM      4  C   UNL d   1      28.719 -14.751   5.613  0.00  0.00     0.014 C 
ATOM      5  C   UNL d   1      28.320 -14.025   4.494  0.00  0.00     0.002 A 
ATOM      6  C   UNL d   1      28.244 -14.631   3.167  0.00  0.00     0.035 A 
ATOM      7  C   UNL d   1      27.995 -13.887   2.072  0.00  0.00     0.085 A 
ATOM      8  C   UNL d   1      27.749 -12.453   2.297  0.00  0.00     0.178 A 
ATOM      9  O   UNL d   1      27.736 -11.871   3.530  0.00  0.00    -0.288 OA
ATOM     10  C   UNL d   1      28.055 -12.665   4.643  0.00  0.00     0.121 A 
ENDROOT
BRANCH   7  11
ATOM     11  C   UNL d   1      28.005 -14.604   0.734  0.00  0.00     0.256 C 
ATOM     12  O   UNL d   1      27.401 -14.123  -0.221  0.00  0.00    -0.268 OA
ATOM     13  N   UNL d   1      28.690 -15.796   0.596  0.00  0.00    -0.356 N 
ATOM     14  H   UNL d   1      29.283 -16.321   1.184  0.00  0.00     0.162 HD
BRANCH  13  15
ATOM     15  C   UNL d   1      28.765 -16.529  -0.652  0.00  0.00     0.127 C 
BRANCH  15  16
ATOM     16  C   UNL d   1      27.943 -17.825  -0.486  0.00  0.00     0.058 C 
BRANCH  16  17
ATOM     17  C   UNL d   1      26.483 -17.544  -0.446  0.00  0.00    -0.054 A 
ATOM     18  C   UNL d   1      25.654 -18.372   0.300  0.00  0.00     0.010 A 
ATOM     19  C   UNL d   1      24.286 -18.149   0.310  0.00  0.00     0.040 A 
ATOM     20  C   UNL d   1      23.719 -17.194  -0.540  0.00  0.00     0.101 A 
ATOM     21  C   UNL d   1      24.555 -16.356  -1.306  0.00  0.00     0.102 A 
ATOM     22  C   UNL d   1      25.940 -16.492  -1.191  0.00  0.00     0.046 A 
BRANCH  20  23
ATOM     23  O   UNL d   1      22.364 -17.025  -0.683  0.00  0.00    -0.353 OA
ATOM     24  C   UNL d   1      21.596 -18.206  -0.894  0.00  0.00     0.210 C 
ENDBRANCH  20  23
BRANCH  21  25
ATOM     25  O   UNL d   1      23.945 -15.453  -2.139  0.00  0.00    -0.353 OA
ATOM     26  C   UNL d   1      24.774 -14.483  -2.770  0.00  0.00     0.210 C 
ENDBRANCH  21  25
ENDBRANCH  16  17
ENDBRANCH  15  16
ENDBRANCH  13  15
ENDBRANCH   7  11
BRANCH   8  27
ATOM     27  N   UNL d   1      27.514 -11.627   1.367  0.00  0.00    -0.276 N 
ATOM     28  H   UNL d   1      27.775 -11.909   0.444  0.00  0.00     0.189 HD
BRANCH  27  29
ATOM     29  N   UNL d   1      26.955 -10.376   1.381  0.00  0.00    -0.262 N 
ATOM     30  C   UNL d   1      27.032  -9.672   0.182  0.00  0.00     0.293 C 
ATOM     31  O   UNL d   1      27.512 -10.228  -0.818  0.00  0.00    -0.264 OA
ATOM     32  H   UNL d   1      26.527 -10.024   2.231  0.00  0.00     0.190 HD
BRANCH  30  33
ATOM     33  C   UNL d   1      26.591  -8.316   0.292  0.00  0.00     0.144 A 
ATOM     34  C   UNL d   1      26.935  -7.239  -0.498  0.00  0.00     0.045 A 
ATOM     35  C   UNL d   1      26.237  -6.126   0.008  0.00  0.00     0.027 A 
ATOM     36  C   UNL d   1      25.522  -6.581   1.091  0.00  0.00     0.143 A 
ATOM     37  O   UNL d   1      25.720  -7.921   1.264  0.00  0.00    -0.317 OA
ENDBRANCH  30  33
ENDBRANCH  27  29
ENDBRANCH   8  27
BRANCH   1  38
ATOM     38  O   UNL d   1      27.670 -10.741   5.937  0.00  0.00    -0.349 OA
BRANCH  38  39
ATOM     39  C   UNL d   1      28.529  -9.739   5.392  0.00  0.00     0.171 C 
ATOM     40  C   UNL d   1      27.656  -8.699   4.715  0.00  0.00     0.034 C 
ENDBRANCH  38  39
ENDBRANCH   1  38
TORSDOF 11
ENDMDL
MODEL 5
REMARK VINA RESULT:    -7.472      1.943      2.709
REMARK INTER + INTRA:         -14.348
REMARK INTER:                 -10.753
REMARK INTRA:                  -3.595
REMARK CONF_INDEPENDENT:        3.281
REMARK UNBOUND:                -3.595
REMARK  11 active torsions:
REMARK  status: ('A' for Active; 'I' for Inactive)
REMARK    1  A    between atoms: C_2  and  O_3 
REMARK    2  A    between atoms: O_3  and  C_4 
REMARK    3  A    between atoms: C_10  and  C_11 
REMARK       I    between atoms: C_11  and  N_13 
REMARK    4  A    between atoms: N_13  and  C_14 
REMARK    5  A    between atoms: C_14  and  C_15 
REMARK    6  A    between atoms: C_15  and  C_16 
REMARK    7  A    between atoms: C_19  and  O_20 
REMARK    8  A    between atoms: C_22  and  O_23 
REMARK    9  A    between atoms: C_26  and  N_27 
REMARK   10  A    between atoms: N_27  and  N_28 
REMARK       I    between atoms: N_28  and  C_29 
REMARK   11  A    between atoms: C_29  and  C_31 
ROOT
ATOM      1  C   UNL d   1      28.228 -12.036   6.152  0.00  0.00     0.103 C 
ATOM      2  C   UNL d   1      28.672 -12.794   7.229  0.00  0.00     0.040 C 
ATOM      3  C   UNL d   1      28.905 -14.163   7.068  0.00  0.00     0.004 C 
ATOM      4  C   UNL d   1      28.563 -14.803   5.876  0.00  0.00     0.014 C 
ATOM      5  C   UNL d   1      28.236 -14.041   4.759  0.00  0.00     0.002 A 
ATOM      6  C   UNL d   1      28.118 -14.632   3.429  0.00  0.00     0.035 A 
ATOM      7  C   UNL d   1      27.940 -13.864   2.336  0.00  0.00     0.085 A 
ATOM      8  C   UNL d   1      27.818 -12.415   2.567  0.00  0.00     0.178 A 
ATOM      9  O   UNL d   1      27.846 -11.841   3.803  0.00  0.00    -0.288 OA
ATOM     10  C   UNL d   1      28.088 -12.664   4.914  0.00  0.00     0.121 A 
ENDROOT
BRANCH   7  11
ATOM     11  C   UNL d   1      27.898 -14.573   0.994  0.00  0.00     0.256 C 
ATOM     12  O   UNL d   1      27.092 -14.215   0.139  0.00  0.00    -0.268 OA
ATOM     13  N   UNL d   1      28.763 -15.620   0.741  0.00  0.00    -0.356 N 
ATOM     14  H   UNL d   1      29.516 -16.025   1.232  0.00  0.00     0.162 HD
BRANCH  13  15
ATOM     15  C   UNL d   1      28.799 -16.333  -0.521  0.00  0.00     0.127 C 
BRANCH  15  16
ATOM     16  C   UNL d   1      28.044 -17.666  -0.330  0.00  0.00     0.058 C 
BRANCH  16  17
ATOM     17  C   UNL d   1      26.570 -17.470  -0.388  0.00  0.00    -0.054 A 
ATOM     18  C   UNL d   1      25.744 -18.342   0.311  0.00  0.00     0.010 A 
ATOM     19  C   UNL d   1      24.368 -18.200   0.231  0.00  0.00     0.040 A 
ATOM     20  C   UNL d   1      23.802 -17.284  -0.663  0.00  0.00     0.101 A 
ATOM     21  C   UNL d   1      24.636 -16.402  -1.381  0.00  0.00     0.102 A 
ATOM     22  C   UNL d   1      26.016 -16.456  -1.175  0.00  0.00     0.046 A 
BRANCH  20  23
ATOM     23  O   UNL d   1      22.452 -17.195  -0.895  0.00  0.00    -0.353 OA
ATOM     24  C   UNL d   1      21.718 -18.416  -0.844  0.00  0.00     0.210 C 
ENDBRANCH  20  23
BRANCH  21  25
ATOM     25  O   UNL d   1      24.030 -15.541  -2.260  0.00  0.00    -0.353 OA
ATOM     26  C   UNL d   1      24.849 -14.553  -2.875  0.00  0.00     0.210 C 
ENDBRANCH  21  25
ENDBRANCH  16  17
ENDBRANCH  15  16
ENDBRANCH  13  15
ENDBRANCH   7  11
BRANCH   8  27
ATOM     27  N   UNL d   1      27.661 -11.568   1.640  0.00  0.00    -0.276 N 
ATOM     28  H   UNL d   1      27.797 -10.608   1.886  0.00  0.00     0.189 HD
BRANCH  27  29
ATOM     29  N   UNL d   1      27.325 -11.714   0.320  0.00  0.00    -0.262 N 
ATOM     30  C   UNL d   1      27.551 -10.600  -0.483  0.00  0.00     0.293 C 
ATOM     31  O   UNL d   1      28.100  -9.601   0.007  0.00  0.00    -0.264 OA
ATOM     32  H   UNL d   1      26.938 -12.593  -0.007  0.00  0.00     0.190 HD
BRANCH  30  33
ATOM     33  C   UNL d   1      27.031 -10.741  -1.808  0.00  0.00     0.144 A 
ATOM     34  C   UNL d   1      26.932  -9.781  -2.794  0.00  0.00     0.045 A 
ATOM     35  C   UNL d   1      26.359 -10.410  -3.915  0.00  0.00     0.027 A 
ATOM     36  C   UNL d   1      26.120 -11.713  -3.544  0.00  0.00     0.143 A 
ATOM     37  O   UNL d   1      26.540 -11.929  -2.264  0.00  0.00    -0.317 OA
ENDBRANCH  30  33
ENDBRANCH  27  29
ENDBRANCH   8  27
BRANCH   1  38
ATOM     38  O   UNL d   1      27.861 -10.720   6.215  0.00  0.00    -0.349 OA
BRANCH  38  39
ATOM     39  C   UNL d   1      28.909  -9.779   5.981  0.00  0.00     0.171 C 
ATOM     40  C   UNL d   1      28.589  -9.038   4.697  0.00  0.00     0.034 C 
ENDBRANCH  38  39
ENDBRANCH   1  38
TORSDOF 11
ENDMDL
MODEL 6
REMARK VINA RESULT:    -7.400      2.173      3.128
REMARK INTER + INTRA:         -14.371
REMARK INTER:                 -10.682
REMARK INTRA:                  -3.690
REMARK CONF_INDEPENDENT:        3.281
REMARK UNBOUND:                -3.690
REMARK  11 active torsions:
REMARK  status: ('A' for Active; 'I' for Inactive)
REMARK    1  A    between atoms: C_2  and  O_3 
REMARK    2  A    between atoms: O_3  and  C_4 
REMARK    3  A    between atoms: C_10  and  C_11 
REMARK       I    between atoms: C_11  and  N_13 
REMARK    4  A    between atoms: N_13  and  C_14 
REMARK    5  A    between atoms: C_14  and  C_15 
REMARK    6  A    between atoms: C_15  and  C_16 
REMARK    7  A    between atoms: C_19  and  O_20 
REMARK    8  A    between atoms: C_22  and  O_23 
REMARK    9  A    between atoms: C_26  and  N_27 
REMARK   10  A    between atoms: N_27  and  N_28 
REMARK       I    between atoms: N_28  and  C_29 
REMARK   11  A    between atoms: C_29  and  C_31 
ROOT
ATOM      1  C   UNL d   1      28.837 -11.908   6.752  0.00  0.00     0.103 C 
ATOM      2  C   UNL d   1      29.576 -12.727   7.597  0.00  0.00     0.040 C 
ATOM      3  C   UNL d   1      29.776 -14.070   7.266  0.00  0.00     0.004 C 
ATOM      4  C   UNL d   1      29.125 -14.633   6.167  0.00  0.00     0.014 C 
ATOM      5  C   UNL d   1      28.486 -13.802   5.251  0.00  0.00     0.002 A 
ATOM      6  C   UNL d   1      28.010 -14.296   3.962  0.00  0.00     0.035 A 
ATOM      7  C   UNL d   1      27.522 -13.456   3.028  0.00  0.00     0.085 A 
ATOM      8  C   UNL d   1      27.446 -12.034   3.403  0.00  0.00     0.178 A 
ATOM      9  O   UNL d   1      27.810 -11.553   4.625  0.00  0.00    -0.288 OA
ATOM     10  C   UNL d   1      28.366 -12.447   5.553  0.00  0.00     0.121 A 
ENDROOT
BRANCH   7  11
ATOM     11  C   UNL d   1      27.117 -14.064   1.697  0.00  0.00     0.256 C 
ATOM     12  O   UNL d   1      26.441 -13.410   0.908  0.00  0.00    -0.268 OA
ATOM     13  N   UNL d   1      27.508 -15.351   1.380  0.00  0.00    -0.356 N 
ATOM     14  H   UNL d   1      28.090 -16.019   1.812  0.00  0.00     0.162 HD
BRANCH  13  15
ATOM     15  C   UNL d   1      27.180 -15.994   0.123  0.00  0.00     0.127 C 
BRANCH  15  16
ATOM     16  C   UNL d   1      28.467 -16.042  -0.729  0.00  0.00     0.058 C 
BRANCH  16  17
ATOM     17  C   UNL d   1      28.172 -15.848  -2.174  0.00  0.00    -0.054 A 
ATOM     18  C   UNL d   1      29.220 -15.861  -3.086  0.00  0.00     0.010 A 
ATOM     19  C   UNL d   1      28.965 -15.636  -4.430  0.00  0.00     0.040 A 
ATOM     20  C   UNL d   1      27.689 -15.250  -4.854  0.00  0.00     0.101 A 
ATOM     21  C   UNL d   1      26.624 -15.228  -3.931  0.00  0.00     0.102 A 
ATOM     22  C   UNL d   1      26.865 -15.604  -2.608  0.00  0.00     0.046 A 
BRANCH  20  23
ATOM     23  O   UNL d   1      27.406 -14.875  -6.144  0.00  0.00    -0.353 OA
ATOM     24  C   UNL d   1      28.463 -14.251  -6.869  0.00  0.00     0.210 C 
ENDBRANCH  20  23
BRANCH  21  25
ATOM     25  O   UNL d   1      25.399 -14.820  -4.395  0.00  0.00    -0.353 OA
ATOM     26  C   UNL d   1      25.072 -13.442  -4.251  0.00  0.00     0.210 C 
ENDBRANCH  21  25
ENDBRANCH  16  17
ENDBRANCH  15  16
ENDBRANCH  13  15
ENDBRANCH   7  11
BRANCH   8  27
ATOM     27  N   UNL d   1      27.023 -11.126   2.628  0.00  0.00    -0.276 N 
ATOM     28  H   UNL d   1      26.834 -11.398   1.685  0.00  0.00     0.189 HD
BRANCH  27  29
ATOM     29  N   UNL d   1      26.769  -9.797   2.838  0.00  0.00    -0.262 N 
ATOM     30  C   UNL d   1      26.623  -9.025   1.689  0.00  0.00     0.293 C 
ATOM     31  O   UNL d   1      26.648  -9.580   0.579  0.00  0.00    -0.264 OA
ATOM     32  H   UNL d   1      26.704  -9.439   3.786  0.00  0.00     0.190 HD
BRANCH  30  33
ATOM     33  C   UNL d   1      26.530  -7.623   1.954  0.00  0.00     0.144 A 
ATOM     34  C   UNL d   1      26.392  -6.589   1.052  0.00  0.00     0.045 A 
ATOM     35  C   UNL d   1      26.341  -5.400   1.802  0.00  0.00     0.027 A 
ATOM     36  C   UNL d   1      26.471  -5.772   3.120  0.00  0.00     0.143 A 
ATOM     37  O   UNL d   1      26.572  -7.129   3.225  0.00  0.00    -0.317 OA
ENDBRANCH  30  33
ENDBRANCH  27  29
ENDBRANCH   8  27
BRANCH   1  38
ATOM     38  O   UNL d   1      28.482 -10.615   7.022  0.00  0.00    -0.349 OA
BRANCH  38  39
ATOM     39  C   UNL d   1      29.373  -9.617   6.524  0.00  0.00     0.171 C 
ATOM     40  C   UNL d   1      28.565  -8.660   5.668  0.00  0.00     0.034 C 
ENDBRANCH  38  39
ENDBRANCH   1  38
TORSDOF 11
ENDMDL
MODEL 7
REMARK VINA RESULT:    -7.111      2.206      8.880
REMARK INTER + INTRA:         -14.075
REMARK INTER:                 -10.393
REMARK INTRA:                  -3.682
REMARK CONF_INDEPENDENT:        3.281
REMARK UNBOUND:                -3.682
REMARK  11 active torsions:
REMARK  status: ('A' for Active; 'I' for Inactive)
REMARK    1  A    between atoms: C_2  and  O_3 
REMARK    2  A    between atoms: O_3  and  C_4 
REMARK    3  A    between atoms: C_10  and  C_11 
REMARK       I    between atoms: C_11  and  N_13 
REMARK    4  A    between atoms: N_13  and  C_14 
REMARK    5  A    between atoms: C_14  and  C_15 
REMARK    6  A    between atoms: C_15  and  C_16 
REMARK    7  A    between atoms: C_19  and  O_20 
REMARK    8  A    between atoms: C_22  and  O_23 
REMARK    9  A    between atoms: C_26  and  N_27 
REMARK   10  A    between atoms: N_27  and  N_28 
REMARK       I    between atoms: N_28  and  C_29 
REMARK   11  A    between atoms: C_29  and  C_31 
ROOT
ATOM      1  C   UNL d   1      25.016 -15.918  -2.259  0.00  0.00     0.103 C 
ATOM      2  C   UNL d   1      24.449 -17.164  -2.020  0.00  0.00     0.040 C 
ATOM      3  C   UNL d   1      24.832 -17.900  -0.895  0.00  0.00     0.004 C 
ATOM      4  C   UNL d   1      25.880 -17.460  -0.085  0.00  0.00     0.014 C 
ATOM      5  C   UNL d   1      26.369 -16.166  -0.242  0.00  0.00     0.002 A 
ATOM      6  C   UNL d   1      27.279 -15.562   0.729  0.00  0.00     0.035 A 
ATOM      7  C   UNL d   1      27.632 -14.265   0.642  0.00  0.00     0.085 A 
ATOM      8  C   UNL d   1      27.098 -13.517  -0.508  0.00  0.00     0.178 A 
ATOM      9  O   UNL d   1      26.310 -14.071  -1.472  0.00  0.00    -0.288 OA
ATOM     10  C   UNL d   1      25.916 -15.409  -1.320  0.00  0.00     0.121 A 
ENDROOT
BRANCH   7  11
ATOM     11  C   UNL d   1      28.528 -13.719   1.740  0.00  0.00     0.256 C 
ATOM     12  O   UNL d   1      28.685 -12.506   1.853  0.00  0.00    -0.268 OA
ATOM     13  N   UNL d   1      29.166 -14.588   2.604  0.00  0.00    -0.356 N 
ATOM     14  H   UNL d   1      29.139 -15.563   2.743  0.00  0.00     0.162 HD
BRANCH  13  15
ATOM     15  C   UNL d   1      30.020 -14.146   3.689  0.00  0.00     0.127 C 
BRANCH  15  16
ATOM     16  C   UNL d   1      29.498 -14.791   4.990  0.00  0.00     0.058 C 
BRANCH  16  17
ATOM     17  C   UNL d   1      29.155 -13.763   6.009  0.00  0.00    -0.054 A 
ATOM     18  C   UNL d   1      28.786 -12.491   5.590  0.00  0.00     0.010 A 
ATOM     19  C   UNL d   1      28.507 -11.510   6.529  0.00  0.00     0.040 A 
ATOM     20  C   UNL d   1      28.738 -11.746   7.889  0.00  0.00     0.101 A 
ATOM     21  C   UNL d   1      29.121 -13.033   8.319  0.00  0.00     0.102 A 
ATOM     22  C   UNL d   1      29.251 -14.053   7.374  0.00  0.00     0.046 A 
BRANCH  20  23
ATOM     23  O   UNL d   1      28.621 -10.774   8.851  0.00  0.00    -0.353 OA
ATOM     24  C   UNL d   1      29.607  -9.746   8.838  0.00  0.00     0.210 C 
ENDBRANCH  20  23
BRANCH  21  25
ATOM     25  O   UNL d   1      29.357 -13.202   9.660  0.00  0.00    -0.353 OA
ATOM     26  C   UNL d   1      28.566 -14.166  10.345  0.00  0.00     0.210 C 
ENDBRANCH  21  25
ENDBRANCH  16  17
ENDBRANCH  15  16
ENDBRANCH  13  15
ENDBRANCH   7  11
BRANCH   8  27
ATOM     27  N   UNL d   1      27.331 -12.290  -0.716  0.00  0.00    -0.276 N 
ATOM     28  H   UNL d   1      27.972 -11.846  -0.090  0.00  0.00     0.189 HD
BRANCH  27  29
ATOM     29  N   UNL d   1      26.856 -11.421  -1.662  0.00  0.00    -0.262 N 
ATOM     30  C   UNL d   1      27.034 -10.070  -1.379  0.00  0.00     0.293 C 
ATOM     31  O   UNL d   1      27.664  -9.741  -0.362  0.00  0.00    -0.264 OA
ATOM     32  H   UNL d   1      26.407 -11.781  -2.498  0.00  0.00     0.190 HD
BRANCH  30  33
ATOM     33  C   UNL d   1      26.375  -9.204  -2.307  0.00  0.00     0.144 A 
ATOM     34  C   UNL d   1      26.342  -7.825  -2.315  0.00  0.00     0.045 A 
ATOM     35  C   UNL d   1      25.570  -7.444  -3.428  0.00  0.00     0.027 A 
ATOM     36  C   UNL d   1      25.157  -8.612  -4.027  0.00  0.00     0.143 A 
ATOM     37  O   UNL d   1      25.655  -9.692  -3.358  0.00  0.00    -0.317 OA
ENDBRANCH  30  33
ENDBRANCH  27  29
ENDBRANCH   8  27
BRANCH   1  38
ATOM     38  O   UNL d   1      24.805 -15.159  -3.377  0.00  0.00    -0.349 OA
BRANCH  38  39
ATOM     39  C   UNL d   1      25.939 -14.988  -4.226  0.00  0.00     0.171 C 
ATOM     40  C   UNL d   1      26.032 -13.517  -4.585  0.00  0.00     0.034 C 
ENDBRANCH  38  39
ENDBRANCH   1  38
TORSDOF 11
ENDMDL
MODEL 8
REMARK VINA RESULT:    -6.578      2.427      8.336
REMARK INTER + INTRA:         -14.028
REMARK INTER:                  -9.859
REMARK INTRA:                  -4.169
REMARK CONF_INDEPENDENT:        3.281
REMARK UNBOUND:                -4.169
REMARK  11 active torsions:
REMARK  status: ('A' for Active; 'I' for Inactive)
REMARK    1  A    between atoms: C_2  and  O_3 
REMARK    2  A    between atoms: O_3  and  C_4 
REMARK    3  A    between atoms: C_10  and  C_11 
REMARK       I    between atoms: C_11  and  N_13 
REMARK    4  A    between atoms: N_13  and  C_14 
REMARK    5  A    between atoms: C_14  and  C_15 
REMARK    6  A    between atoms: C_15  and  C_16 
REMARK    7  A    between atoms: C_19  and  O_20 
REMARK    8  A    between atoms: C_22  and  O_23 
REMARK    9  A    between atoms: C_26  and  N_27 
REMARK   10  A    between atoms: N_27  and  N_28 
REMARK       I    between atoms: N_28  and  C_29 
REMARK   11  A    between atoms: C_29  and  C_31 
ROOT
ATOM      1  C   UNL d   1      25.011 -15.914  -2.294  0.00  0.00     0.103 C 
ATOM      2  C   UNL d   1      24.458 -17.159  -2.021  0.00  0.00     0.040 C 
ATOM      3  C   UNL d   1      24.826 -17.847  -0.861  0.00  0.00     0.004 C 
ATOM      4  C   UNL d   1      25.848 -17.359  -0.044  0.00  0.00     0.014 C 
ATOM      5  C   UNL d   1      26.320 -16.065  -0.238  0.00  0.00     0.002 A 
ATOM      6  C   UNL d   1      27.197 -15.410   0.729  0.00  0.00     0.035 A 
ATOM      7  C   UNL d   1      27.532 -14.111   0.602  0.00  0.00     0.085 A 
ATOM      8  C   UNL d   1      27.013 -13.415  -0.587  0.00  0.00     0.178 A 
ATOM      9  O   UNL d   1      26.256 -14.018  -1.547  0.00  0.00    -0.288 OA
ATOM     10  C   UNL d   1      25.880 -15.356  -1.354  0.00  0.00     0.121 A 
ENDROOT
BRANCH   7  11
ATOM     11  C   UNL d   1      28.393 -13.510   1.699  0.00  0.00     0.256 C 
ATOM     12  O   UNL d   1      28.751 -12.338   1.621  0.00  0.00    -0.268 OA
ATOM     13  N   UNL d   1      28.775 -14.285   2.777  0.00  0.00    -0.356 N 
ATOM     14  H   UNL d   1      28.560 -15.198   3.079  0.00  0.00     0.162 HD
BRANCH  13  15
ATOM     15  C   UNL d   1      29.577 -13.780   3.874  0.00  0.00     0.127 C 
BRANCH  15  16
ATOM     16  C   UNL d   1      28.613 -13.246   4.955  0.00  0.00     0.058 C 
BRANCH  16  17
ATOM     17  C   UNL d   1      28.383 -11.784   4.806  0.00  0.00    -0.054 A 
ATOM     18  C   UNL d   1      29.115 -10.900   5.589  0.00  0.00     0.010 A 
ATOM     19  C   UNL d   1      28.879  -9.538   5.494  0.00  0.00     0.040 A 
ATOM     20  C   UNL d   1      27.811  -9.056   4.730  0.00  0.00     0.101 A 
ATOM     21  C   UNL d   1      27.059  -9.950   3.940  0.00  0.00     0.102 A 
ATOM     22  C   UNL d   1      27.406 -11.302   3.929  0.00  0.00     0.046 A 
BRANCH  20  23
ATOM     23  O   UNL d   1      27.436  -7.736   4.709  0.00  0.00    -0.353 OA
ATOM     24  C   UNL d   1      27.863  -6.972   3.584  0.00  0.00     0.210 C 
ENDBRANCH  20  23
BRANCH  21  25
ATOM     25  O   UNL d   1      26.008  -9.427   3.229  0.00  0.00    -0.353 OA
ATOM     26  C   UNL d   1      26.039  -9.578   1.814  0.00  0.00     0.210 C 
ENDBRANCH  21  25
ENDBRANCH  16  17
ENDBRANCH  15  16
ENDBRANCH  13  15
ENDBRANCH   7  11
BRANCH   8  27
ATOM     27  N   UNL d   1      27.232 -12.193  -0.836  0.00  0.00    -0.276 N 
ATOM     28  H   UNL d   1      27.862 -11.719  -0.220  0.00  0.00     0.189 HD
BRANCH  27  29
ATOM     29  N   UNL d   1      26.754 -11.364  -1.816  0.00  0.00    -0.262 N 
ATOM     30  C   UNL d   1      27.039 -10.012  -1.649  0.00  0.00     0.293 C 
ATOM     31  O   UNL d   1      27.755  -9.656  -0.700  0.00  0.00    -0.264 OA
ATOM     32  H   UNL d   1      26.228 -11.752  -2.592  0.00  0.00     0.190 HD
BRANCH  30  33
ATOM     33  C   UNL d   1      26.379  -9.172  -2.600  0.00  0.00     0.144 A 
ATOM     34  C   UNL d   1      26.268  -7.796  -2.594  0.00  0.00     0.045 A 
ATOM     35  C   UNL d   1      25.532  -7.444  -3.740  0.00  0.00     0.027 A 
ATOM     36  C   UNL d   1      25.216  -8.625  -4.371  0.00  0.00     0.143 A 
ATOM     37  O   UNL d   1      25.741  -9.685  -3.691  0.00  0.00    -0.317 OA
ENDBRANCH  30  33
ENDBRANCH  27  29
ENDBRANCH   8  27
BRANCH   1  38
ATOM     38  O   UNL d   1      24.814 -15.200  -3.443  0.00  0.00    -0.349 OA
BRANCH  38  39
ATOM     39  C   UNL d   1      25.907 -15.199  -4.361  0.00  0.00     0.171 C 
ATOM     40  C   UNL d   1      26.276 -13.755  -4.641  0.00  0.00     0.034 C 
ENDBRANCH  38  39
ENDBRANCH   1  38
TORSDOF 11
ENDMDL
MODEL 9
REMARK VINA RESULT:    -6.136      3.303      5.225
REMARK INTER + INTRA:         -13.984
REMARK INTER:                  -9.417
REMARK INTRA:                  -4.567
REMARK CONF_INDEPENDENT:        3.281
REMARK UNBOUND:                -4.567
REMARK  11 active torsions:
REMARK  status: ('A' for Active; 'I' for Inactive)
REMARK    1  A    between atoms: C_2  and  O_3 
REMARK    2  A    between atoms: O_3  and  C_4 
REMARK    3  A    between atoms: C_10  and  C_11 
REMARK       I    between atoms: C_11  and  N_13 
REMARK    4  A    between atoms: N_13  and  C_14 
REMARK    5  A    between atoms: C_14  and  C_15 
REMARK    6  A    between atoms: C_15  and  C_16 
REMARK    7  A    between atoms: C_19  and  O_20 
REMARK    8  A    between atoms: C_22  and  O_23 
REMARK    9  A    between atoms: C_26  and  N_27 
REMARK   10  A    between atoms: N_27  and  N_28 
REMARK       I    between atoms: N_28  and  C_29 
REMARK   11  A    between atoms: C_29  and  C_31 
ROOT
ATOM      1  C   UNL d   1      26.501  -9.414   2.696  0.00  0.00     0.103 C 
ATOM      2  C   UNL d   1      26.773  -9.275   4.052  0.00  0.00     0.040 C 
ATOM      3  C   UNL d   1      27.475 -10.277   4.728  0.00  0.00     0.004 C 
ATOM      4  C   UNL d   1      27.784 -11.479   4.089  0.00  0.00     0.014 C 
ATOM      5  C   UNL d   1      27.628 -11.580   2.710  0.00  0.00     0.002 A 
ATOM      6  C   UNL d   1      28.166 -12.708   1.953  0.00  0.00     0.035 A 
ATOM      7  C   UNL d   1      28.132 -12.725   0.606  0.00  0.00     0.085 A 
ATOM      8  C   UNL d   1      27.478 -11.579  -0.047  0.00  0.00     0.178 A 
ATOM      9  O   UNL d   1      26.898 -10.550   0.633  0.00  0.00    -0.288 OA
ATOM     10  C   UNL d   1      27.001 -10.536   2.033  0.00  0.00     0.121 A 
ENDROOT
BRANCH   7  11
ATOM     11  C   UNL d   1      28.779 -13.913  -0.085  0.00  0.00     0.256 C 
ATOM     12  O   UNL d   1      29.148 -13.813  -1.252  0.00  0.00    -0.268 OA
ATOM     13  N   UNL d   1      28.946 -15.101   0.600  0.00  0.00    -0.356 N 
ATOM     14  H   UNL d   1      28.795 -15.385   1.532  0.00  0.00     0.162 HD
BRANCH  13  15
ATOM     15  C   UNL d   1      29.573 -16.271   0.018  0.00  0.00     0.127 C 
BRANCH  15  16
ATOM     16  C   UNL d   1      28.452 -17.188  -0.517  0.00  0.00     0.058 C 
BRANCH  16  17
ATOM     17  C   UNL d   1      27.522 -16.448  -1.410  0.00  0.00    -0.054 A 
ATOM     18  C   UNL d   1      26.239 -16.159  -0.962  0.00  0.00     0.010 A 
ATOM     19  C   UNL d   1      25.346 -15.510  -1.801  0.00  0.00     0.040 A 
ATOM     20  C   UNL d   1      25.675 -15.278  -3.140  0.00  0.00     0.101 A 
ATOM     21  C   UNL d   1      26.973 -15.577  -3.603  0.00  0.00     0.102 A 
ATOM     22  C   UNL d   1      27.911 -16.091  -2.706  0.00  0.00     0.046 A 
BRANCH  20  23
ATOM     23  O   UNL d   1      24.786 -14.772  -4.056  0.00  0.00    -0.353 OA
ATOM     24  C   UNL d   1      24.999 -13.426  -4.471  0.00  0.00     0.210 C 
ENDBRANCH  20  23
BRANCH  21  25
ATOM     25  O   UNL d   1      27.233 -15.351  -4.931  0.00  0.00    -0.353 OA
ATOM     26  C   UNL d   1      28.433 -14.656  -5.251  0.00  0.00     0.210 C 
ENDBRANCH  21  25
ENDBRANCH  16  17
ENDBRANCH  15  16
ENDBRANCH  13  15
ENDBRANCH   7  11
BRANCH   8  27
ATOM     27  N   UNL d   1      27.380 -11.449  -1.303  0.00  0.00    -0.276 N 
ATOM     28  H   UNL d   1      28.015 -11.987  -1.857  0.00  0.00     0.189 HD
BRANCH  27  29
ATOM     29  N   UNL d   1      26.548 -10.685  -2.076  0.00  0.00    -0.262 N 
ATOM     30  C   UNL d   1      26.661 -10.878  -3.450  0.00  0.00     0.293 C 
ATOM     31  O   UNL d   1      27.422 -11.759  -3.878  0.00  0.00    -0.264 OA
ATOM     32  H   UNL d   1      25.909 -10.031  -1.636  0.00  0.00     0.190 HD
BRANCH  30  33
ATOM     33  C   UNL d   1      25.899  -9.943  -4.219  0.00  0.00     0.144 A 
ATOM     34  C   UNL d   1      25.650  -9.954  -5.576  0.00  0.00     0.045 A 
ATOM     35  C   UNL d   1      24.851  -8.829  -5.850  0.00  0.00     0.027 A 
ATOM     36  C   UNL d   1      24.674  -8.182  -4.649  0.00  0.00     0.143 A 
ATOM     37  O   UNL d   1      25.297  -8.862  -3.644  0.00  0.00    -0.317 OA
ENDBRANCH  30  33
ENDBRANCH  27  29
ENDBRANCH   8  27
BRANCH   1  38
ATOM     38  O   UNL d   1      25.732  -8.559   1.956  0.00  0.00    -0.349 OA
BRANCH  38  39
ATOM     39  C   UNL d   1      26.450  -7.679   1.091  0.00  0.00     0.171 C 
ATOM     40  C   UNL d   1      25.808  -7.753  -0.281  0.00  0.00     0.034 C 
ENDBRANCH  38  39
ENDBRANCH   1  38
TORSDOF 11
ENDMDL
