MODEL 1
REMARK VINA RESULT:    -8.503      0.000      0.000
REMARK INTER + INTRA:         -14.226
REMARK INTER:                 -10.889
REMARK INTRA:                  -3.337
REMARK CONF_INDEPENDENT:        2.386
REMARK UNBOUND:                -3.337
REMARK  8 active torsions:
REMARK  status: ('A' for Active; 'I' for Inactive)
REMARK       I    between atoms: C_2  and  N_3 
REMARK    1  A    between atoms: C_27  and  C_2 
REMARK    2  A    between atoms: N_3  and  C_4 
REMARK    3  A    between atoms: C_7  and  C_8 
REMARK    4  A    between atoms: C_8  and  C_9 
REMARK    5  A    between atoms: C_12  and  N_13 
REMARK       I    between atoms: N_13  and  C_14 
REMARK    6  A    between atoms: C_16  and  C_14 
REMARK    7  A    between atoms: C_21  and  O_22 
REMARK    8  A    between atoms: C_25  and  O_26 
ROOT
ATOM      1  C   UNL d   1      26.538 -16.312  -1.220  0.00  0.00     0.077 C 
ENDROOT
BRANCH   1   2
ATOM      2  C   UNL d   1      25.168 -16.868  -0.875  0.00  0.00    -0.051 A 
ATOM      3  C   UNL d   1      24.048 -16.028  -0.921  0.00  0.00     0.010 A 
ATOM      4  C   UNL d   1      22.765 -16.531  -0.649  0.00  0.00     0.033 A 
ATOM      5  C   UNL d   1      22.596 -17.874  -0.293  0.00  0.00     0.068 A 
ATOM      6  C   UNL d   1      23.704 -18.720  -0.292  0.00  0.00     0.092 A 
ATOM      7  C   UNL d   1      24.972 -18.216  -0.528  0.00  0.00     0.046 A 
BRANCH   5   8
ATOM      8  N   UNL d   1      21.329 -18.356   0.114  0.00  0.00    -0.323 N 
ATOM      9  C   UNL d   1      20.620 -19.212  -0.728  0.00  0.00     0.251 C 
ATOM     10  O   UNL d   1      21.054 -19.648  -1.799  0.00  0.00    -0.270 OA
ATOM     11  H   UNL d   1      21.107 -18.351   1.100  0.00  0.00     0.169 HD
BRANCH   9  12
ATOM     12  C   UNL d   1      19.244 -19.672  -0.206  0.00  0.00     0.213 C 
ATOM     13  C   UNL d   1      19.355 -21.080   0.374  0.00  0.00     0.044 C 
ATOM     14  C   UNL d   1      19.662 -20.825   1.830  0.00  0.00     0.029 C 
ATOM     15  C   UNL d   1      18.893 -19.555   2.107  0.00  0.00     0.168 C 
ATOM     16  O   UNL d   1      18.785 -18.831   0.866  0.00  0.00    -0.376 OA
ENDBRANCH   9  12
ENDBRANCH   5   8
BRANCH   6  17
ATOM     17  O   UNL d   1      23.541 -20.075  -0.147  0.00  0.00    -0.358 OA
ATOM     18  H   UNL d   1      22.593 -20.279  -0.209  0.00  0.00     0.217 HD
ENDBRANCH   6  17
ENDBRANCH   1   2
BRANCH   1  19
ATOM     19  C   UNL d   1      26.515 -15.182  -2.221  0.00  0.00    -0.051 A 
ATOM     20  C   UNL d   1      26.212 -13.860  -1.867  0.00  0.00     0.010 A 
ATOM     21  C   UNL d   1      25.970 -12.883  -2.856  0.00  0.00     0.033 A 
ATOM     22  C   UNL d   1      26.121 -13.183  -4.227  0.00  0.00     0.068 A 
ATOM     23  C   UNL d   1      26.499 -14.507  -4.534  0.00  0.00     0.092 A 
ATOM     24  C   UNL d   1      26.666 -15.483  -3.560  0.00  0.00     0.046 A 
BRANCH  22  25
ATOM     25  N   UNL d   1      25.878 -12.127  -5.178  0.00  0.00    -0.323 N 
ATOM     26  C   UNL d   1      26.664 -11.820  -6.273  0.00  0.00     0.251 C 
ATOM     27  O   UNL d   1      27.683 -12.450  -6.586  0.00  0.00    -0.270 OA
ATOM     28  H   UNL d   1      25.041 -11.574  -5.024  0.00  0.00     0.169 HD
BRANCH  26  29
ATOM     29  C   UNL d   1      26.308 -10.636  -7.168  0.00  0.00     0.213 C 
ATOM     30  C   UNL d   1      25.558  -9.594  -6.336  0.00  0.00     0.044 C 
ATOM     31  C   UNL d   1      26.656  -8.739  -5.736  0.00  0.00     0.029 C 
ATOM     32  C   UNL d   1      27.742  -8.808  -6.785  0.00  0.00     0.168 C 
ATOM     33  O   UNL d   1      27.538  -9.998  -7.569  0.00  0.00    -0.376 OA
ENDBRANCH  26  29
ENDBRANCH  22  25
BRANCH  23  34
ATOM     34  O   UNL d   1      26.747 -15.058  -5.754  0.00  0.00    -0.358 OA
ATOM     35  H   UNL d   1      26.715 -14.354  -6.424  0.00  0.00     0.217 HD
ENDBRANCH  23  34
ENDBRANCH   1  19
TORSDOF 8
ENDMDL
MODEL 2
REMARK VINA RESULT:    -8.466      1.500      2.046
REMARK INTER + INTRA:         -13.385
REMARK INTER:                 -10.852
REMARK INTRA:                  -2.533
REMARK CONF_INDEPENDENT:        2.386
REMARK UNBOUND:                -2.533
REMARK  8 active torsions:
REMARK  status: ('A' for Active; 'I' for Inactive)
REMARK       I    between atoms: C_2  and  N_3 
REMARK    1  A    between atoms: C_27  and  C_2 
REMARK    2  A    between atoms: N_3  and  C_4 
REMARK    3  A    between atoms: C_7  and  C_8 
REMARK    4  A    between atoms: C_8  and  C_9 
REMARK    5  A    between atoms: C_12  and  N_13 
REMARK       I    between atoms: N_13  and  C_14 
REMARK    6  A    between atoms: C_16  and  C_14 
REMARK    7  A    between atoms: C_21  and  O_22 
REMARK    8  A    between atoms: C_25  and  O_26 
ROOT
ATOM      1  C   UNL d   1      27.031 -16.240  -1.924  0.00  0.00     0.077 C 
ENDROOT
BRANCH   1   2
ATOM      2  C   UNL d   1      25.649 -16.646  -1.447  0.00  0.00    -0.051 A 
ATOM      3  C   UNL d   1      24.577 -15.755  -1.593  0.00  0.00     0.010 A 
ATOM      4  C   UNL d   1      23.281 -16.125  -1.198  0.00  0.00     0.033 A 
ATOM      5  C   UNL d   1      23.051 -17.379  -0.621  0.00  0.00     0.068 A 
ATOM      6  C   UNL d   1      24.109 -18.282  -0.517  0.00  0.00     0.092 A 
ATOM      7  C   UNL d   1      25.392 -17.904  -0.876  0.00  0.00     0.046 A 
BRANCH   5   8
ATOM      8  N   UNL d   1      21.778 -17.707  -0.097  0.00  0.00    -0.323 N 
ATOM      9  C   UNL d   1      21.002 -18.671  -0.741  0.00  0.00     0.251 C 
ATOM     10  O   UNL d   1      21.378 -19.325  -1.718  0.00  0.00    -0.270 OA
ATOM     11  H   UNL d   1      21.591 -17.503   0.874  0.00  0.00     0.169 HD
BRANCH   9  12
ATOM     12  C   UNL d   1      19.624 -18.950  -0.106  0.00  0.00     0.213 C 
ATOM     13  C   UNL d   1      19.144 -20.343  -0.504  0.00  0.00     0.044 C 
ATOM     14  C   UNL d   1      19.673 -21.217   0.608  0.00  0.00     0.029 C 
ATOM     15  C   UNL d   1      19.591 -20.301   1.807  0.00  0.00     0.168 C 
ATOM     16  O   UNL d   1      19.701 -18.947   1.330  0.00  0.00    -0.376 OA
ENDBRANCH   9  12
ENDBRANCH   5   8
BRANCH   6  17
ATOM     17  O   UNL d   1      23.875 -19.582  -0.147  0.00  0.00    -0.358 OA
ATOM     18  H   UNL d   1      22.915 -19.717  -0.084  0.00  0.00     0.217 HD
ENDBRANCH   6  17
ENDBRANCH   1   2
BRANCH   1  19
ATOM     19  C   UNL d   1      27.032 -15.398  -3.177  0.00  0.00    -0.051 A 
ATOM     20  C   UNL d   1      27.938 -15.600  -4.228  0.00  0.00     0.010 A 
ATOM     21  C   UNL d   1      28.063 -14.655  -5.268  0.00  0.00     0.033 A 
ATOM     22  C   UNL d   1      27.215 -13.529  -5.334  0.00  0.00     0.068 A 
ATOM     23  C   UNL d   1      26.269 -13.404  -4.295  0.00  0.00     0.092 A 
ATOM     24  C   UNL d   1      26.197 -14.299  -3.236  0.00  0.00     0.046 A 
BRANCH  22  25
ATOM     25  N   UNL d   1      27.389 -12.619  -6.438  0.00  0.00    -0.323 N 
ATOM     26  C   UNL d   1      26.808 -11.371  -6.564  0.00  0.00     0.251 C 
ATOM     27  O   UNL d   1      26.070 -10.866  -5.708  0.00  0.00    -0.270 OA
ATOM     28  H   UNL d   1      28.009 -12.931  -7.179  0.00  0.00     0.169 HD
BRANCH  26  29
ATOM     29  C   UNL d   1      27.044 -10.535  -7.820  0.00  0.00     0.213 C 
ATOM     30  C   UNL d   1      28.433 -10.859  -8.376  0.00  0.00     0.044 C 
ATOM     31  C   UNL d   1      28.200 -12.051  -9.281  0.00  0.00     0.029 C 
ATOM     32  C   UNL d   1      26.789 -11.827  -9.773  0.00  0.00     0.168 C 
ATOM     33  O   UNL d   1      26.112 -10.976  -8.828  0.00  0.00    -0.376 OA
ENDBRANCH  26  29
ENDBRANCH  22  25
BRANCH  23  34
ATOM     34  O   UNL d   1      25.315 -12.448  -4.127  0.00  0.00    -0.358 OA
ATOM     35  H   UNL d   1      25.089 -12.078  -4.998  0.00  0.00     0.217 HD
ENDBRANCH  23  34
ENDBRANCH   1  19
TORSDOF 8
ENDMDL
MODEL 3
REMARK VINA RESULT:    -8.353      3.630      5.173
REMARK INTER + INTRA:         -13.500
REMARK INTER:                 -10.739
REMARK INTRA:                  -2.761
REMARK CONF_INDEPENDENT:        2.386
REMARK UNBOUND:                -2.761
REMARK  8 active torsions:
REMARK  status: ('A' for Active; 'I' for Inactive)
REMARK       I    between atoms: C_2  and  N_3 
REMARK    1  A    between atoms: C_27  and  C_2 
REMARK    2  A    between atoms: N_3  and  C_4 
REMARK    3  A    between atoms: C_7  and  C_8 
REMARK    4  A    between atoms: C_8  and  C_9 
REMARK    5  A    between atoms: C_12  and  N_13 
REMARK       I    between atoms: N_13  and  C_14 
REMARK    6  A    between atoms: C_16  and  C_14 
REMARK    7  A    between atoms: C_21  and  O_22 
REMARK    8  A    between atoms: C_25  and  O_26 
ROOT
ATOM      1  C   UNL d   1      25.997 -14.912  -2.074  0.00  0.00     0.077 C 
ENDROOT
BRANCH   1   2
ATOM      2  C   UNL d   1      25.086 -15.927  -1.408  0.00  0.00    -0.051 A 
ATOM      3  C   UNL d   1      25.639 -16.927  -0.598  0.00  0.00     0.010 A 
ATOM      4  C   UNL d   1      24.812 -17.850   0.064  0.00  0.00     0.033 A 
ATOM      5  C   UNL d   1      23.424 -17.802  -0.108  0.00  0.00     0.068 A 
ATOM      6  C   UNL d   1      22.871 -16.780  -0.878  0.00  0.00     0.092 A 
ATOM      7  C   UNL d   1      23.689 -15.891  -1.556  0.00  0.00     0.046 A 
BRANCH   5   8
ATOM      8  N   UNL d   1      22.596 -18.809   0.444  0.00  0.00    -0.323 N 
ATOM      9  C   UNL d   1      21.590 -19.373  -0.341  0.00  0.00     0.251 C 
ATOM     10  O   UNL d   1      21.405 -19.103  -1.531  0.00  0.00    -0.270 OA
ATOM     11  H   UNL d   1      22.935 -19.325   1.243  0.00  0.00     0.169 HD
BRANCH   9  12
ATOM     12  C   UNL d   1      20.730 -20.450   0.352  0.00  0.00     0.213 C 
ATOM     13  C   UNL d   1      20.204 -19.915   1.681  0.00  0.00     0.044 C 
ATOM     14  C   UNL d   1      18.876 -19.306   1.301  0.00  0.00     0.029 C 
ATOM     15  C   UNL d   1      18.405 -20.218   0.192  0.00  0.00     0.168 C 
ATOM     16  O   UNL d   1      19.574 -20.781  -0.435  0.00  0.00    -0.376 OA
ENDBRANCH   9  12
ENDBRANCH   5   8
BRANCH   6  17
ATOM     17  O   UNL d   1      21.513 -16.587  -0.899  0.00  0.00    -0.358 OA
ATOM     18  H   UNL d   1      21.095 -17.378  -1.275  0.00  0.00     0.217 HD
ENDBRANCH   6  17
ENDBRANCH   1   2
BRANCH   1  19
ATOM     19  C   UNL d   1      27.063 -15.520  -2.954  0.00  0.00    -0.051 A 
ATOM     20  C   UNL d   1      28.101 -16.316  -2.450  0.00  0.00     0.010 A 
ATOM     21  C   UNL d   1      29.201 -16.668  -3.259  0.00  0.00     0.033 A 
ATOM     22  C   UNL d   1      29.244 -16.313  -4.625  0.00  0.00     0.068 A 
ATOM     23  C   UNL d   1      28.143 -15.575  -5.108  0.00  0.00     0.092 A 
ATOM     24  C   UNL d   1      27.097 -15.170  -4.290  0.00  0.00     0.046 A 
BRANCH  22  25
ATOM     25  N   UNL d   1      30.392 -16.727  -5.393  0.00  0.00    -0.323 N 
ATOM     26  C   UNL d   1      31.055 -17.935  -5.279  0.00  0.00     0.251 C 
ATOM     27  O   UNL d   1      30.716 -18.835  -4.501  0.00  0.00    -0.270 OA
ATOM     28  H   UNL d   1      30.725 -16.066  -6.087  0.00  0.00     0.169 HD
BRANCH  26  29
ATOM     29  C   UNL d   1      32.292 -18.216  -6.128  0.00  0.00     0.213 C 
ATOM     30  C   UNL d   1      32.076 -19.518  -6.903  0.00  0.00     0.044 C 
ATOM     31  C   UNL d   1      31.372 -19.081  -8.172  0.00  0.00     0.029 C 
ATOM     32  C   UNL d   1      31.918 -17.688  -8.393  0.00  0.00     0.168 C 
ATOM     33  O   UNL d   1      32.387 -17.182  -7.129  0.00  0.00    -0.376 OA
ENDBRANCH  26  29
ENDBRANCH  22  25
BRANCH  23  34
ATOM     34  O   UNL d   1      27.907 -15.135  -6.374  0.00  0.00    -0.358 OA
ATOM     35  H   UNL d   1      27.863 -14.163  -6.361  0.00  0.00     0.217 HD
ENDBRANCH  23  34
ENDBRANCH   1  19
TORSDOF 8
ENDMDL
MODEL 4
REMARK VINA RESULT:    -8.245      1.827      2.389
REMARK INTER + INTRA:         -13.982
REMARK INTER:                 -10.632
REMARK INTRA:                  -3.350
REMARK CONF_INDEPENDENT:        2.386
REMARK UNBOUND:                -3.350
REMARK  8 active torsions:
REMARK  status: ('A' for Active; 'I' for Inactive)
REMARK       I    between atoms: C_2  and  N_3 
REMARK    1  A    between atoms: C_27  and  C_2 
REMARK    2  A    between atoms: N_3  and  C_4 
REMARK    3  A    between atoms: C_7  and  C_8 
REMARK    4  A    between atoms: C_8  and  C_9 
REMARK    5  A    between atoms: C_12  and  N_13 
REMARK       I    between atoms: N_13  and  C_14 
REMARK    6  A    between atoms: C_16  and  C_14 
REMARK    7  A    between atoms: C_21  and  O_22 
REMARK    8  A    between atoms: C_25  and  O_26 
ROOT
ATOM      1  C   UNL d   1      26.439 -15.843  -1.733  0.00  0.00     0.077 C 
ENDROOT
BRANCH   1   2
ATOM      2  C   UNL d   1      25.255 -16.644  -1.222  0.00  0.00    -0.051 A 
ATOM      3  C   UNL d   1      25.476 -17.840  -0.528  0.00  0.00     0.010 A 
ATOM      4  C   UNL d   1      24.398 -18.576  -0.009  0.00  0.00     0.033 A 
ATOM      5  C   UNL d   1      23.084 -18.137  -0.211  0.00  0.00     0.068 A 
ATOM      6  C   UNL d   1      22.866 -16.924  -0.862  0.00  0.00     0.092 A 
ATOM      7  C   UNL d   1      23.928 -16.217  -1.402  0.00  0.00     0.046 A 
BRANCH   5   8
ATOM      8  N   UNL d   1      21.989 -18.940   0.189  0.00  0.00    -0.323 N 
ATOM      9  C   UNL d   1      21.025 -19.301  -0.753  0.00  0.00     0.251 C 
ATOM     10  O   UNL d   1      21.092 -19.024  -1.953  0.00  0.00    -0.270 OA
ATOM     11  H   UNL d   1      22.083 -19.498   1.026  0.00  0.00     0.169 HD
BRANCH   9  12
ATOM     12  C   UNL d   1      19.863 -20.163  -0.220  0.00  0.00     0.213 C 
ATOM     13  C   UNL d   1      20.334 -20.980   0.980  0.00  0.00     0.044 C 
ATOM     14  C   UNL d   1      20.013 -20.081   2.151  0.00  0.00     0.029 C 
ATOM     15  C   UNL d   1      18.753 -19.386   1.691  0.00  0.00     0.168 C 
ATOM     16  O   UNL d   1      18.779 -19.345   0.252  0.00  0.00    -0.376 OA
ENDBRANCH   9  12
ENDBRANCH   5   8
BRANCH   6  17
ATOM     17  O   UNL d   1      21.611 -16.372  -0.895  0.00  0.00    -0.358 OA
ATOM     18  H   UNL d   1      20.961 -17.089  -0.973  0.00  0.00     0.217 HD
ENDBRANCH   6  17
ENDBRANCH   1   2
BRANCH   1  19
ATOM     19  C   UNL d   1      26.067 -14.527  -2.373  0.00  0.00    -0.051 A 
ATOM     20  C   UNL d   1      25.268 -14.439  -3.522  0.00  0.00     0.010 A 
ATOM     21  C   UNL d   1      25.138 -13.222  -4.222  0.00  0.00     0.033 A 
ATOM     22  C   UNL d   1      25.726 -12.035  -3.734  0.00  0.00     0.068 A 
ATOM     23  C   UNL d   1      26.459 -12.154  -2.534  0.00  0.00     0.092 A 
ATOM     24  C   UNL d   1      26.644 -13.370  -1.888  0.00  0.00     0.046 A 
BRANCH  22  25
ATOM     25  N   UNL d   1      25.531 -10.825  -4.493  0.00  0.00    -0.323 N 
ATOM     26  C   UNL d   1      25.556  -9.537  -3.992  0.00  0.00     0.251 C 
ATOM     27  O   UNL d   1      25.780  -9.264  -2.806  0.00  0.00    -0.270 OA
ATOM     28  H   UNL d   1      25.373 -10.944  -5.488  0.00  0.00     0.169 HD
BRANCH  26  29
ATOM     29  C   UNL d   1      25.281  -8.349  -4.910  0.00  0.00     0.213 C 
ATOM     30  C   UNL d   1      26.582  -7.570  -5.116  0.00  0.00     0.044 C 
ATOM     31  C   UNL d   1      27.242  -8.256  -6.294  0.00  0.00     0.029 C 
ATOM     32  C   UNL d   1      26.060  -8.753  -7.095  0.00  0.00     0.168 C 
ATOM     33  O   UNL d   1      24.930  -8.865  -6.210  0.00  0.00    -0.376 OA
ENDBRANCH  26  29
ENDBRANCH  22  25
BRANCH  23  34
ATOM     34  O   UNL d   1      27.095 -11.180  -1.828  0.00  0.00    -0.358 OA
ATOM     35  H   UNL d   1      26.429 -10.669  -1.337  0.00  0.00     0.217 HD
ENDBRANCH  23  34
ENDBRANCH   1  19
TORSDOF 8
ENDMDL
MODEL 5
REMARK VINA RESULT:    -8.106      4.556     10.358
REMARK INTER + INTRA:         -13.304
REMARK INTER:                 -10.492
REMARK INTRA:                  -2.812
REMARK CONF_INDEPENDENT:        2.386
REMARK UNBOUND:                -2.812
REMARK  8 active torsions:
REMARK  status: ('A' for Active; 'I' for Inactive)
REMARK       I    between atoms: C_2  and  N_3 
REMARK    1  A    between atoms: C_27  and  C_2 
REMARK    2  A    between atoms: N_3  and  C_4 
REMARK    3  A    between atoms: C_7  and  C_8 
REMARK    4  A    between atoms: C_8  and  C_9 
REMARK    5  A    between atoms: C_12  and  N_13 
REMARK       I    between atoms: N_13  and  C_14 
REMARK    6  A    between atoms: C_16  and  C_14 
REMARK    7  A    between atoms: C_21  and  O_22 
REMARK    8  A    between atoms: C_25  and  O_26 
ROOT
ATOM      1  C   UNL d   1      26.558 -15.419  -1.657  0.00  0.00     0.077 C 
ENDROOT
BRANCH   1   2
ATOM      2  C   UNL d   1      26.846 -14.231  -0.758  0.00  0.00    -0.051 A 
ATOM      3  C   UNL d   1      27.267 -13.020  -1.324  0.00  0.00     0.010 A 
ATOM      4  C   UNL d   1      27.498 -11.895  -0.515  0.00  0.00     0.033 A 
ATOM      5  C   UNL d   1      27.343 -11.982   0.874  0.00  0.00     0.068 A 
ATOM      6  C   UNL d   1      26.881 -13.173   1.432  0.00  0.00     0.092 A 
ATOM      7  C   UNL d   1      26.686 -14.290   0.637  0.00  0.00     0.046 A 
BRANCH   5   8
ATOM      8  N   UNL d   1      27.704 -10.895   1.706  0.00  0.00    -0.323 N 
ATOM      9  C   UNL d   1      26.712 -10.225   2.423  0.00  0.00     0.251 C 
ATOM     10  O   UNL d   1      25.524 -10.559   2.441  0.00  0.00    -0.270 OA
ATOM     11  H   UNL d   1      28.661 -10.830   2.023  0.00  0.00     0.169 HD
BRANCH   9  12
ATOM     12  C   UNL d   1      27.200  -9.047   3.291  0.00  0.00     0.213 C 
ATOM     13  C   UNL d   1      28.703  -8.860   3.111  0.00  0.00     0.044 C 
ATOM     14  C   UNL d   1      28.790  -7.870   1.973  0.00  0.00     0.029 C 
ATOM     15  C   UNL d   1      27.570  -7.008   2.200  0.00  0.00     0.168 C 
ATOM     16  O   UNL d   1      26.589  -7.811   2.883  0.00  0.00    -0.376 OA
ENDBRANCH   9  12
ENDBRANCH   5   8
BRANCH   6  17
ATOM     17  O   UNL d   1      26.527 -13.225   2.756  0.00  0.00    -0.358 OA
ATOM     18  H   UNL d   1      26.592 -12.330   3.127  0.00  0.00     0.217 HD
ENDBRANCH   6  17
ENDBRANCH   1   2
BRANCH   1  19
ATOM     19  C   UNL d   1      25.473 -16.336  -1.144  0.00  0.00    -0.051 A 
ATOM     20  C   UNL d   1      25.718 -17.661  -0.759  0.00  0.00     0.010 A 
ATOM     21  C   UNL d   1      24.653 -18.552  -0.511  0.00  0.00     0.033 A 
ATOM     22  C   UNL d   1      23.312 -18.111  -0.548  0.00  0.00     0.068 A 
ATOM     23  C   UNL d   1      23.115 -16.751  -0.868  0.00  0.00     0.092 A 
ATOM     24  C   UNL d   1      24.164 -15.896  -1.181  0.00  0.00     0.046 A 
BRANCH  22  25
ATOM     25  N   UNL d   1      22.278 -19.074  -0.263  0.00  0.00    -0.323 N 
ATOM     26  C   UNL d   1      20.948 -18.971  -0.621  0.00  0.00     0.251 C 
ATOM     27  O   UNL d   1      20.481 -18.026  -1.269  0.00  0.00    -0.270 OA
ATOM     28  H   UNL d   1      22.572 -19.907   0.238  0.00  0.00     0.169 HD
BRANCH  26  29
ATOM     29  C   UNL d   1      19.952 -20.051  -0.204  0.00  0.00     0.213 C 
ATOM     30  C   UNL d   1      20.529 -20.825   0.983  0.00  0.00     0.044 C 
ATOM     31  C   UNL d   1      20.088 -20.028   2.194  0.00  0.00     0.029 C 
ATOM     32  C   UNL d   1      18.775 -19.430   1.739  0.00  0.00     0.168 C 
ATOM     33  O   UNL d   1      18.771 -19.394   0.299  0.00  0.00    -0.376 OA
ENDBRANCH  26  29
ENDBRANCH  22  25
BRANCH  23  34
ATOM     34  O   UNL d   1      21.947 -16.057  -0.940  0.00  0.00    -0.358 OA
ATOM     35  H   UNL d   1      21.336 -16.537  -1.526  0.00  0.00     0.217 HD
ENDBRANCH  23  34
ENDBRANCH   1  19
TORSDOF 8
ENDMDL
MODEL 6
REMARK VINA RESULT:    -7.716      6.292     10.248
REMARK INTER + INTRA:         -13.477
REMARK INTER:                 -10.102
REMARK INTRA:                  -3.375
REMARK CONF_INDEPENDENT:        2.386
REMARK UNBOUND:                -3.375
REMARK  8 active torsions:
REMARK  status: ('A' for Active; 'I' for Inactive)
REMARK       I    between atoms: C_2  and  N_3 
REMARK    1  A    between atoms: C_27  and  C_2 
REMARK    2  A    between atoms: N_3  and  C_4 
REMARK    3  A    between atoms: C_7  and  C_8 
REMARK    4  A    between atoms: C_8  and  C_9 
REMARK    5  A    between atoms: C_12  and  N_13 
REMARK       I    between atoms: N_13  and  C_14 
REMARK    6  A    between atoms: C_16  and  C_14 
REMARK    7  A    between atoms: C_21  and  O_22 
REMARK    8  A    between atoms: C_25  and  O_26 
ROOT
ATOM      1  C   UNL d   1      28.075 -14.999   0.016  0.00  0.00     0.077 C 
ENDROOT
BRANCH   1   2
ATOM      2  C   UNL d   1      28.567 -14.597   1.394  0.00  0.00    -0.051 A 
ATOM      3  C   UNL d   1      29.822 -13.989   1.531  0.00  0.00     0.010 A 
ATOM      4  C   UNL d   1      30.279 -13.569   2.791  0.00  0.00     0.033 A 
ATOM      5  C   UNL d   1      29.498 -13.785   3.932  0.00  0.00     0.068 A 
ATOM      6  C   UNL d   1      28.230 -14.349   3.790  0.00  0.00     0.092 A 
ATOM      7  C   UNL d   1      27.795 -14.792   2.552  0.00  0.00     0.046 A 
BRANCH   5   8
ATOM      8  N   UNL d   1      30.008 -13.490   5.219  0.00  0.00    -0.323 N 
ATOM      9  C   UNL d   1      29.318 -12.596   6.039  0.00  0.00     0.251 C 
ATOM     10  O   UNL d   1      28.234 -12.082   5.747  0.00  0.00    -0.270 OA
ATOM     11  H   UNL d   1      30.646 -14.146   5.646  0.00  0.00     0.169 HD
BRANCH   9  12
ATOM     12  C   UNL d   1      29.958 -12.325   7.416  0.00  0.00     0.213 C 
ATOM     13  C   UNL d   1      28.998 -12.748   8.524  0.00  0.00     0.044 C 
ATOM     14  C   UNL d   1      29.389 -14.183   8.785  0.00  0.00     0.029 C 
ATOM     15  C   UNL d   1      30.880 -14.162   8.538  0.00  0.00     0.168 C 
ATOM     16  O   UNL d   1      31.152 -13.105   7.599  0.00  0.00    -0.376 OA
ENDBRANCH   9  12
ENDBRANCH   5   8
BRANCH   6  17
ATOM     17  O   UNL d   1      27.366 -14.386   4.854  0.00  0.00    -0.358 OA
ATOM     18  H   UNL d   1      27.865 -14.185   5.663  0.00  0.00     0.217 HD
ENDBRANCH   6  17
ENDBRANCH   1   2
BRANCH   1  19
ATOM     19  C   UNL d   1      26.888 -15.932   0.030  0.00  0.00    -0.051 A 
ATOM     20  C   UNL d   1      26.917 -17.191   0.646  0.00  0.00     0.010 A 
ATOM     21  C   UNL d   1      25.879 -18.123   0.438  0.00  0.00     0.033 A 
ATOM     22  C   UNL d   1      24.735 -17.782  -0.315  0.00  0.00     0.068 A 
ATOM     23  C   UNL d   1      24.714 -16.479  -0.856  0.00  0.00     0.092 A 
ATOM     24  C   UNL d   1      25.770 -15.590  -0.707  0.00  0.00     0.046 A 
BRANCH  22  25
ATOM     25  N   UNL d   1      23.706 -18.781  -0.466  0.00  0.00    -0.323 N 
ATOM     26  C   UNL d   1      22.355 -18.539  -0.630  0.00  0.00     0.251 C 
ATOM     27  O   UNL d   1      21.862 -17.406  -0.694  0.00  0.00    -0.270 OA
ATOM     28  H   UNL d   1      24.019 -19.746  -0.461  0.00  0.00     0.169 HD
BRANCH  26  29
ATOM     29  C   UNL d   1      21.371 -19.703  -0.727  0.00  0.00     0.213 C 
ATOM     30  C   UNL d   1      20.688 -19.887   0.630  0.00  0.00     0.044 C 
ATOM     31  C   UNL d   1      19.499 -18.950   0.577  0.00  0.00     0.029 C 
ATOM     32  C   UNL d   1      19.150 -18.938  -0.894  0.00  0.00     0.168 C 
ATOM     33  O   UNL d   1      20.322 -19.321  -1.639  0.00  0.00    -0.376 OA
ENDBRANCH  26  29
ENDBRANCH  22  25
BRANCH  23  34
ATOM     34  O   UNL d   1      23.734 -15.879  -1.585  0.00  0.00    -0.358 OA
ATOM     35  H   UNL d   1      22.871 -16.172  -1.246  0.00  0.00     0.217 HD
ENDBRANCH  23  34
ENDBRANCH   1  19
TORSDOF 8
ENDMDL
MODEL 7
REMARK VINA RESULT:    -7.406      1.282     10.430
REMARK INTER + INTRA:         -13.243
REMARK INTER:                  -9.792
REMARK INTRA:                  -3.451
REMARK CONF_INDEPENDENT:        2.386
REMARK UNBOUND:                -3.451
REMARK  8 active torsions:
REMARK  status: ('A' for Active; 'I' for Inactive)
REMARK       I    between atoms: C_2  and  N_3 
REMARK    1  A    between atoms: C_27  and  C_2 
REMARK    2  A    between atoms: N_3  and  C_4 
REMARK    3  A    between atoms: C_7  and  C_8 
REMARK    4  A    between atoms: C_8  and  C_9 
REMARK    5  A    between atoms: C_12  and  N_13 
REMARK       I    between atoms: N_13  and  C_14 
REMARK    6  A    between atoms: C_16  and  C_14 
REMARK    7  A    between atoms: C_21  and  O_22 
REMARK    8  A    between atoms: C_25  and  O_26 
ROOT
ATOM      1  C   UNL d   1      26.420 -16.081  -1.456  0.00  0.00     0.077 C 
ENDROOT
BRANCH   1   2
ATOM      2  C   UNL d   1      26.367 -14.683  -2.044  0.00  0.00    -0.051 A 
ATOM      3  C   UNL d   1      26.904 -13.608  -1.324  0.00  0.00     0.010 A 
ATOM      4  C   UNL d   1      26.905 -12.312  -1.868  0.00  0.00     0.033 A 
ATOM      5  C   UNL d   1      26.336 -12.075  -3.124  0.00  0.00     0.068 A 
ATOM      6  C   UNL d   1      25.842 -13.152  -3.860  0.00  0.00     0.092 A 
ATOM      7  C   UNL d   1      25.812 -14.422  -3.309  0.00  0.00     0.046 A 
BRANCH   5   8
ATOM      8  N   UNL d   1      26.211 -10.755  -3.619  0.00  0.00    -0.323 N 
ATOM      9  C   UNL d   1      26.881 -10.397  -4.789  0.00  0.00     0.251 C 
ATOM     10  O   UNL d   1      27.536 -11.182  -5.481  0.00  0.00    -0.270 OA
ATOM     11  H   UNL d   1      25.413 -10.207  -3.329  0.00  0.00     0.169 HD
BRANCH   9  12
ATOM     12  C   UNL d   1      26.697  -8.934  -5.242  0.00  0.00     0.213 C 
ATOM     13  C   UNL d   1      25.738  -8.877  -6.427  0.00  0.00     0.044 C 
ATOM     14  C   UNL d   1      24.392  -8.692  -5.769  0.00  0.00     0.029 C 
ATOM     15  C   UNL d   1      24.735  -7.851  -4.561  0.00  0.00     0.168 C 
ATOM     16  O   UNL d   1      26.100  -8.138  -4.204  0.00  0.00    -0.376 OA
ENDBRANCH   9  12
ENDBRANCH   5   8
BRANCH   6  17
ATOM     17  O   UNL d   1      25.467 -12.982  -5.168  0.00  0.00    -0.358 OA
ATOM     18  H   UNL d   1      25.979 -12.248  -5.543  0.00  0.00     0.217 HD
ENDBRANCH   6  17
ENDBRANCH   1   2
BRANCH   1  19
ATOM     19  C   UNL d   1      25.066 -16.720  -1.254  0.00  0.00    -0.051 A 
ATOM     20  C   UNL d   1      23.868 -15.994  -1.305  0.00  0.00     0.010 A 
ATOM     21  C   UNL d   1      22.653 -16.572  -0.883  0.00  0.00     0.033 A 
ATOM     22  C   UNL d   1      22.589 -17.925  -0.487  0.00  0.00     0.068 A 
ATOM     23  C   UNL d   1      23.806 -18.639  -0.521  0.00  0.00     0.092 A 
ATOM     24  C   UNL d   1      25.012 -18.045  -0.870  0.00  0.00     0.046 A 
BRANCH  22  25
ATOM     25  N   UNL d   1      21.308 -18.451  -0.089  0.00  0.00    -0.323 N 
ATOM     26  C   UNL d   1      20.496 -19.276  -0.844  0.00  0.00     0.251 C 
ATOM     27  O   UNL d   1      20.794 -19.691  -1.971  0.00  0.00    -0.270 OA
ATOM     28  H   UNL d   1      20.990 -18.194   0.840  0.00  0.00     0.169 HD
BRANCH  26  29
ATOM     29  C   UNL d   1      19.135 -19.716  -0.309  0.00  0.00     0.213 C 
ATOM     30  C   UNL d   1      19.274 -21.105   0.318  0.00  0.00     0.044 C 
ATOM     31  C   UNL d   1      19.685 -20.825   1.749  0.00  0.00     0.029 C 
ATOM     32  C   UNL d   1      19.021 -19.497   2.033  0.00  0.00     0.168 C 
ATOM     33  O   UNL d   1      18.780 -18.835   0.776  0.00  0.00    -0.376 OA
ENDBRANCH  26  29
ENDBRANCH  22  25
BRANCH  23  34
ATOM     34  O   UNL d   1      24.030 -19.949  -0.230  0.00  0.00    -0.358 OA
ATOM     35  H   UNL d   1      23.172 -20.394  -0.120  0.00  0.00     0.217 HD
ENDBRANCH  23  34
ENDBRANCH   1  19
TORSDOF 8
ENDMDL
MODEL 8
REMARK VINA RESULT:    -6.722      7.966     10.467
REMARK INTER + INTRA:         -13.074
REMARK INTER:                  -9.108
REMARK INTRA:                  -3.966
REMARK CONF_INDEPENDENT:        2.386
REMARK UNBOUND:                -3.966
REMARK  8 active torsions:
REMARK  status: ('A' for Active; 'I' for Inactive)
REMARK       I    between atoms: C_2  and  N_3 
REMARK    1  A    between atoms: C_27  and  C_2 
REMARK    2  A    between atoms: N_3  and  C_4 
REMARK    3  A    between atoms: C_7  and  C_8 
REMARK    4  A    between atoms: C_8  and  C_9 
REMARK    5  A    between atoms: C_12  and  N_13 
REMARK       I    between atoms: N_13  and  C_14 
REMARK    6  A    between atoms: C_16  and  C_14 
REMARK    7  A    between atoms: C_21  and  O_22 
REMARK    8  A    between atoms: C_25  and  O_26 
ROOT
ATOM      1  C   UNL d   1      30.044 -13.446   2.459  0.00  0.00     0.077 C 
ENDROOT
BRANCH   1   2
ATOM      2  C   UNL d   1      29.766 -13.604   3.943  0.00  0.00    -0.051 A 
ATOM      3  C   UNL d   1      28.776 -14.499   4.370  0.00  0.00     0.010 A 
ATOM      4  C   UNL d   1      28.531 -14.693   5.739  0.00  0.00     0.033 A 
ATOM      5  C   UNL d   1      29.251 -13.966   6.695  0.00  0.00     0.068 A 
ATOM      6  C   UNL d   1      30.266 -13.109   6.271  0.00  0.00     0.092 A 
ATOM      7  C   UNL d   1      30.484 -12.894   4.920  0.00  0.00     0.046 A 
BRANCH   5   8
ATOM      8  N   UNL d   1      28.917 -14.055   8.067  0.00  0.00    -0.323 N 
ATOM      9  C   UNL d   1      29.893 -14.449   8.983  0.00  0.00     0.251 C 
ATOM     10  O   UNL d   1      31.072 -14.665   8.691  0.00  0.00    -0.270 OA
ATOM     11  H   UNL d   1      28.117 -13.536   8.402  0.00  0.00     0.169 HD
BRANCH   9  12
ATOM     12  C   UNL d   1      29.432 -14.531  10.453  0.00  0.00     0.213 C 
ATOM     13  C   UNL d   1      30.115 -13.438  11.270  0.00  0.00     0.044 C 
ATOM     14  C   UNL d   1      29.143 -12.287  11.180  0.00  0.00     0.029 C 
ATOM     15  C   UNL d   1      27.807 -12.992  11.144  0.00  0.00     0.168 C 
ATOM     16  O   UNL d   1      28.018 -14.296  10.571  0.00  0.00    -0.376 OA
ENDBRANCH   9  12
ENDBRANCH   5   8
BRANCH   6  17
ATOM     17  O   UNL d   1      31.118 -12.542   7.184  0.00  0.00    -0.358 OA
ATOM     18  H   UNL d   1      31.871 -13.142   7.317  0.00  0.00     0.217 HD
ENDBRANCH   6  17
ENDBRANCH   1   2
BRANCH   1  19
ATOM     19  C   UNL d   1      28.969 -14.012   1.563  0.00  0.00    -0.051 A 
ATOM     20  C   UNL d   1      27.715 -13.406   1.404  0.00  0.00     0.010 A 
ATOM     21  C   UNL d   1      26.663 -14.080   0.750  0.00  0.00     0.033 A 
ATOM     22  C   UNL d   1      26.867 -15.342   0.152  0.00  0.00     0.068 A 
ATOM     23  C   UNL d   1      28.165 -15.882   0.272  0.00  0.00     0.092 A 
ATOM     24  C   UNL d   1      29.178 -15.246   0.978  0.00  0.00     0.046 A 
BRANCH  22  25
ATOM     25  N   UNL d   1      25.750 -15.960  -0.517  0.00  0.00    -0.323 N 
ATOM     26  C   UNL d   1      25.556 -17.316  -0.696  0.00  0.00     0.251 C 
ATOM     27  O   UNL d   1      26.330 -18.183  -0.270  0.00  0.00    -0.270 OA
ATOM     28  H   UNL d   1      25.040 -15.328  -0.873  0.00  0.00     0.169 HD
BRANCH  26  29
ATOM     29  C   UNL d   1      24.344 -17.825  -1.473  0.00  0.00     0.213 C 
ATOM     30  C   UNL d   1      23.669 -18.935  -0.665  0.00  0.00     0.044 C 
ATOM     31  C   UNL d   1      22.707 -18.199   0.245  0.00  0.00     0.029 C 
ATOM     32  C   UNL d   1      22.335 -16.985  -0.576  0.00  0.00     0.168 C 
ATOM     33  O   UNL d   1      23.380 -16.754  -1.540  0.00  0.00    -0.376 OA
ENDBRANCH  26  29
ENDBRANCH  22  25
BRANCH  23  34
ATOM     34  O   UNL d   1      28.648 -17.051  -0.231  0.00  0.00    -0.358 OA
ATOM     35  H   UNL d   1      28.393 -17.775   0.367  0.00  0.00     0.217 HD
ENDBRANCH  23  34
ENDBRANCH   1  19
TORSDOF 8
ENDMDL
MODEL 9
REMARK VINA RESULT:    -6.509      8.358     11.101
REMARK INTER + INTRA:         -12.980
REMARK INTER:                  -8.895
REMARK INTRA:                  -4.084
REMARK CONF_INDEPENDENT:        2.386
REMARK UNBOUND:                -4.084
REMARK  8 active torsions:
REMARK  status: ('A' for Active; 'I' for Inactive)
REMARK       I    between atoms: C_2  and  N_3 
REMARK    1  A    between atoms: C_27  and  C_2 
REMARK    2  A    between atoms: N_3  and  C_4 
REMARK    3  A    between atoms: C_7  and  C_8 
REMARK    4  A    between atoms: C_8  and  C_9 
REMARK    5  A    between atoms: C_12  and  N_13 
REMARK       I    between atoms: N_13  and  C_14 
REMARK    6  A    between atoms: C_16  and  C_14 
REMARK    7  A    between atoms: C_21  and  O_22 
REMARK    8  A    between atoms: C_25  and  O_26 
ROOT
ATOM      1  C   UNL d   1      29.353 -12.743   3.216  0.00  0.00     0.077 C 
ENDROOT
BRANCH   1   2
ATOM      2  C   UNL d   1      28.450 -13.512   2.269  0.00  0.00    -0.051 A 
ATOM      3  C   UNL d   1      27.161 -13.034   2.000  0.00  0.00     0.010 A 
ATOM      4  C   UNL d   1      26.323 -13.706   1.094  0.00  0.00     0.033 A 
ATOM      5  C   UNL d   1      26.757 -14.884   0.475  0.00  0.00     0.068 A 
ATOM      6  C   UNL d   1      28.056 -15.335   0.708  0.00  0.00     0.092 A 
ATOM      7  C   UNL d   1      28.868 -14.690   1.626  0.00  0.00     0.046 A 
BRANCH   5   8
ATOM      8  N   UNL d   1      25.873 -15.639  -0.332  0.00  0.00    -0.323 N 
ATOM      9  C   UNL d   1      25.760 -17.013  -0.121  0.00  0.00     0.251 C 
ATOM     10  O   UNL d   1      26.334 -17.626   0.783  0.00  0.00    -0.270 OA
ATOM     11  H   UNL d   1      25.120 -15.156  -0.802  0.00  0.00     0.169 HD
BRANCH   9  12
ATOM     12  C   UNL d   1      24.783 -17.753  -1.058  0.00  0.00     0.213 C 
ATOM     13  C   UNL d   1      24.067 -18.859  -0.289  0.00  0.00     0.044 C 
ATOM     14  C   UNL d   1      22.825 -18.169   0.223  0.00  0.00     0.029 C 
ATOM     15  C   UNL d   1      22.516 -17.192  -0.887  0.00  0.00     0.168 C 
ATOM     16  O   UNL d   1      23.757 -16.871  -1.544  0.00  0.00    -0.376 OA
ENDBRANCH   9  12
ENDBRANCH   5   8
BRANCH   6  17
ATOM     17  O   UNL d   1      28.575 -16.364  -0.036  0.00  0.00    -0.358 OA
ATOM     18  H   UNL d   1      28.278 -17.203   0.351  0.00  0.00     0.217 HD
ENDBRANCH   6  17
ENDBRANCH   1   2
BRANCH   1  19
ATOM     19  C   UNL d   1      28.986 -12.883   4.674  0.00  0.00    -0.051 A 
ATOM     20  C   UNL d   1      27.988 -12.112   5.285  0.00  0.00     0.010 A 
ATOM     21  C   UNL d   1      27.836 -12.103   6.687  0.00  0.00     0.033 A 
ATOM     22  C   UNL d   1      28.617 -12.943   7.509  0.00  0.00     0.068 A 
ATOM     23  C   UNL d   1      29.559 -13.757   6.846  0.00  0.00     0.092 A 
ATOM     24  C   UNL d   1      29.754 -13.710   5.471  0.00  0.00     0.046 A 
BRANCH  22  25
ATOM     25  N   UNL d   1      28.389 -12.894   8.931  0.00  0.00    -0.323 N 
ATOM     26  C   UNL d   1      28.344 -13.979   9.787  0.00  0.00     0.251 C 
ATOM     27  O   UNL d   1      28.525 -15.148   9.424  0.00  0.00    -0.270 OA
ATOM     28  H   UNL d   1      28.264 -11.969   9.331  0.00  0.00     0.169 HD
BRANCH  26  29
ATOM     29  C   UNL d   1      28.042 -13.778  11.270  0.00  0.00     0.213 C 
ATOM     30  C   UNL d   1      29.269 -14.193  12.085  0.00  0.00     0.044 C 
ATOM     31  C   UNL d   1      30.115 -12.937  12.145  0.00  0.00     0.029 C 
ATOM     32  C   UNL d   1      29.080 -11.836  12.103  0.00  0.00     0.168 C 
ATOM     33  O   UNL d   1      27.883 -12.364  11.502  0.00  0.00    -0.376 OA
ENDBRANCH  26  29
ENDBRANCH  22  25
BRANCH  23  34
ATOM     34  O   UNL d   1      30.411 -14.676   7.378  0.00  0.00    -0.358 OA
ATOM     35  H   UNL d   1      29.949 -15.152   8.089  0.00  0.00     0.217 HD
ENDBRANCH  23  34
ENDBRANCH   1  19
TORSDOF 8
ENDMDL
