MODEL 1
REMARK VINA RESULT:    -8.564      0.000      0.000
REMARK INTER + INTRA:         -10.178
REMARK INTER:                  -9.758
REMARK INTRA:                  -0.420
REMARK CONF_INDEPENDENT:        1.193
REMARK UNBOUND:                -0.420
REMARK  4 active torsions:
REMARK  status: ('A' for Active; 'I' for Inactive)
REMARK    1  A    between atoms: O_2  and  C_3 
REMARK       I    between atoms: C_3  and  N_5 
REMARK    2  A    between atoms: N_5  and  N_6 
REMARK       I    between atoms: N_6  and  C_7 
REMARK       I    between atoms: C_7  and  N_9 
REMARK    3  A    between atoms: C_10  and  N_9 
REMARK    4  A    between atoms: C_10  and  C_12 
ROOT
ATOM      1  N   UNL d   1      22.011 -19.306   0.057  0.00  0.00    -0.247 N 
ATOM      2  C   UNL d   1      21.880 -18.168  -0.709  0.00  0.00     0.335 C 
ATOM      3  O   UNL d   1      20.802 -17.617  -0.916  0.00  0.00    -0.246 OA
ATOM      4  N   UNL d   1      23.037 -17.650  -1.250  0.00  0.00    -0.334 N 
ATOM      5  H   UNL d   1      22.901 -19.764   0.213  0.00  0.00     0.192 HD
ATOM      6  H   UNL d   1      22.897 -16.798  -1.780  0.00  0.00     0.165 HD
ENDROOT
BRANCH   4   7
ATOM      7  C   UNL d   1      24.415 -18.021  -0.924  0.00  0.00     0.115 C 
ATOM      8  C   UNL d   1      24.564 -18.078   0.606  0.00  0.00     0.037 C 
BRANCH   7   9
ATOM      9  C   UNL d   1      25.474 -17.109  -1.557  0.00  0.00    -0.035 A 
ATOM     10  C   UNL d   1      26.762 -16.968  -1.022  0.00  0.00     0.010 A 
ATOM     11  C   UNL d   1      27.697 -16.097  -1.617  0.00  0.00     0.008 A 
ATOM     12  C   UNL d   1      27.370 -15.349  -2.762  0.00  0.00    -0.052 A 
ATOM     13  C   UNL d   1      26.075 -15.442  -3.275  0.00  0.00    -0.051 A 
ATOM     14  C   UNL d   1      28.383 -14.435  -3.411  0.00  0.00     0.039 C 
ATOM     15  C   UNL d   1      25.160 -16.310  -2.672  0.00  0.00     0.017 A 
ATOM     16  C   UNL d   1      25.638 -14.725  -4.528  0.00  0.00     0.039 C 
ATOM     17  C   UNL d   1      26.556 -13.578  -4.923  0.00  0.00     0.005 C 
ATOM     18  C   UNL d   1      28.003 -14.045  -4.847  0.00  0.00     0.005 C 
ENDBRANCH   7   9
ENDBRANCH   4   7
BRANCH   1  19
ATOM     19  N   UNL d   1      20.898 -19.923   0.684  0.00  0.00    -0.241 N 
ATOM     20  C   UNL d   1      19.771 -20.217  -0.063  0.00  0.00     0.379 C 
ATOM     21  O   UNL d   1      19.681 -19.990  -1.269  0.00  0.00    -0.237 OA
ATOM     22  H   UNL d   1      20.958 -20.115   1.681  0.00  0.00     0.192 HD
BRANCH  20  23
ATOM     23  O   UNL d   1      18.782 -20.783   0.687  0.00  0.00    -0.308 OA
ATOM     24  C   UNL d   1      18.799 -20.453   2.090  0.00  0.00     0.215 C 
ENDBRANCH  20  23
ENDBRANCH   1  19
TORSDOF 4
ENDMDL
MODEL 2
REMARK VINA RESULT:    -7.813      1.642      2.591
REMARK INTER + INTRA:         -10.096
REMARK INTER:                  -9.007
REMARK INTRA:                  -1.089
REMARK CONF_INDEPENDENT:        1.193
REMARK UNBOUND:                -1.089
REMARK  4 active torsions:
REMARK  status: ('A' for Active; 'I' for Inactive)
REMARK    1  A    between atoms: O_2  and  C_3 
REMARK       I    between atoms: C_3  and  N_5 
REMARK    2  A    between atoms: N_5  and  N_6 
REMARK       I    between atoms: N_6  and  C_7 
REMARK       I    between atoms: C_7  and  N_9 
REMARK    3  A    between atoms: C_10  and  N_9 
REMARK    4  A    between atoms: C_10  and  C_12 
ROOT
ATOM      1  N   UNL d   1      20.713 -19.049   0.198  0.00  0.00    -0.247 N 
ATOM      2  C   UNL d   1      21.282 -19.104  -1.056  0.00  0.00     0.335 C 
ATOM      3  O   UNL d   1      20.769 -19.697  -2.002  0.00  0.00    -0.246 OA
ATOM      4  N   UNL d   1      22.481 -18.445  -1.220  0.00  0.00    -0.334 N 
ATOM      5  H   UNL d   1      21.148 -18.570   0.978  0.00  0.00     0.192 HD
ATOM      6  H   UNL d   1      22.847 -18.487  -2.165  0.00  0.00     0.165 HD
ENDROOT
BRANCH   4   7
ATOM      7  C   UNL d   1      23.113 -17.503  -0.297  0.00  0.00     0.115 C 
ATOM      8  C   UNL d   1      22.530 -16.101  -0.545  0.00  0.00     0.037 C 
BRANCH   7   9
ATOM      9  C   UNL d   1      24.645 -17.493  -0.363  0.00  0.00    -0.035 A 
ATOM     10  C   UNL d   1      25.444 -18.200   0.546  0.00  0.00     0.010 A 
ATOM     11  C   UNL d   1      26.850 -18.140   0.468  0.00  0.00     0.008 A 
ATOM     12  C   UNL d   1      27.492 -17.376  -0.521  0.00  0.00    -0.052 A 
ATOM     13  C   UNL d   1      26.710 -16.626  -1.402  0.00  0.00    -0.051 A 
ATOM     14  C   UNL d   1      29.000 -17.334  -0.617  0.00  0.00     0.039 C 
ATOM     15  C   UNL d   1      25.317 -16.696  -1.309  0.00  0.00     0.017 A 
ATOM     16  C   UNL d   1      27.297 -15.817  -2.531  0.00  0.00     0.039 C 
ATOM     17  C   UNL d   1      28.781 -15.531  -2.366  0.00  0.00     0.005 C 
ATOM     18  C   UNL d   1      29.499 -16.815  -1.973  0.00  0.00     0.005 C 
ENDBRANCH   7   9
ENDBRANCH   4   7
BRANCH   1  19
ATOM     19  N   UNL d   1      19.471 -19.670   0.488  0.00  0.00    -0.241 N 
ATOM     20  C   UNL d   1      19.224 -20.137   1.767  0.00  0.00     0.379 C 
ATOM     21  O   UNL d   1      20.026 -20.027   2.694  0.00  0.00    -0.237 OA
ATOM     22  H   UNL d   1      18.799 -19.769  -0.269  0.00  0.00     0.192 HD
BRANCH  20  23
ATOM     23  O   UNL d   1      18.000 -20.729   1.878  0.00  0.00    -0.308 OA
ATOM     24  C   UNL d   1      17.655 -21.646   0.821  0.00  0.00     0.215 C 
ENDBRANCH  20  23
ENDBRANCH   1  19
TORSDOF 4
ENDMDL
MODEL 3
REMARK VINA RESULT:    -7.809      1.019      2.243
REMARK INTER + INTRA:          -9.480
REMARK INTER:                  -9.002
REMARK INTRA:                  -0.478
REMARK CONF_INDEPENDENT:        1.193
REMARK UNBOUND:                -0.478
REMARK  4 active torsions:
REMARK  status: ('A' for Active; 'I' for Inactive)
REMARK    1  A    between atoms: O_2  and  C_3 
REMARK       I    between atoms: C_3  and  N_5 
REMARK    2  A    between atoms: N_5  and  N_6 
REMARK       I    between atoms: N_6  and  C_7 
REMARK       I    between atoms: C_7  and  N_9 
REMARK    3  A    between atoms: C_10  and  N_9 
REMARK    4  A    between atoms: C_10  and  C_12 
ROOT
ATOM      1  N   UNL d   1      22.147 -19.297  -0.128  0.00  0.00    -0.247 N 
ATOM      2  C   UNL d   1      22.073 -18.063  -0.738  0.00  0.00     0.335 C 
ATOM      3  O   UNL d   1      21.018 -17.453  -0.895  0.00  0.00    -0.246 OA
ATOM      4  N   UNL d   1      23.260 -17.517  -1.175  0.00  0.00    -0.334 N 
ATOM      5  H   UNL d   1      23.017 -19.802  -0.014  0.00  0.00     0.192 HD
ATOM      6  H   UNL d   1      23.162 -16.598  -1.589  0.00  0.00     0.165 HD
ENDROOT
BRANCH   4   7
ATOM      7  C   UNL d   1      24.616 -17.975  -0.868  0.00  0.00     0.115 C 
ATOM      8  C   UNL d   1      24.731 -18.199   0.649  0.00  0.00     0.037 C 
BRANCH   7   9
ATOM      9  C   UNL d   1      25.722 -17.045  -1.383  0.00  0.00    -0.035 A 
ATOM     10  C   UNL d   1      25.489 -16.062  -2.355  0.00  0.00     0.010 A 
ATOM     11  C   UNL d   1      26.540 -15.248  -2.822  0.00  0.00     0.008 A 
ATOM     12  C   UNL d   1      27.848 -15.393  -2.328  0.00  0.00    -0.052 A 
ATOM     13  C   UNL d   1      28.105 -16.401  -1.397  0.00  0.00    -0.051 A 
ATOM     14  C   UNL d   1      28.968 -14.502  -2.814  0.00  0.00     0.039 C 
ATOM     15  C   UNL d   1      27.051 -17.200  -0.945  0.00  0.00     0.017 A 
ATOM     16  C   UNL d   1      29.459 -16.605  -0.765  0.00  0.00     0.039 C 
ATOM     17  C   UNL d   1      30.593 -15.939  -1.528  0.00  0.00     0.005 C 
ATOM     18  C   UNL d   1      30.188 -14.514  -1.883  0.00  0.00     0.005 C 
ENDBRANCH   7   9
ENDBRANCH   4   7
BRANCH   1  19
ATOM     19  N   UNL d   1      20.997 -19.954   0.382  0.00  0.00    -0.241 N 
ATOM     20  C   UNL d   1      19.880 -20.098  -0.422  0.00  0.00     0.379 C 
ATOM     21  O   UNL d   1      19.829 -19.700  -1.586  0.00  0.00    -0.237 OA
ATOM     22  H   UNL d   1      21.024 -20.285   1.343  0.00  0.00     0.192 HD
BRANCH  20  23
ATOM     23  O   UNL d   1      18.853 -20.725   0.220  0.00  0.00    -0.308 OA
ATOM     24  C   UNL d   1      18.652 -20.341   1.594  0.00  0.00     0.215 C 
ENDBRANCH  20  23
ENDBRANCH   1  19
TORSDOF 4
ENDMDL
MODEL 4
REMARK VINA RESULT:    -7.352      1.367      2.550
REMARK INTER + INTRA:          -9.214
REMARK INTER:                  -8.545
REMARK INTRA:                  -0.668
REMARK CONF_INDEPENDENT:        1.193
REMARK UNBOUND:                -0.668
REMARK  4 active torsions:
REMARK  status: ('A' for Active; 'I' for Inactive)
REMARK    1  A    between atoms: O_2  and  C_3 
REMARK       I    between atoms: C_3  and  N_5 
REMARK    2  A    between atoms: N_5  and  N_6 
REMARK       I    between atoms: N_6  and  C_7 
REMARK       I    between atoms: C_7  and  N_9 
REMARK    3  A    between atoms: C_10  and  N_9 
REMARK    4  A    between atoms: C_10  and  C_12 
ROOT
ATOM      1  N   UNL d   1      23.268 -18.362  -0.945  0.00  0.00    -0.247 N 
ATOM      2  C   UNL d   1      23.176 -17.025  -0.621  0.00  0.00     0.335 C 
ATOM      3  O   UNL d   1      22.402 -16.591   0.229  0.00  0.00    -0.246 OA
ATOM      4  N   UNL d   1      24.012 -16.166  -1.300  0.00  0.00    -0.334 N 
ATOM      5  H   UNL d   1      23.899 -18.712  -1.657  0.00  0.00     0.192 HD
ATOM      6  H   UNL d   1      23.931 -15.198  -1.008  0.00  0.00     0.165 HD
ENDROOT
BRANCH   4   7
ATOM      7  C   UNL d   1      25.146 -16.517  -2.155  0.00  0.00     0.115 C 
ATOM      8  C   UNL d   1      26.303 -17.006  -1.267  0.00  0.00     0.037 C 
BRANCH   7   9
ATOM      9  C   UNL d   1      25.597 -15.389  -3.092  0.00  0.00    -0.035 A 
ATOM     10  C   UNL d   1      24.920 -14.165  -3.178  0.00  0.00     0.010 A 
ATOM     11  C   UNL d   1      25.351 -13.165  -4.073  0.00  0.00     0.008 A 
ATOM     12  C   UNL d   1      26.469 -13.362  -4.901  0.00  0.00    -0.052 A 
ATOM     13  C   UNL d   1      27.122 -14.595  -4.862  0.00  0.00    -0.051 A 
ATOM     14  C   UNL d   1      26.942 -12.279  -5.843  0.00  0.00     0.039 C 
ATOM     15  C   UNL d   1      26.681 -15.576  -3.970  0.00  0.00     0.017 A 
ATOM     16  C   UNL d   1      28.362 -14.889  -5.670  0.00  0.00     0.039 C 
ATOM     17  C   UNL d   1      28.577 -13.927  -6.827  0.00  0.00     0.005 C 
ATOM     18  C   UNL d   1      28.379 -12.500  -6.335  0.00  0.00     0.005 C 
ENDBRANCH   7   9
ENDBRANCH   4   7
BRANCH   1  19
ATOM     19  N   UNL d   1      22.476 -19.348  -0.303  0.00  0.00    -0.241 N 
ATOM     20  C   UNL d   1      21.097 -19.279  -0.391  0.00  0.00     0.379 C 
ATOM     21  O   UNL d   1      20.503 -18.406  -1.023  0.00  0.00    -0.237 OA
ATOM     22  H   UNL d   1      22.954 -20.074   0.225  0.00  0.00     0.192 HD
BRANCH  20  23
ATOM     23  O   UNL d   1      20.480 -20.281   0.299  0.00  0.00    -0.308 OA
ATOM     24  C   UNL d   1      19.039 -20.255   0.276  0.00  0.00     0.215 C 
ENDBRANCH  20  23
ENDBRANCH   1  19
TORSDOF 4
ENDMDL
MODEL 5
REMARK VINA RESULT:    -7.223      5.125      7.634
REMARK INTER + INTRA:          -9.152
REMARK INTER:                  -8.416
REMARK INTRA:                  -0.735
REMARK CONF_INDEPENDENT:        1.193
REMARK UNBOUND:                -0.735
REMARK  4 active torsions:
REMARK  status: ('A' for Active; 'I' for Inactive)
REMARK    1  A    between atoms: O_2  and  C_3 
REMARK       I    between atoms: C_3  and  N_5 
REMARK    2  A    between atoms: N_5  and  N_6 
REMARK       I    between atoms: N_6  and  C_7 
REMARK       I    between atoms: C_7  and  N_9 
REMARK    3  A    between atoms: C_10  and  N_9 
REMARK    4  A    between atoms: C_10  and  C_12 
ROOT
ATOM      1  N   UNL d   1      28.045 -14.768   2.130  0.00  0.00    -0.247 N 
ATOM      2  C   UNL d   1      27.469 -13.619   1.630  0.00  0.00     0.335 C 
ATOM      3  O   UNL d   1      27.378 -12.577   2.274  0.00  0.00    -0.246 OA
ATOM      4  N   UNL d   1      26.989 -13.680   0.340  0.00  0.00    -0.334 N 
ATOM      5  H   UNL d   1      28.104 -15.629   1.599  0.00  0.00     0.192 HD
ATOM      6  H   UNL d   1      26.602 -12.806   0.004  0.00  0.00     0.165 HD
ENDROOT
BRANCH   4   7
ATOM      7  C   UNL d   1      27.217 -14.736  -0.646  0.00  0.00     0.115 C 
ATOM      8  C   UNL d   1      27.120 -14.126  -2.055  0.00  0.00     0.037 C 
BRANCH   7   9
ATOM      9  C   UNL d   1      26.288 -15.947  -0.495  0.00  0.00    -0.035 A 
ATOM     10  C   UNL d   1      26.769 -17.240  -0.248  0.00  0.00     0.010 A 
ATOM     11  C   UNL d   1      25.883 -18.331  -0.144  0.00  0.00     0.008 A 
ATOM     12  C   UNL d   1      24.495 -18.157  -0.281  0.00  0.00    -0.052 A 
ATOM     13  C   UNL d   1      24.006 -16.883  -0.577  0.00  0.00    -0.051 A 
ATOM     14  C   UNL d   1      23.546 -19.325  -0.146  0.00  0.00     0.039 C 
ATOM     15  C   UNL d   1      24.899 -15.813  -0.678  0.00  0.00     0.017 A 
ATOM     16  C   UNL d   1      22.533 -16.580  -0.691  0.00  0.00     0.039 C 
ATOM     17  C   UNL d   1      21.671 -17.815  -0.895  0.00  0.00     0.005 C 
ATOM     18  C   UNL d   1      22.094 -18.891   0.096  0.00  0.00     0.005 C 
ENDBRANCH   7   9
ENDBRANCH   4   7
BRANCH   1  19
ATOM     19  N   UNL d   1      28.594 -14.826   3.437  0.00  0.00    -0.241 N 
ATOM     20  C   UNL d   1      27.822 -14.445   4.520  0.00  0.00     0.379 C 
ATOM     21  O   UNL d   1      26.654 -14.069   4.418  0.00  0.00    -0.237 OA
ATOM     22  H   UNL d   1      29.559 -15.133   3.535  0.00  0.00     0.192 HD
BRANCH  20  23
ATOM     23  O   UNL d   1      28.499 -14.533   5.700  0.00  0.00    -0.308 OA
ATOM     24  C   UNL d   1      29.819 -13.954   5.704  0.00  0.00     0.215 C 
ENDBRANCH  20  23
ENDBRANCH   1  19
TORSDOF 4
ENDMDL
MODEL 6
REMARK VINA RESULT:    -6.890      4.590      7.502
REMARK INTER + INTRA:          -9.550
REMARK INTER:                  -8.084
REMARK INTRA:                  -1.467
REMARK CONF_INDEPENDENT:        1.193
REMARK UNBOUND:                -1.467
REMARK  4 active torsions:
REMARK  status: ('A' for Active; 'I' for Inactive)
REMARK    1  A    between atoms: O_2  and  C_3 
REMARK       I    between atoms: C_3  and  N_5 
REMARK    2  A    between atoms: N_5  and  N_6 
REMARK       I    between atoms: N_6  and  C_7 
REMARK       I    between atoms: C_7  and  N_9 
REMARK    3  A    between atoms: C_10  and  N_9 
REMARK    4  A    between atoms: C_10  and  C_12 
ROOT
ATOM      1  N   UNL d   1      27.884 -15.293  -2.671  0.00  0.00    -0.247 N 
ATOM      2  C   UNL d   1      29.010 -15.341  -1.877  0.00  0.00     0.335 C 
ATOM      3  O   UNL d   1      30.152 -15.360  -2.331  0.00  0.00    -0.246 OA
ATOM      4  N   UNL d   1      28.805 -15.362  -0.515  0.00  0.00    -0.334 N 
ATOM      5  H   UNL d   1      26.944 -15.292  -2.292  0.00  0.00     0.192 HD
ATOM      6  H   UNL d   1      29.660 -15.367   0.029  0.00  0.00     0.165 HD
ENDROOT
BRANCH   4   7
ATOM      7  C   UNL d   1      27.555 -15.108   0.201  0.00  0.00     0.115 C 
ATOM      8  C   UNL d   1      27.880 -14.824   1.678  0.00  0.00     0.037 C 
BRANCH   7   9
ATOM      9  C   UNL d   1      26.514 -16.225   0.061  0.00  0.00    -0.035 A 
ATOM     10  C   UNL d   1      26.862 -17.583   0.053  0.00  0.00     0.010 A 
ATOM     11  C   UNL d   1      25.878 -18.578  -0.107  0.00  0.00     0.008 A 
ATOM     12  C   UNL d   1      24.521 -18.243  -0.259  0.00  0.00    -0.052 A 
ATOM     13  C   UNL d   1      24.166 -16.893  -0.303  0.00  0.00    -0.051 A 
ATOM     14  C   UNL d   1      23.465 -19.314  -0.406  0.00  0.00     0.039 C 
ATOM     15  C   UNL d   1      25.156 -15.919  -0.144  0.00  0.00     0.017 A 
ATOM     16  C   UNL d   1      22.735 -16.427  -0.409  0.00  0.00     0.039 C 
ATOM     17  C   UNL d   1      21.780 -17.504  -0.899  0.00  0.00     0.005 C 
ATOM     18  C   UNL d   1      22.046 -18.795  -0.137  0.00  0.00     0.005 C 
ENDBRANCH   7   9
ENDBRANCH   4   7
BRANCH   1  19
ATOM     19  N   UNL d   1      27.963 -15.247  -4.087  0.00  0.00    -0.241 N 
ATOM     20  C   UNL d   1      26.800 -15.213  -4.835  0.00  0.00     0.379 C 
ATOM     21  O   UNL d   1      25.675 -15.199  -4.335  0.00  0.00    -0.237 OA
ATOM     22  H   UNL d   1      28.886 -15.261  -4.514  0.00  0.00     0.192 HD
BRANCH  20  23
ATOM     23  O   UNL d   1      27.043 -15.197  -6.177  0.00  0.00    -0.308 OA
ATOM     24  C   UNL d   1      28.288 -14.591  -6.576  0.00  0.00     0.215 C 
ENDBRANCH  20  23
ENDBRANCH   1  19
TORSDOF 4
ENDMDL
MODEL 7
REMARK VINA RESULT:    -6.687      3.756      8.502
REMARK INTER + INTRA:          -9.126
REMARK INTER:                  -7.881
REMARK INTRA:                  -1.246
REMARK CONF_INDEPENDENT:        1.193
REMARK UNBOUND:                -1.246
REMARK  4 active torsions:
REMARK  status: ('A' for Active; 'I' for Inactive)
REMARK    1  A    between atoms: O_2  and  C_3 
REMARK       I    between atoms: C_3  and  N_5 
REMARK    2  A    between atoms: N_5  and  N_6 
REMARK       I    between atoms: N_6  and  C_7 
REMARK       I    between atoms: C_7  and  N_9 
REMARK    3  A    between atoms: C_10  and  N_9 
REMARK    4  A    between atoms: C_10  and  C_12 
ROOT
ATOM      1  N   UNL d   1      25.994 -15.675  -0.568  0.00  0.00    -0.247 N 
ATOM      2  C   UNL d   1      25.332 -16.178  -1.668  0.00  0.00     0.335 C 
ATOM      3  O   UNL d   1      25.692 -15.969  -2.823  0.00  0.00    -0.246 OA
ATOM      4  N   UNL d   1      24.219 -16.951  -1.418  0.00  0.00    -0.334 N 
ATOM      5  H   UNL d   1      25.684 -15.839   0.382  0.00  0.00     0.192 HD
ATOM      6  H   UNL d   1      23.782 -17.324  -2.253  0.00  0.00     0.165 HD
ENDROOT
BRANCH   4   7
ATOM      7  C   UNL d   1      23.785 -17.498  -0.132  0.00  0.00     0.115 C 
ATOM      8  C   UNL d   1      24.922 -18.353   0.451  0.00  0.00     0.037 C 
BRANCH   7   9
ATOM      9  C   UNL d   1      22.469 -18.284  -0.198  0.00  0.00    -0.035 A 
ATOM     10  C   UNL d   1      21.856 -18.627  -1.410  0.00  0.00     0.010 A 
ATOM     11  C   UNL d   1      20.632 -19.325  -1.426  0.00  0.00     0.008 A 
ATOM     12  C   UNL d   1      19.993 -19.701  -0.232  0.00  0.00    -0.052 A 
ATOM     13  C   UNL d   1      20.567 -19.323   0.983  0.00  0.00    -0.051 A 
ATOM     14  C   UNL d   1      18.692 -20.471  -0.253  0.00  0.00     0.039 C 
ATOM     15  C   UNL d   1      21.780 -18.629   0.980  0.00  0.00     0.017 A 
ATOM     16  C   UNL d   1      19.991 -19.721   2.319  0.00  0.00     0.039 C 
ATOM     17  C   UNL d   1      18.540 -20.171   2.246  0.00  0.00     0.005 C 
ATOM     18  C   UNL d   1      18.376 -21.146   1.089  0.00  0.00     0.005 C 
ENDBRANCH   7   9
ENDBRANCH   4   7
BRANCH   1  19
ATOM     19  N   UNL d   1      27.164 -14.882  -0.693  0.00  0.00    -0.241 N 
ATOM     20  C   UNL d   1      27.719 -14.302   0.434  0.00  0.00     0.379 C 
ATOM     21  O   UNL d   1      27.260 -14.453   1.567  0.00  0.00    -0.237 OA
ATOM     22  H   UNL d   1      27.552 -14.748  -1.623  0.00  0.00     0.192 HD
BRANCH  20  23
ATOM     23  O   UNL d   1      28.820 -13.552   0.146  0.00  0.00    -0.308 OA
ATOM     24  C   UNL d   1      30.071 -14.269   0.118  0.00  0.00     0.215 C 
ENDBRANCH  20  23
ENDBRANCH   1  19
TORSDOF 4
ENDMDL
MODEL 8
REMARK VINA RESULT:    -6.539      5.135      6.745
REMARK INTER + INTRA:          -9.011
REMARK INTER:                  -7.732
REMARK INTRA:                  -1.279
REMARK CONF_INDEPENDENT:        1.193
REMARK UNBOUND:                -1.279
REMARK  4 active torsions:
REMARK  status: ('A' for Active; 'I' for Inactive)
REMARK    1  A    between atoms: O_2  and  C_3 
REMARK       I    between atoms: C_3  and  N_5 
REMARK    2  A    between atoms: N_5  and  N_6 
REMARK       I    between atoms: N_6  and  C_7 
REMARK       I    between atoms: C_7  and  N_9 
REMARK    3  A    between atoms: C_10  and  N_9 
REMARK    4  A    between atoms: C_10  and  C_12 
ROOT
ATOM      1  N   UNL d   1      25.380 -17.329   0.015  0.00  0.00    -0.247 N 
ATOM      2  C   UNL d   1      26.636 -17.644   0.487  0.00  0.00     0.335 C 
ATOM      3  O   UNL d   1      27.056 -18.796   0.566  0.00  0.00    -0.246 OA
ATOM      4  N   UNL d   1      27.432 -16.589   0.876  0.00  0.00    -0.334 N 
ATOM      5  H   UNL d   1      25.033 -16.379  -0.034  0.00  0.00     0.192 HD
ATOM      6  H   UNL d   1      28.356 -16.865   1.188  0.00  0.00     0.165 HD
ENDROOT
BRANCH   4   7
ATOM      7  C   UNL d   1      27.201 -15.164   0.637  0.00  0.00     0.115 C 
ATOM      8  C   UNL d   1      28.092 -14.709  -0.533  0.00  0.00     0.037 C 
BRANCH   7   9
ATOM      9  C   UNL d   1      27.405 -14.280   1.873  0.00  0.00    -0.035 A 
ATOM     10  C   UNL d   1      27.183 -12.896   1.855  0.00  0.00     0.010 A 
ATOM     11  C   UNL d   1      27.410 -12.115   3.006  0.00  0.00     0.008 A 
ATOM     12  C   UNL d   1      27.861 -12.697   4.203  0.00  0.00    -0.052 A 
ATOM     13  C   UNL d   1      28.135 -14.066   4.221  0.00  0.00    -0.051 A 
ATOM     14  C   UNL d   1      28.081 -11.859   5.442  0.00  0.00     0.039 C 
ATOM     15  C   UNL d   1      27.905 -14.825   3.070  0.00  0.00     0.017 A 
ATOM     16  C   UNL d   1      28.571 -14.796   5.467  0.00  0.00     0.039 C 
ATOM     17  C   UNL d   1      29.104 -13.877   6.555  0.00  0.00     0.005 C 
ATOM     18  C   UNL d   1      28.156 -12.699   6.725  0.00  0.00     0.005 C 
ENDBRANCH   7   9
ENDBRANCH   4   7
BRANCH   1  19
ATOM     19  N   UNL d   1      24.474 -18.325  -0.434  0.00  0.00    -0.241 N 
ATOM     20  C   UNL d   1      23.195 -17.961  -0.817  0.00  0.00     0.379 C 
ATOM     21  O   UNL d   1      22.793 -16.798  -0.811  0.00  0.00    -0.237 OA
ATOM     22  H   UNL d   1      24.792 -19.291  -0.443  0.00  0.00     0.192 HD
BRANCH  20  23
ATOM     23  O   UNL d   1      22.441 -19.032  -1.198  0.00  0.00    -0.308 OA
ATOM     24  C   UNL d   1      21.034 -18.940  -0.895  0.00  0.00     0.215 C 
ENDBRANCH  20  23
ENDBRANCH   1  19
TORSDOF 4
ENDMDL
MODEL 9
REMARK VINA RESULT:    -6.512      6.341      8.503
REMARK INTER + INTRA:          -8.752
REMARK INTER:                  -7.706
REMARK INTRA:                  -1.046
REMARK CONF_INDEPENDENT:        1.193
REMARK UNBOUND:                -1.046
REMARK  4 active torsions:
REMARK  status: ('A' for Active; 'I' for Inactive)
REMARK    1  A    between atoms: O_2  and  C_3 
REMARK       I    between atoms: C_3  and  N_5 
REMARK    2  A    between atoms: N_5  and  N_6 
REMARK       I    between atoms: N_6  and  C_7 
REMARK       I    between atoms: C_7  and  N_9 
REMARK    3  A    between atoms: C_10  and  N_9 
REMARK    4  A    between atoms: C_10  and  C_12 
ROOT
ATOM      1  N   UNL d   1      29.976 -14.621   3.255  0.00  0.00    -0.247 N 
ATOM      2  C   UNL d   1      30.219 -13.796   2.178  0.00  0.00     0.335 C 
ATOM      3  O   UNL d   1      30.713 -12.676   2.287  0.00  0.00    -0.246 OA
ATOM      4  N   UNL d   1      29.881 -14.285   0.936  0.00  0.00    -0.334 N 
ATOM      5  H   UNL d   1      29.555 -15.538   3.161  0.00  0.00     0.192 HD
ATOM      6  H   UNL d   1      30.104 -13.658   0.172  0.00  0.00     0.165 HD
ENDROOT
BRANCH   4   7
ATOM      7  C   UNL d   1      29.513 -15.659   0.591  0.00  0.00     0.115 C 
ATOM      8  C   UNL d   1      30.531 -16.203  -0.427  0.00  0.00     0.037 C 
BRANCH   7   9
ATOM      9  C   UNL d   1      28.074 -15.812   0.081  0.00  0.00    -0.035 A 
ATOM     10  C   UNL d   1      27.408 -14.794  -0.614  0.00  0.00     0.010 A 
ATOM     11  C   UNL d   1      26.076 -14.965  -1.040  0.00  0.00     0.008 A 
ATOM     12  C   UNL d   1      25.377 -16.157  -0.786  0.00  0.00    -0.052 A 
ATOM     13  C   UNL d   1      26.011 -17.161  -0.051  0.00  0.00    -0.051 A 
ATOM     14  C   UNL d   1      23.957 -16.346  -1.265  0.00  0.00     0.039 C 
ATOM     15  C   UNL d   1      27.333 -16.974   0.365  0.00  0.00     0.017 A 
ATOM     16  C   UNL d   1      25.371 -18.497   0.229  0.00  0.00     0.039 C 
ATOM     17  C   UNL d   1      23.862 -18.500   0.042  0.00  0.00     0.005 C 
ATOM     18  C   UNL d   1      23.520 -17.817  -1.275  0.00  0.00     0.005 C 
ENDBRANCH   7   9
ENDBRANCH   4   7
BRANCH   1  19
ATOM     19  N   UNL d   1      30.298 -14.239   4.583  0.00  0.00    -0.241 N 
ATOM     20  C   UNL d   1      29.437 -14.567   5.616  0.00  0.00     0.379 C 
ATOM     21  O   UNL d   1      28.395 -15.201   5.451  0.00  0.00    -0.237 OA
ATOM     22  H   UNL d   1      31.155 -13.712   4.734  0.00  0.00     0.192 HD
BRANCH  20  23
ATOM     23  O   UNL d   1      29.873 -14.108   6.824  0.00  0.00    -0.308 OA
ATOM     24  C   UNL d   1      29.059 -13.085   7.431  0.00  0.00     0.215 C 
ENDBRANCH  20  23
ENDBRANCH   1  19
TORSDOF 4
ENDMDL
