MODEL 1
REMARK VINA RESULT:   -27.464      0.000      0.000
REMARK INTER + INTRA:         -28.947
REMARK INTER:                 -28.359
REMARK INTRA:                  -0.588
REMARK CONF_INDEPENDENT:        0.895
REMARK UNBOUND:                -0.588
REMARK  3 active torsions:
REMARK  status: ('A' for Active; 'I' for Inactive)
REMARK       I    between atoms: C_2  and  N_3 
REMARK    1  A    between atoms: C_2  and  C_11 
REMARK    2  A    between atoms: N_3  and  N_4 
REMARK    3  A    between atoms: C_5  and  C_6 
ROOT
ATOM      1  O   UNL d   1      22.490 -19.350  -0.504  0.00  0.00    -0.264 OA
ATOM      2  C   UNL d   1      22.278 -18.210  -0.941  0.00  0.00     0.295 C 
ATOM      3  N   UNL d   1      20.979 -17.740  -1.183  0.00  0.00    -0.241 N 
ATOM      4  H   UNL d   1      20.830 -16.838  -1.620  0.00  0.00     0.192 HD
ENDROOT
BRANCH   3   5
ATOM      5  N   UNL d   1      19.905 -18.578  -0.898  0.00  0.00    -0.182 NA
ATOM      6  C   UNL d   1      19.959 -19.358   0.134  0.00  0.00     0.168 C 
BRANCH   6   7
ATOM      7  C   UNL d   1      18.856 -20.258   0.448  0.00  0.00     0.051 A 
ATOM      8  C   UNL d   1      18.481 -20.779   1.679  0.00  0.00     0.032 A 
ATOM      9  C   UNL d   1      17.330 -21.588   1.502  0.00  0.00     0.019 A 
ATOM     10  C   UNL d   1      17.034 -21.575   0.161  0.00  0.00     0.088 A 
ATOM     11  N   UNL d   1      17.950 -20.765  -0.467  0.00  0.00    -0.365 N 
ATOM     12  H   UNL d   1      17.973 -20.611  -1.466  0.00  0.00     0.165 HD
ENDBRANCH   6   7
ENDBRANCH   3   5
BRANCH   2  13
ATOM     13  C   UNL d   1      23.399 -17.349  -1.300  0.00  0.00     0.144 A 
ATOM     14  C   UNL d   1      24.756 -17.633  -1.262  0.00  0.00     0.045 A 
ATOM     15  C   UNL d   1      25.453 -16.437  -1.541  0.00  0.00     0.027 A 
ATOM     16  C   UNL d   1      24.485 -15.475  -1.714  0.00  0.00     0.143 A 
ATOM     17  O   UNL d   1      23.235 -16.018  -1.610  0.00  0.00    -0.317 OA
ENDBRANCH   2  13
TORSDOF 3
ENDMDL
