MODEL 1
REMARK VINA RESULT:   -29.779      0.000      0.000
REMARK INTER + INTRA:         -34.385
REMARK INTER:                 -32.463
REMARK INTRA:                  -1.922
REMARK CONF_INDEPENDENT:        2.685
REMARK UNBOUND:                -1.922
REMARK  9 active torsions:
REMARK  status: ('A' for Active; 'I' for Inactive)
REMARK    1  A    between atoms: C_5  and  S_6 
REMARK    2  A    between atoms: S_6  and  N_9 
REMARK    3  A    between atoms: N_9  and  C_10 
REMARK    4  A    between atoms: C_10  and  C_11 
REMARK    5  A    between atoms: C_17  and  C_18 
REMARK    6  A    between atoms: C_18  and  O_20 
REMARK    7  A    between atoms: O_20  and  C_21 
REMARK    8  A    between atoms: C_21  and  C_22 
REMARK       I    between atoms: C_22  and  N_24 
REMARK       I    between atoms: N_24  and  C_25 
REMARK       I    between atoms: C_25  and  N_27 
REMARK    9  A    between atoms: N_27  and  C_28 
ROOT
ATOM      1  C   UNL d   1      26.348 -17.645   0.097  0.00  0.00     0.294 C 
ATOM      2  O   UNL d   1      26.726 -17.628   1.266  0.00  0.00    -0.259 OA
ENDROOT
BRANCH   1   3
ATOM      3  C   UNL d   1      24.931 -17.254  -0.304  0.00  0.00     0.046 A 
ATOM      4  C   UNL d   1      23.890 -18.167   0.016  0.00  0.00     0.042 A 
ATOM      5  C   UNL d   1      22.551 -17.884  -0.300  0.00  0.00     0.075 A 
ATOM      6  C   UNL d   1      22.223 -16.692  -0.954  0.00  0.00     0.025 A 
ATOM      7  C   UNL d   1      23.234 -15.786  -1.280  0.00  0.00     0.009 A 
ATOM      8  C   UNL d   1      24.586 -16.048  -0.959  0.00  0.00    -0.046 A 
ATOM      9  C   UNL d   1      25.609 -15.007  -1.329  0.00  0.00     0.049 C 
BRANCH   5  10
ATOM     10  S   UNL d   1      21.208 -18.974   0.125  0.00  0.00     0.241 S 
ATOM     11  O   UNL d   1      21.611 -20.311  -0.246  0.00  0.00    -0.206 OA
ATOM     12  O   UNL d   1      20.807 -18.660   1.482  0.00  0.00    -0.206 OA
BRANCH  10  13
ATOM     13  N   UNL d   1      19.905 -18.577  -0.896  0.00  0.00    -0.209 NA
ATOM     14  H   UNL d   1      20.237 -18.172  -1.771  0.00  0.00     0.140 HD
BRANCH  13  15
ATOM     15  C   UNL d   1      19.084 -19.777  -1.189  0.00  0.00     0.169 C 
BRANCH  15  16
ATOM     16  C   UNL d   1      18.591 -20.495   0.025  0.00  0.00     0.066 A 
ATOM     17  C   UNL d   1      17.672 -21.523   0.123  0.00  0.00     0.036 A 
ATOM     18  C   UNL d   1      17.558 -21.844   1.492  0.00  0.00     0.027 A 
ATOM     19  C   UNL d   1      18.415 -20.993   2.152  0.00  0.00     0.142 A 
ATOM     20  O   UNL d   1      19.041 -20.161   1.271  0.00  0.00    -0.326 OA
ENDBRANCH  15  16
ENDBRANCH  13  15
ENDBRANCH  10  13
ENDBRANCH   5  10
ENDBRANCH   1   3
BRANCH   1  21
ATOM     21  O   UNL d   1      27.144 -18.001  -0.937  0.00  0.00    -0.308 OA
BRANCH  21  22
ATOM     22  C   UNL d   1      28.505 -17.481  -1.029  0.00  0.00     0.282 C 
BRANCH  22  23
ATOM     23  C   UNL d   1      28.548 -16.031  -0.481  0.00  0.00     0.249 C 
ATOM     24  O   UNL d   1      28.521 -15.102  -1.292  0.00  0.00    -0.271 OA
ATOM     25  N   UNL d   1      28.642 -15.851   0.912  0.00  0.00    -0.277 N 
ATOM     26  C   UNL d   1      28.570 -14.583   1.459  0.00  0.00     0.323 C 
ATOM     27  H   UNL d   1      28.712 -16.643   1.527  0.00  0.00     0.173 HD
ATOM     28  O   UNL d   1      28.331 -13.601   0.766  0.00  0.00    -0.247 OA
ATOM     29  N   UNL d   1      28.859 -14.450   2.819  0.00  0.00    -0.338 N 
ATOM     30  H   UNL d   1      28.808 -15.250   3.431  0.00  0.00     0.164 HD
BRANCH  29  31
ATOM     31  C   UNL d   1      28.907 -13.094   3.488  0.00  0.00     0.089 C 
ATOM     32  C   UNL d   1      27.631 -12.249   3.211  0.00  0.00     0.026 C 
ATOM     33  C   UNL d   1      27.608 -10.904   3.967  0.00  0.00     0.002 C 
ATOM     34  C   UNL d   1      27.841 -11.063   5.466  0.00  0.00     0.001 C 
ATOM     35  C   UNL d   1      29.116 -11.839   5.727  0.00  0.00     0.006 C 
ATOM     36  C   UNL d   1      29.111 -13.198   5.026  0.00  0.00     0.004 C 
ATOM     37  C   UNL d   1      28.058 -14.136   5.638  0.00  0.00     0.012 C 
ENDBRANCH  29  31
ENDBRANCH  22  23
ENDBRANCH  21  22
ENDBRANCH   1  21
TORSDOF 9
ENDMDL
MODEL 2
REMARK VINA RESULT:   -29.480      3.492      5.434
REMARK INTER + INTRA:         -33.737
REMARK INTER:                 -32.165
REMARK INTRA:                  -1.572
REMARK CONF_INDEPENDENT:        2.685
REMARK UNBOUND:                -1.572
REMARK  9 active torsions:
REMARK  status: ('A' for Active; 'I' for Inactive)
REMARK    1  A    between atoms: C_5  and  S_6 
REMARK    2  A    between atoms: S_6  and  N_9 
REMARK    3  A    between atoms: N_9  and  C_10 
REMARK    4  A    between atoms: C_10  and  C_11 
REMARK    5  A    between atoms: C_17  and  C_18 
REMARK    6  A    between atoms: C_18  and  O_20 
REMARK    7  A    between atoms: O_20  and  C_21 
REMARK    8  A    between atoms: C_21  and  C_22 
REMARK       I    between atoms: C_22  and  N_24 
REMARK       I    between atoms: N_24  and  C_25 
REMARK       I    between atoms: C_25  and  N_27 
REMARK    9  A    between atoms: N_27  and  C_28 
ROOT
ATOM      1  C   UNL d   1      26.365 -18.093   0.264  0.00  0.00     0.294 C 
ATOM      2  O   UNL d   1      26.551 -18.642   1.348  0.00  0.00    -0.259 OA
ENDROOT
BRANCH   1   3
ATOM      3  C   UNL d   1      24.990 -17.601  -0.171  0.00  0.00     0.046 A 
ATOM      4  C   UNL d   1      23.877 -18.433   0.129  0.00  0.00     0.042 A 
ATOM      5  C   UNL d   1      22.570 -18.052  -0.219  0.00  0.00     0.075 A 
ATOM      6  C   UNL d   1      22.347 -16.844  -0.886  0.00  0.00     0.025 A 
ATOM      7  C   UNL d   1      23.429 -16.017  -1.192  0.00  0.00     0.009 A 
ATOM      8  C   UNL d   1      24.750 -16.376  -0.839  0.00  0.00    -0.046 A 
ATOM      9  C   UNL d   1      25.855 -15.417  -1.189  0.00  0.00     0.049 C 
BRANCH   5  10
ATOM     10  S   UNL d   1      21.140 -19.038   0.179  0.00  0.00     0.241 S 
ATOM     11  O   UNL d   1      21.462 -20.407  -0.150  0.00  0.00    -0.206 OA
ATOM     12  O   UNL d   1      20.717 -18.666   1.515  0.00  0.00    -0.206 OA
BRANCH  10  13
ATOM     13  N   UNL d   1      19.905 -18.575  -0.895  0.00  0.00    -0.209 NA
ATOM     14  H   UNL d   1      20.292 -18.265  -1.787  0.00  0.00     0.140 HD
BRANCH  13  15
ATOM     15  C   UNL d   1      18.966 -19.700  -1.131  0.00  0.00     0.169 C 
BRANCH  15  16
ATOM     16  C   UNL d   1      18.428 -20.322   0.117  0.00  0.00     0.066 A 
ATOM     17  C   UNL d   1      17.707 -21.490   0.273  0.00  0.00     0.036 A 
ATOM     18  C   UNL d   1      17.441 -21.629   1.652  0.00  0.00     0.027 A 
ATOM     19  C   UNL d   1      18.016 -20.536   2.258  0.00  0.00     0.142 A 
ATOM     20  O   UNL d   1      18.611 -19.728   1.334  0.00  0.00    -0.326 OA
ENDBRANCH  15  16
ENDBRANCH  13  15
ENDBRANCH  10  13
ENDBRANCH   5  10
ENDBRANCH   1   3
BRANCH   1  21
ATOM     21  O   UNL d   1      27.350 -17.869  -0.636  0.00  0.00    -0.308 OA
BRANCH  21  22
ATOM     22  C   UNL d   1      28.664 -17.420  -0.188  0.00  0.00     0.282 C 
BRANCH  22  23
ATOM     23  C   UNL d   1      29.305 -16.516  -1.273  0.00  0.00     0.249 C 
ATOM     24  O   UNL d   1      30.517 -16.300  -1.209  0.00  0.00    -0.271 OA
ATOM     25  N   UNL d   1      28.464 -15.967  -2.260  0.00  0.00    -0.277 N 
ATOM     26  C   UNL d   1      28.999 -15.248  -3.314  0.00  0.00     0.323 C 
ATOM     27  H   UNL d   1      27.473 -16.133  -2.238  0.00  0.00     0.173 HD
ATOM     28  O   UNL d   1      30.212 -15.149  -3.468  0.00  0.00    -0.247 OA
ATOM     29  N   UNL d   1      28.110 -14.571  -4.150  0.00  0.00    -0.338 N 
ATOM     30  H   UNL d   1      27.139 -14.841  -4.187  0.00  0.00     0.164 HD
BRANCH  29  31
ATOM     31  C   UNL d   1      28.601 -13.676  -5.267  0.00  0.00     0.089 C 
ATOM     32  C   UNL d   1      28.461 -14.340  -6.666  0.00  0.00     0.026 C 
ATOM     33  C   UNL d   1      28.858 -13.408  -7.830  0.00  0.00     0.002 C 
ATOM     34  C   UNL d   1      28.132 -12.067  -7.789  0.00  0.00     0.001 C 
ATOM     35  C   UNL d   1      28.320 -11.401  -6.441  0.00  0.00     0.006 C 
ATOM     36  C   UNL d   1      27.870 -12.304  -5.292  0.00  0.00     0.004 C 
ATOM     37  C   UNL d   1      26.348 -12.514  -5.312  0.00  0.00     0.012 C 
ENDBRANCH  29  31
ENDBRANCH  22  23
ENDBRANCH  21  22
ENDBRANCH   1  21
TORSDOF 9
ENDMDL
MODEL 3
REMARK VINA RESULT:   -29.329      3.047      5.890
REMARK INTER + INTRA:         -32.919
REMARK INTER:                 -32.014
REMARK INTRA:                  -0.906
REMARK CONF_INDEPENDENT:        2.685
REMARK UNBOUND:                -0.906
REMARK  9 active torsions:
REMARK  status: ('A' for Active; 'I' for Inactive)
REMARK    1  A    between atoms: C_5  and  S_6 
REMARK    2  A    between atoms: S_6  and  N_9 
REMARK    3  A    between atoms: N_9  and  C_10 
REMARK    4  A    between atoms: C_10  and  C_11 
REMARK    5  A    between atoms: C_17  and  C_18 
REMARK    6  A    between atoms: C_18  and  O_20 
REMARK    7  A    between atoms: O_20  and  C_21 
REMARK    8  A    between atoms: C_21  and  C_22 
REMARK       I    between atoms: C_22  and  N_24 
REMARK       I    between atoms: N_24  and  C_25 
REMARK       I    between atoms: C_25  and  N_27 
REMARK    9  A    between atoms: N_27  and  C_28 
ROOT
ATOM      1  C   UNL d   1      26.370 -17.855   0.115  0.00  0.00     0.294 C 
ATOM      2  O   UNL d   1      26.833 -18.957  -0.170  0.00  0.00    -0.259 OA
ENDROOT
BRANCH   1   3
ATOM      3  C   UNL d   1      24.972 -17.426  -0.311  0.00  0.00     0.046 A 
ATOM      4  C   UNL d   1      23.895 -18.287   0.034  0.00  0.00     0.042 A 
ATOM      5  C   UNL d   1      22.569 -17.965  -0.303  0.00  0.00     0.075 A 
ATOM      6  C   UNL d   1      22.291 -16.787  -1.002  0.00  0.00     0.025 A 
ATOM      7  C   UNL d   1      23.338 -15.932  -1.354  0.00  0.00     0.009 A 
ATOM      8  C   UNL d   1      24.677 -16.233  -1.013  0.00  0.00    -0.046 A 
ATOM      9  C   UNL d   1      25.740 -15.247  -1.413  0.00  0.00     0.049 C 
BRANCH   5  10
ATOM     10  S   UNL d   1      21.182 -18.987   0.152  0.00  0.00     0.241 S 
ATOM     11  O   UNL d   1      21.539 -20.351  -0.161  0.00  0.00    -0.206 OA
ATOM     12  O   UNL d   1      20.782 -18.604   1.492  0.00  0.00    -0.206 OA
BRANCH  10  13
ATOM     13  N   UNL d   1      19.905 -18.584  -0.897  0.00  0.00    -0.209 NA
ATOM     14  H   UNL d   1      20.259 -18.259  -1.797  0.00  0.00     0.140 HD
BRANCH  13  15
ATOM     15  C   UNL d   1      19.014 -19.751  -1.111  0.00  0.00     0.169 C 
BRANCH  15  16
ATOM     16  C   UNL d   1      18.567 -20.421   0.148  0.00  0.00     0.066 A 
ATOM     17  C   UNL d   1      17.739 -21.515   0.312  0.00  0.00     0.036 A 
ATOM     18  C   UNL d   1      17.634 -21.747   1.700  0.00  0.00     0.027 A 
ATOM     19  C   UNL d   1      18.405 -20.780   2.303  0.00  0.00     0.142 A 
ATOM     20  O   UNL d   1      18.970 -19.961   1.370  0.00  0.00    -0.326 OA
ENDBRANCH  15  16
ENDBRANCH  13  15
ENDBRANCH  10  13
ENDBRANCH   5  10
ENDBRANCH   1   3
BRANCH   1  21
ATOM     21  O   UNL d   1      27.046 -16.927   0.831  0.00  0.00    -0.308 OA
BRANCH  21  22
ATOM     22  C   UNL d   1      27.832 -15.904   0.149  0.00  0.00     0.282 C 
BRANCH  22  23
ATOM     23  C   UNL d   1      28.908 -16.578  -0.742  0.00  0.00     0.249 C 
ATOM     24  O   UNL d   1      29.165 -16.064  -1.833  0.00  0.00    -0.271 OA
ATOM     25  N   UNL d   1      29.515 -17.758  -0.270  0.00  0.00    -0.277 N 
ATOM     26  C   UNL d   1      30.558 -18.335  -0.971  0.00  0.00     0.323 C 
ATOM     27  H   UNL d   1      29.232 -18.164   0.605  0.00  0.00     0.173 HD
ATOM     28  O   UNL d   1      31.040 -17.794  -1.960  0.00  0.00    -0.247 OA
ATOM     29  N   UNL d   1      30.990 -19.598  -0.560  0.00  0.00    -0.338 N 
ATOM     30  H   UNL d   1      30.784 -19.929   0.370  0.00  0.00     0.164 HD
BRANCH  29  31
ATOM     31  C   UNL d   1      32.054 -20.356  -1.323  0.00  0.00     0.089 C 
ATOM     32  C   UNL d   1      33.250 -20.773  -0.421  0.00  0.00     0.026 C 
ATOM     33  C   UNL d   1      34.298 -21.638  -1.151  0.00  0.00     0.002 C 
ATOM     34  C   UNL d   1      33.687 -22.853  -1.841  0.00  0.00     0.001 C 
ATOM     35  C   UNL d   1      32.559 -22.432  -2.761  0.00  0.00     0.006 C 
ATOM     36  C   UNL d   1      31.491 -21.626  -2.021  0.00  0.00     0.004 C 
ATOM     37  C   UNL d   1      30.738 -22.500  -1.006  0.00  0.00     0.012 C 
ENDBRANCH  29  31
ENDBRANCH  22  23
ENDBRANCH  21  22
ENDBRANCH   1  21
TORSDOF 9
ENDMDL
MODEL 4
REMARK VINA RESULT:   -29.009      3.608      6.486
REMARK INTER + INTRA:         -33.452
REMARK INTER:                 -31.694
REMARK INTRA:                  -1.758
REMARK CONF_INDEPENDENT:        2.685
REMARK UNBOUND:                -1.758
REMARK  9 active torsions:
REMARK  status: ('A' for Active; 'I' for Inactive)
REMARK    1  A    between atoms: C_5  and  S_6 
REMARK    2  A    between atoms: S_6  and  N_9 
REMARK    3  A    between atoms: N_9  and  C_10 
REMARK    4  A    between atoms: C_10  and  C_11 
REMARK    5  A    between atoms: C_17  and  C_18 
REMARK    6  A    between atoms: C_18  and  O_20 
REMARK    7  A    between atoms: O_20  and  C_21 
REMARK    8  A    between atoms: C_21  and  C_22 
REMARK       I    between atoms: C_22  and  N_24 
REMARK       I    between atoms: N_24  and  C_25 
REMARK       I    between atoms: C_25  and  N_27 
REMARK    9  A    between atoms: N_27  and  C_28 
ROOT
ATOM      1  C   UNL d   1      26.409 -18.167  -0.227  0.00  0.00     0.294 C 
ATOM      2  O   UNL d   1      26.613 -19.132   0.505  0.00  0.00    -0.259 OA
ENDROOT
BRANCH   1   3
ATOM      3  C   UNL d   1      25.010 -17.620  -0.481  0.00  0.00     0.046 A 
ATOM      4  C   UNL d   1      23.914 -18.465  -0.156  0.00  0.00     0.042 A 
ATOM      5  C   UNL d   1      22.587 -18.039  -0.340  0.00  0.00     0.075 A 
ATOM      6  C   UNL d   1      22.326 -16.769  -0.865  0.00  0.00     0.025 A 
ATOM      7  C   UNL d   1      23.392 -15.929  -1.194  0.00  0.00     0.009 A 
ATOM      8  C   UNL d   1      24.732 -16.334  -1.004  0.00  0.00    -0.046 A 
ATOM      9  C   UNL d   1      25.819 -15.358  -1.366  0.00  0.00     0.049 C 
BRANCH   5  10
ATOM     10  S   UNL d   1      21.182 -19.043   0.098  0.00  0.00     0.241 S 
ATOM     11  O   UNL d   1      21.502 -20.404  -0.263  0.00  0.00    -0.206 OA
ATOM     12  O   UNL d   1      20.806 -18.693   1.454  0.00  0.00    -0.206 OA
BRANCH  10  13
ATOM     13  N   UNL d   1      19.903 -18.575  -0.922  0.00  0.00    -0.209 NA
ATOM     14  H   UNL d   1      20.253 -18.265  -1.829  0.00  0.00     0.140 HD
BRANCH  13  15
ATOM     15  C   UNL d   1      18.953 -19.698  -1.120  0.00  0.00     0.169 C 
BRANCH  15  16
ATOM     16  C   UNL d   1      18.489 -20.341   0.147  0.00  0.00     0.066 A 
ATOM     17  C   UNL d   1      17.992 -21.613   0.354  0.00  0.00     0.036 A 
ATOM     18  C   UNL d   1      17.701 -21.723   1.730  0.00  0.00     0.027 A 
ATOM     19  C   UNL d   1      18.037 -20.510   2.285  0.00  0.00     0.142 A 
ATOM     20  O   UNL d   1      18.509 -19.657   1.330  0.00  0.00    -0.326 OA
ENDBRANCH  15  16
ENDBRANCH  13  15
ENDBRANCH  10  13
ENDBRANCH   5  10
ENDBRANCH   1   3
BRANCH   1  21
ATOM     21  O   UNL d   1      27.395 -17.499  -0.869  0.00  0.00    -0.308 OA
BRANCH  21  22
ATOM     22  C   UNL d   1      28.550 -17.005  -0.127  0.00  0.00     0.282 C 
BRANCH  22  23
ATOM     23  C   UNL d   1      29.786 -16.946  -1.062  0.00  0.00     0.249 C 
ATOM     24  O   UNL d   1      30.830 -16.464  -0.616  0.00  0.00    -0.271 OA
ATOM     25  N   UNL d   1      29.644 -17.420  -2.380  0.00  0.00    -0.277 N 
ATOM     26  C   UNL d   1      30.742 -17.495  -3.218  0.00  0.00     0.323 C 
ATOM     27  H   UNL d   1      28.756 -17.757  -2.709  0.00  0.00     0.173 HD
ATOM     28  O   UNL d   1      31.871 -17.242  -2.814  0.00  0.00    -0.247 OA
ATOM     29  N   UNL d   1      30.507 -17.790  -4.562  0.00  0.00    -0.338 N 
ATOM     30  H   UNL d   1      29.647 -18.234  -4.844  0.00  0.00     0.164 HD
BRANCH  29  31
ATOM     31  C   UNL d   1      31.629 -17.794  -5.577  0.00  0.00     0.089 C 
ATOM     32  C   UNL d   1      31.383 -18.806  -6.732  0.00  0.00     0.026 C 
ATOM     33  C   UNL d   1      32.461 -18.754  -7.835  0.00  0.00     0.002 C 
ATOM     34  C   UNL d   1      32.682 -17.347  -8.382  0.00  0.00     0.001 C 
ATOM     35  C   UNL d   1      32.977 -16.379  -7.255  0.00  0.00     0.006 C 
ATOM     36  C   UNL d   1      31.877 -16.388  -6.192  0.00  0.00     0.004 C 
ATOM     37  C   UNL d   1      30.563 -15.812  -6.747  0.00  0.00     0.012 C 
ENDBRANCH  29  31
ENDBRANCH  22  23
ENDBRANCH  21  22
ENDBRANCH   1  21
TORSDOF 9
ENDMDL
MODEL 5
REMARK VINA RESULT:   -28.999      2.880      3.529
REMARK INTER + INTRA:         -32.866
REMARK INTER:                 -31.684
REMARK INTRA:                  -1.182
REMARK CONF_INDEPENDENT:        2.685
REMARK UNBOUND:                -1.182
REMARK  9 active torsions:
REMARK  status: ('A' for Active; 'I' for Inactive)
REMARK    1  A    between atoms: C_5  and  S_6 
REMARK    2  A    between atoms: S_6  and  N_9 
REMARK    3  A    between atoms: N_9  and  C_10 
REMARK    4  A    between atoms: C_10  and  C_11 
REMARK    5  A    between atoms: C_17  and  C_18 
REMARK    6  A    between atoms: C_18  and  O_20 
REMARK    7  A    between atoms: O_20  and  C_21 
REMARK    8  A    between atoms: C_21  and  C_22 
REMARK       I    between atoms: C_22  and  N_24 
REMARK       I    between atoms: N_24  and  C_25 
REMARK       I    between atoms: C_25  and  N_27 
REMARK    9  A    between atoms: N_27  and  C_28 
ROOT
ATOM      1  C   UNL d   1      26.380 -18.016   0.068  0.00  0.00     0.294 C 
ATOM      2  O   UNL d   1      26.579 -19.136   0.535  0.00  0.00    -0.259 OA
ENDROOT
BRANCH   1   3
ATOM      3  C   UNL d   1      24.986 -17.527  -0.302  0.00  0.00     0.046 A 
ATOM      4  C   UNL d   1      23.893 -18.374   0.022  0.00  0.00     0.042 A 
ATOM      5  C   UNL d   1      22.569 -17.997  -0.266  0.00  0.00     0.075 A 
ATOM      6  C   UNL d   1      22.311 -16.776  -0.895  0.00  0.00     0.025 A 
ATOM      7  C   UNL d   1      23.375 -15.933  -1.225  0.00  0.00     0.009 A 
ATOM      8  C   UNL d   1      24.711 -16.289  -0.932  0.00  0.00    -0.046 A 
ATOM      9  C   UNL d   1      25.794 -15.313  -1.303  0.00  0.00     0.049 C 
BRANCH   5  10
ATOM     10  S   UNL d   1      21.164 -19.003   0.166  0.00  0.00     0.241 S 
ATOM     11  O   UNL d   1      21.506 -20.370  -0.151  0.00  0.00    -0.206 OA
ATOM     12  O   UNL d   1      20.753 -18.623   1.503  0.00  0.00    -0.206 OA
BRANCH  10  13
ATOM     13  N   UNL d   1      19.905 -18.576  -0.896  0.00  0.00    -0.209 NA
ATOM     14  H   UNL d   1      20.273 -18.156  -1.749  0.00  0.00     0.140 HD
BRANCH  13  15
ATOM     15  C   UNL d   1      19.088 -19.764  -1.245  0.00  0.00     0.169 C 
BRANCH  15  16
ATOM     16  C   UNL d   1      18.524 -20.490  -0.066  0.00  0.00     0.066 A 
ATOM     17  C   UNL d   1      17.347 -21.206   0.042  0.00  0.00     0.036 A 
ATOM     18  C   UNL d   1      17.281 -21.693   1.365  0.00  0.00     0.027 A 
ATOM     19  C   UNL d   1      18.422 -21.244   1.988  0.00  0.00     0.142 A 
ATOM     20  O   UNL d   1      19.182 -20.503   1.132  0.00  0.00    -0.326 OA
ENDBRANCH  15  16
ENDBRANCH  13  15
ENDBRANCH  10  13
ENDBRANCH   5  10
ENDBRANCH   1   3
BRANCH   1  21
ATOM     21  O   UNL d   1      27.367 -17.118  -0.156  0.00  0.00    -0.308 OA
BRANCH  21  22
ATOM     22  C   UNL d   1      28.163 -17.190  -1.377  0.00  0.00     0.282 C 
BRANCH  22  23
ATOM     23  C   UNL d   1      29.636 -16.822  -1.063  0.00  0.00     0.249 C 
ATOM     24  O   UNL d   1      30.448 -16.829  -1.991  0.00  0.00    -0.271 OA
ATOM     25  N   UNL d   1      29.977 -16.526   0.271  0.00  0.00    -0.277 N 
ATOM     26  C   UNL d   1      31.248 -16.083   0.586  0.00  0.00     0.323 C 
ATOM     27  H   UNL d   1      29.287 -16.585   1.000  0.00  0.00     0.173 HD
ATOM     28  O   UNL d   1      32.077 -15.848  -0.286  0.00  0.00    -0.247 OA
ATOM     29  N   UNL d   1      31.582 -15.989   1.939  0.00  0.00    -0.338 N 
ATOM     30  H   UNL d   1      30.858 -15.935   2.639  0.00  0.00     0.164 HD
BRANCH  29  31
ATOM     31  C   UNL d   1      32.978 -15.612   2.384  0.00  0.00     0.089 C 
ATOM     32  C   UNL d   1      34.076 -16.186   1.445  0.00  0.00     0.026 C 
ATOM     33  C   UNL d   1      35.502 -15.729   1.817  0.00  0.00     0.002 C 
ATOM     34  C   UNL d   1      35.626 -14.213   1.938  0.00  0.00     0.001 C 
ATOM     35  C   UNL d   1      34.588 -13.670   2.898  0.00  0.00     0.006 C 
ATOM     36  C   UNL d   1      33.170 -14.073   2.493  0.00  0.00     0.004 C 
ATOM     37  C   UNL d   1      32.750 -13.392   1.181  0.00  0.00     0.012 C 
ENDBRANCH  29  31
ENDBRANCH  22  23
ENDBRANCH  21  22
ENDBRANCH   1  21
TORSDOF 9
ENDMDL
