MODEL 1
REMARK VINA RESULT:    -9.506      0.000      0.000
REMARK INTER + INTRA:         -14.995
REMARK INTER:                 -13.980
REMARK INTRA:                  -1.014
REMARK CONF_INDEPENDENT:        4.474
REMARK UNBOUND:                -1.014
REMARK  15 active torsions:
REMARK  status: ('A' for Active; 'I' for Inactive)
REMARK    1  A    between atoms: S_2  and  C_4 
REMARK    2  A    between atoms: S_2  and  N_23 
REMARK    3  A    between atoms: C_4  and  C_5 
REMARK    4  A    between atoms: C_5  and  C_6 
REMARK    5  A    between atoms: C_6  and  C_7 
REMARK    6  A    between atoms: C_7  and  C_8 
REMARK    7  A    between atoms: C_8  and  C_9 
REMARK    8  A    between atoms: C_9  and  C_10 
REMARK    9  A    between atoms: C_10  and  C_11 
REMARK   10  A    between atoms: C_11  and  S_12 
REMARK   11  A    between atoms: S_12  and  N_15 
REMARK   12  A    between atoms: N_15  and  C_16 
REMARK   13  A    between atoms: C_20  and  O_21 
REMARK   14  A    between atoms: N_23  and  C_24 
REMARK   15  A    between atoms: C_28  and  O_29 
ROOT
ATOM      1  C   UNL d   1      26.083 -15.572  -2.461  0.00  0.00     0.000 C 
ENDROOT
BRANCH   1   2
ATOM      2  C   UNL d   1      24.635 -15.668  -2.002  0.00  0.00     0.001 C 
BRANCH   2   3
ATOM      3  C   UNL d   1      24.274 -17.124  -1.714  0.00  0.00     0.017 C 
BRANCH   3   4
ATOM      4  C   UNL d   1      23.189 -17.195  -0.660  0.00  0.00     0.163 C 
BRANCH   4   5
ATOM      5  S   UNL d   1      21.947 -18.436  -1.026  0.00  0.00     0.231 S 
ATOM      6  O   UNL d   1      20.687 -17.734  -1.211  0.00  0.00    -0.206 OA
ATOM      7  O   UNL d   1      22.455 -19.325  -2.039  0.00  0.00    -0.206 OA
BRANCH   5   8
ATOM      8  N   UNL d   1      21.769 -19.275   0.430  0.00  0.00    -0.285 N 
ATOM      9  H   UNL d   1      22.413 -18.955   1.154  0.00  0.00     0.178 HD
BRANCH   8  10
ATOM     10  C   UNL d   1      20.516 -19.835   0.828  0.00  0.00     0.044 A 
ATOM     11  C   UNL d   1      20.220 -19.942   2.185  0.00  0.00     0.030 A 
ATOM     12  C   UNL d   1      19.013 -20.459   2.641  0.00  0.00     0.005 A 
ATOM     13  C   UNL d   1      18.030 -20.803   1.728  0.00  0.00     0.036 A 
ATOM     14  C   UNL d   1      18.282 -20.632   0.369  0.00  0.00     0.067 A 
ATOM     15  C   UNL d   1      19.520 -20.163  -0.095  0.00  0.00     0.066 A 
BRANCH  14  16
ATOM     16  O   UNL d   1      17.311 -20.902  -0.554  0.00  0.00    -0.361 OA
ATOM     17  H   UNL d   1      17.701 -20.858  -1.444  0.00  0.00     0.217 HD
ENDBRANCH  14  16
ENDBRANCH   8  10
ENDBRANCH   5   8
ENDBRANCH   4   5
ENDBRANCH   3   4
ENDBRANCH   2   3
ENDBRANCH   1   2
BRANCH   1  18
ATOM     18  C   UNL d   1      27.014 -15.286  -1.290  0.00  0.00     0.000 C 
BRANCH  18  19
ATOM     19  C   UNL d   1      26.495 -15.962  -0.022  0.00  0.00     0.001 C 
BRANCH  19  20
ATOM     20  C   UNL d   1      27.570 -15.983   1.057  0.00  0.00     0.017 C 
BRANCH  20  21
ATOM     21  C   UNL d   1      28.594 -14.855   0.882  0.00  0.00     0.163 C 
BRANCH  21  22
ATOM     22  S   UNL d   1      28.456 -13.717   2.267  0.00  0.00     0.231 S 
ATOM     23  O   UNL d   1      29.423 -12.657   2.065  0.00  0.00    -0.206 OA
ATOM     24  O   UNL d   1      27.044 -13.425   2.399  0.00  0.00    -0.206 OA
BRANCH  22  25
ATOM     25  N   UNL d   1      28.947 -14.597   3.610  0.00  0.00    -0.285 N 
ATOM     26  H   UNL d   1      29.213 -15.575   3.532  0.00  0.00     0.178 HD
BRANCH  25  27
ATOM     27  C   UNL d   1      28.951 -13.986   4.913  0.00  0.00     0.044 A 
ATOM     28  C   UNL d   1      27.849 -13.263   5.378  0.00  0.00     0.030 A 
ATOM     29  C   UNL d   1      27.821 -12.725   6.666  0.00  0.00     0.005 A 
ATOM     30  C   UNL d   1      28.895 -12.917   7.527  0.00  0.00     0.036 A 
ATOM     31  C   UNL d   1      29.991 -13.651   7.081  0.00  0.00     0.067 A 
ATOM     32  C   UNL d   1      30.028 -14.186   5.786  0.00  0.00     0.066 A 
BRANCH  31  33
ATOM     33  O   UNL d   1      31.059 -13.880   7.901  0.00  0.00    -0.361 OA
ATOM     34  H   UNL d   1      31.880 -13.704   7.409  0.00  0.00     0.217 HD
ENDBRANCH  31  33
ENDBRANCH  25  27
ENDBRANCH  22  25
ENDBRANCH  21  22
ENDBRANCH  20  21
ENDBRANCH  19  20
ENDBRANCH  18  19
ENDBRANCH   1  18
TORSDOF 15
ENDMDL
MODEL 2
REMARK VINA RESULT:    -8.453      5.011      7.551
REMARK INTER + INTRA:         -14.486
REMARK INTER:                 -12.928
REMARK INTRA:                  -1.558
REMARK CONF_INDEPENDENT:        4.474
REMARK UNBOUND:                -1.558
REMARK  15 active torsions:
REMARK  status: ('A' for Active; 'I' for Inactive)
REMARK    1  A    between atoms: S_2  and  C_4 
REMARK    2  A    between atoms: S_2  and  N_23 
REMARK    3  A    between atoms: C_4  and  C_5 
REMARK    4  A    between atoms: C_5  and  C_6 
REMARK    5  A    between atoms: C_6  and  C_7 
REMARK    6  A    between atoms: C_7  and  C_8 
REMARK    7  A    between atoms: C_8  and  C_9 
REMARK    8  A    between atoms: C_9  and  C_10 
REMARK    9  A    between atoms: C_10  and  C_11 
REMARK   10  A    between atoms: C_11  and  S_12 
REMARK   11  A    between atoms: S_12  and  N_15 
REMARK   12  A    between atoms: N_15  and  C_16 
REMARK   13  A    between atoms: C_20  and  O_21 
REMARK   14  A    between atoms: N_23  and  C_24 
REMARK   15  A    between atoms: C_28  and  O_29 
ROOT
ATOM      1  C   UNL d   1      26.712 -16.369   0.190  0.00  0.00     0.000 C 
ENDROOT
BRANCH   1   2
ATOM      2  C   UNL d   1      26.589 -17.792   0.717  0.00  0.00     0.001 C 
BRANCH   2   3
ATOM      3  C   UNL d   1      25.557 -18.565  -0.104  0.00  0.00     0.017 C 
BRANCH   3   4
ATOM      4  C   UNL d   1      24.158 -18.232   0.369  0.00  0.00     0.163 C 
BRANCH   4   5
ATOM      5  S   UNL d   1      23.147 -17.499  -0.919  0.00  0.00     0.231 S 
ATOM      6  O   UNL d   1      22.267 -16.538  -0.273  0.00  0.00    -0.206 OA
ATOM      7  O   UNL d   1      23.996 -17.106  -2.014  0.00  0.00    -0.206 OA
BRANCH   5   8
ATOM      8  N   UNL d   1      22.134 -18.759  -1.407  0.00  0.00    -0.285 N 
ATOM      9  H   UNL d   1      22.606 -19.443  -1.998  0.00  0.00     0.178 HD
BRANCH   8  10
ATOM     10  C   UNL d   1      21.031 -19.192  -0.607  0.00  0.00     0.044 A 
ATOM     11  C   UNL d   1      19.864 -19.621  -1.235  0.00  0.00     0.030 A 
ATOM     12  C   UNL d   1      18.763 -20.075  -0.518  0.00  0.00     0.005 A 
ATOM     13  C   UNL d   1      18.845 -20.189   0.860  0.00  0.00     0.036 A 
ATOM     14  C   UNL d   1      20.033 -19.835   1.496  0.00  0.00     0.067 A 
ATOM     15  C   UNL d   1      21.126 -19.325   0.780  0.00  0.00     0.066 A 
BRANCH  14  16
ATOM     16  O   UNL d   1      20.168 -19.996   2.847  0.00  0.00    -0.361 OA
ATOM     17  H   UNL d   1      21.084 -20.260   3.042  0.00  0.00     0.217 HD
ENDBRANCH  14  16
ENDBRANCH   8  10
ENDBRANCH   5   8
ENDBRANCH   4   5
ENDBRANCH   3   4
ENDBRANCH   2   3
ENDBRANCH   1   2
BRANCH   1  18
ATOM     18  C   UNL d   1      27.444 -16.339  -1.145  0.00  0.00     0.000 C 
BRANCH  18  19
ATOM     19  C   UNL d   1      26.531 -15.789  -2.239  0.00  0.00     0.001 C 
BRANCH  19  20
ATOM     20  C   UNL d   1      26.772 -14.299  -2.445  0.00  0.00     0.017 C 
BRANCH  20  21
ATOM     21  C   UNL d   1      26.256 -13.806  -3.802  0.00  0.00     0.163 C 
BRANCH  21  22
ATOM     22  S   UNL d   1      27.104 -14.698  -5.113  0.00  0.00     0.231 S 
ATOM     23  O   UNL d   1      26.337 -15.893  -5.400  0.00  0.00    -0.206 OA
ATOM     24  O   UNL d   1      27.377 -13.719  -6.145  0.00  0.00    -0.206 OA
BRANCH  22  25
ATOM     25  N   UNL d   1      28.563 -15.186  -4.440  0.00  0.00    -0.285 N 
ATOM     26  H   UNL d   1      28.793 -14.979  -3.471  0.00  0.00     0.178 HD
BRANCH  25  27
ATOM     27  C   UNL d   1      29.540 -15.867  -5.247  0.00  0.00     0.044 A 
ATOM     28  C   UNL d   1      29.867 -17.206  -5.013  0.00  0.00     0.030 A 
ATOM     29  C   UNL d   1      30.765 -17.891  -5.834  0.00  0.00     0.005 A 
ATOM     30  C   UNL d   1      31.342 -17.252  -6.924  0.00  0.00     0.036 A 
ATOM     31  C   UNL d   1      31.009 -15.924  -7.178  0.00  0.00     0.067 A 
ATOM     32  C   UNL d   1      30.116 -15.228  -6.352  0.00  0.00     0.066 A 
BRANCH  31  33
ATOM     33  O   UNL d   1      31.539 -15.264  -8.251  0.00  0.00    -0.361 OA
ATOM     34  H   UNL d   1      31.029 -14.450  -8.405  0.00  0.00     0.217 HD
ENDBRANCH  31  33
ENDBRANCH  25  27
ENDBRANCH  22  25
ENDBRANCH  21  22
ENDBRANCH  20  21
ENDBRANCH  19  20
ENDBRANCH  18  19
ENDBRANCH   1  18
TORSDOF 15
ENDMDL
MODEL 3
REMARK VINA RESULT:    -7.105      4.466      9.311
REMARK INTER + INTRA:         -14.770
REMARK INTER:                 -11.580
REMARK INTRA:                  -3.190
REMARK CONF_INDEPENDENT:        4.474
REMARK UNBOUND:                -3.190
REMARK  15 active torsions:
REMARK  status: ('A' for Active; 'I' for Inactive)
REMARK    1  A    between atoms: S_2  and  C_4 
REMARK    2  A    between atoms: S_2  and  N_23 
REMARK    3  A    between atoms: C_4  and  C_5 
REMARK    4  A    between atoms: C_5  and  C_6 
REMARK    5  A    between atoms: C_6  and  C_7 
REMARK    6  A    between atoms: C_7  and  C_8 
REMARK    7  A    between atoms: C_8  and  C_9 
REMARK    8  A    between atoms: C_9  and  C_10 
REMARK    9  A    between atoms: C_10  and  C_11 
REMARK   10  A    between atoms: C_11  and  S_12 
REMARK   11  A    between atoms: S_12  and  N_15 
REMARK   12  A    between atoms: N_15  and  C_16 
REMARK   13  A    between atoms: C_20  and  O_21 
REMARK   14  A    between atoms: N_23  and  C_24 
REMARK   15  A    between atoms: C_28  and  O_29 
ROOT
ATOM      1  C   UNL d   1      25.273 -17.421   0.211  0.00  0.00     0.000 C 
ENDROOT
BRANCH   1   2
ATOM      2  C   UNL d   1      26.679 -17.980   0.047  0.00  0.00     0.001 C 
BRANCH   2   3
ATOM      3  C   UNL d   1      27.680 -16.836  -0.111  0.00  0.00     0.017 C 
BRANCH   3   4
ATOM      4  C   UNL d   1      27.044 -15.525   0.300  0.00  0.00     0.163 C 
BRANCH   4   5
ATOM      5  S   UNL d   1      27.751 -14.114  -0.553  0.00  0.00     0.231 S 
ATOM      6  O   UNL d   1      28.553 -14.638  -1.648  0.00  0.00    -0.206 OA
ATOM      7  O   UNL d   1      26.715 -13.143  -0.793  0.00  0.00    -0.206 OA
BRANCH   5   8
ATOM      8  N   UNL d   1      28.871 -13.492   0.548  0.00  0.00    -0.285 N 
ATOM      9  H   UNL d   1      29.516 -12.824   0.124  0.00  0.00     0.178 HD
BRANCH   8  10
ATOM     10  C   UNL d   1      28.567 -13.361   1.939  0.00  0.00     0.044 A 
ATOM     11  C   UNL d   1      28.126 -12.132   2.424  0.00  0.00     0.030 A 
ATOM     12  C   UNL d   1      27.794 -11.941   3.760  0.00  0.00     0.005 A 
ATOM     13  C   UNL d   1      27.817 -13.019   4.630  0.00  0.00     0.036 A 
ATOM     14  C   UNL d   1      28.184 -14.271   4.143  0.00  0.00     0.067 A 
ATOM     15  C   UNL d   1      28.573 -14.454   2.807  0.00  0.00     0.066 A 
BRANCH  14  16
ATOM     16  O   UNL d   1      28.156 -15.366   4.960  0.00  0.00    -0.361 OA
ATOM     17  H   UNL d   1      28.900 -15.950   4.730  0.00  0.00     0.217 HD
ENDBRANCH  14  16
ENDBRANCH   8  10
ENDBRANCH   5   8
ENDBRANCH   4   5
ENDBRANCH   3   4
ENDBRANCH   2   3
ENDBRANCH   1   2
BRANCH   1  18
ATOM     18  C   UNL d   1      24.271 -18.196  -0.634  0.00  0.00     0.000 C 
BRANCH  18  19
ATOM     19  C   UNL d   1      24.055 -17.497  -1.976  0.00  0.00     0.001 C 
BRANCH  19  20
ATOM     20  C   UNL d   1      24.629 -16.087  -1.948  0.00  0.00     0.017 C 
BRANCH  20  21
ATOM     21  C   UNL d   1      25.968 -15.986  -2.689  0.00  0.00     0.163 C 
BRANCH  21  22
ATOM     22  S   UNL d   1      25.808 -14.799  -4.030  0.00  0.00     0.231 S 
ATOM     23  O   UNL d   1      26.485 -15.347  -5.187  0.00  0.00    -0.206 OA
ATOM     24  O   UNL d   1      24.403 -14.449  -4.083  0.00  0.00    -0.206 OA
BRANCH  22  25
ATOM     25  N   UNL d   1      26.675 -13.451  -3.530  0.00  0.00    -0.285 N 
ATOM     26  H   UNL d   1      27.423 -13.529  -2.847  0.00  0.00     0.178 HD
BRANCH  25  27
ATOM     27  C   UNL d   1      26.335 -12.146  -4.031  0.00  0.00     0.044 A 
ATOM     28  C   UNL d   1      26.294 -11.884  -5.404  0.00  0.00     0.030 A 
ATOM     29  C   UNL d   1      25.900 -10.638  -5.896  0.00  0.00     0.005 A 
ATOM     30  C   UNL d   1      25.519  -9.629  -5.021  0.00  0.00     0.036 A 
ATOM     31  C   UNL d   1      25.538  -9.885  -3.652  0.00  0.00     0.067 A 
ATOM     32  C   UNL d   1      25.941 -11.130  -3.151  0.00  0.00     0.066 A 
BRANCH  31  33
ATOM     33  O   UNL d   1      25.152  -8.927  -2.757  0.00  0.00    -0.361 OA
ATOM     34  H   UNL d   1      24.415  -8.417  -3.137  0.00  0.00     0.217 HD
ENDBRANCH  31  33
ENDBRANCH  25  27
ENDBRANCH  22  25
ENDBRANCH  21  22
ENDBRANCH  20  21
ENDBRANCH  19  20
ENDBRANCH  18  19
ENDBRANCH   1  18
TORSDOF 15
ENDMDL
MODEL 4
REMARK VINA RESULT:    -6.965      4.380      9.746
REMARK INTER + INTRA:         -14.935
REMARK INTER:                 -11.439
REMARK INTRA:                  -3.495
REMARK CONF_INDEPENDENT:        4.474
REMARK UNBOUND:                -3.495
REMARK  15 active torsions:
REMARK  status: ('A' for Active; 'I' for Inactive)
REMARK    1  A    between atoms: S_2  and  C_4 
REMARK    2  A    between atoms: S_2  and  N_23 
REMARK    3  A    between atoms: C_4  and  C_5 
REMARK    4  A    between atoms: C_5  and  C_6 
REMARK    5  A    between atoms: C_6  and  C_7 
REMARK    6  A    between atoms: C_7  and  C_8 
REMARK    7  A    between atoms: C_8  and  C_9 
REMARK    8  A    between atoms: C_9  and  C_10 
REMARK    9  A    between atoms: C_10  and  C_11 
REMARK   10  A    between atoms: C_11  and  S_12 
REMARK   11  A    between atoms: S_12  and  N_15 
REMARK   12  A    between atoms: N_15  and  C_16 
REMARK   13  A    between atoms: C_20  and  O_21 
REMARK   14  A    between atoms: N_23  and  C_24 
REMARK   15  A    between atoms: C_28  and  O_29 
ROOT
ATOM      1  C   UNL d   1      25.439 -17.837   0.561  0.00  0.00     0.000 C 
ENDROOT
BRANCH   1   2
ATOM      2  C   UNL d   1      26.866 -18.165   0.145  0.00  0.00     0.001 C 
BRANCH   2   3
ATOM      3  C   UNL d   1      27.709 -16.890   0.124  0.00  0.00     0.017 C 
BRANCH   3   4
ATOM      4  C   UNL d   1      26.883 -15.710   0.589  0.00  0.00     0.163 C 
BRANCH   4   5
ATOM      5  S   UNL d   1      27.293 -14.193  -0.277  0.00  0.00     0.231 S 
ATOM      6  O   UNL d   1      28.601 -14.389  -0.882  0.00  0.00    -0.206 OA
ATOM      7  O   UNL d   1      26.163 -13.787  -1.073  0.00  0.00    -0.206 OA
BRANCH   5   8
ATOM      8  N   UNL d   1      27.549 -13.074   0.961  0.00  0.00    -0.285 N 
ATOM      9  H   UNL d   1      26.827 -12.353   1.001  0.00  0.00     0.178 HD
BRANCH   8  10
ATOM     10  C   UNL d   1      28.230 -13.427   2.168  0.00  0.00     0.044 A 
ATOM     11  C   UNL d   1      27.523 -14.065   3.184  0.00  0.00     0.030 A 
ATOM     12  C   UNL d   1      28.128 -14.454   4.374  0.00  0.00     0.005 A 
ATOM     13  C   UNL d   1      29.493 -14.285   4.533  0.00  0.00     0.036 A 
ATOM     14  C   UNL d   1      30.228 -13.715   3.494  0.00  0.00     0.067 A 
ATOM     15  C   UNL d   1      29.610 -13.272   2.316  0.00  0.00     0.066 A 
BRANCH  14  16
ATOM     16  O   UNL d   1      31.585 -13.592   3.595  0.00  0.00    -0.361 OA
ATOM     17  H   UNL d   1      31.902 -14.180   4.302  0.00  0.00     0.217 HD
ENDBRANCH  14  16
ENDBRANCH   8  10
ENDBRANCH   5   8
ENDBRANCH   4   5
ENDBRANCH   3   4
ENDBRANCH   2   3
ENDBRANCH   1   2
BRANCH   1  18
ATOM     18  C   UNL d   1      24.450 -18.189  -0.542  0.00  0.00     0.000 C 
BRANCH  18  19
ATOM     19  C   UNL d   1      23.458 -17.046  -0.751  0.00  0.00     0.001 C 
BRANCH  19  20
ATOM     20  C   UNL d   1      24.069 -15.952  -1.616  0.00  0.00     0.017 C 
BRANCH  20  21
ATOM     21  C   UNL d   1      25.186 -16.481  -2.525  0.00  0.00     0.163 C 
BRANCH  21  22
ATOM     22  S   UNL d   1      25.529 -15.263  -3.802  0.00  0.00     0.231 S 
ATOM     23  O   UNL d   1      25.527 -15.949  -5.077  0.00  0.00    -0.206 OA
ATOM     24  O   UNL d   1      24.629 -14.158  -3.546  0.00  0.00    -0.206 OA
BRANCH  22  25
ATOM     25  N   UNL d   1      27.101 -14.749  -3.509  0.00  0.00    -0.285 N 
ATOM     26  H   UNL d   1      27.339 -14.238  -2.663  0.00  0.00     0.178 HD
BRANCH  25  27
ATOM     27  C   UNL d   1      28.133 -14.986  -4.483  0.00  0.00     0.044 A 
ATOM     28  C   UNL d   1      29.019 -16.059  -4.354  0.00  0.00     0.030 A 
ATOM     29  C   UNL d   1      29.979 -16.332  -5.330  0.00  0.00     0.005 A 
ATOM     30  C   UNL d   1      30.059 -15.544  -6.472  0.00  0.00     0.036 A 
ATOM     31  C   UNL d   1      29.169 -14.484  -6.620  0.00  0.00     0.067 A 
ATOM     32  C   UNL d   1      28.209 -14.199  -5.639  0.00  0.00     0.066 A 
BRANCH  31  33
ATOM     33  O   UNL d   1      29.201 -13.696  -7.735  0.00  0.00    -0.361 OA
ATOM     34  H   UNL d   1      28.615 -14.080  -8.411  0.00  0.00     0.217 HD
ENDBRANCH  31  33
ENDBRANCH  25  27
ENDBRANCH  22  25
ENDBRANCH  21  22
ENDBRANCH  20  21
ENDBRANCH  19  20
ENDBRANCH  18  19
ENDBRANCH   1  18
TORSDOF 15
ENDMDL
