MODEL 1
REMARK VINA RESULT:   -31.925      0.000      0.000
REMARK INTER + INTRA:         -35.395
REMARK INTER:                 -34.610
REMARK INTRA:                  -0.784
REMARK CONF_INDEPENDENT:        2.685
REMARK UNBOUND:                -0.784
REMARK  9 active torsions:
REMARK  status: ('A' for Active; 'I' for Inactive)
REMARK    1  A    between atoms: C_2  and  C_4 
REMARK    2  A    between atoms: C_7  and  C_8 
REMARK    3  A    between atoms: C_8  and  C_9 
REMARK    4  A    between atoms: C_9  and  C_10 
REMARK    5  A    between atoms: C_10  and  N_11 
REMARK       I    between atoms: N_11  and  C_12 
REMARK       I    between atoms: C_12  and  N_14 
REMARK    6  A    between atoms: N_14  and  CA_15 
REMARK    7  A    between atoms: CA_15  and  C_16 
REMARK    8  A    between atoms: CA_15  and  C_18 
REMARK    9  A    between atoms: C_16  and  O_17 
ROOT
ATOM      1  N   UNL d   1      25.919 -16.788  -0.466  0.00  0.00    -0.343 N 
ATOM      2  C   UNL d   1      25.705 -16.655  -1.814  0.00  0.00     0.316 C 
ATOM      3  O   UNL d   1      25.037 -17.471  -2.452  0.00  0.00    -0.247 OA
ATOM      4  N   UNL d   1      26.268 -15.547  -2.390  0.00  0.00    -0.332 N 
ATOM      5  H   UNL d   1      26.562 -16.176   0.015  0.00  0.00     0.164 HD
ATOM      6  H   UNL d   1      26.878 -14.953  -1.846  0.00  0.00     0.165 HD
ENDROOT
BRANCH   1   7
ATOM      7  C   UNL d   1      25.264 -17.872   0.263  0.00  0.00     0.125 C 
BRANCH   7   8
ATOM      8  C   UNL d   1      23.748 -17.855   0.140  0.00  0.00     0.028 C 
BRANCH   8   9
ATOM      9  C   UNL d   1      23.212 -18.925  -0.825  0.00  0.00     0.090 C 
BRANCH   9  10
ATOM     10  C   UNL d   1      21.780 -19.186  -0.535  0.00  0.00     0.172 A 
ATOM     11  O   UNL d   1      20.857 -18.753  -1.442  0.00  0.00    -0.196 OA
ATOM     12  N   UNL d   1      19.606 -19.098  -0.920  0.00  0.00    -0.111 NA
ATOM     13  C   UNL d   1      19.912 -19.701   0.239  0.00  0.00     0.159 A 
ATOM     14  N   UNL d   1      21.249 -19.779   0.509  0.00  0.00    -0.208 NA
BRANCH  13  15
ATOM     15  C   UNL d   1      18.893 -20.169   1.221  0.00  0.00     0.051 C 
ATOM     16  C   UNL d   1      18.192 -21.424   0.704  0.00  0.00     0.018 C 
ATOM     17  C   UNL d   1      19.497 -20.425   2.600  0.00  0.00     0.018 C 
ENDBRANCH  13  15
ENDBRANCH   9  10
ENDBRANCH   8   9
ENDBRANCH   7   8
ENDBRANCH   1   7
BRANCH   4  18
ATOM     18  CA  UNL d   1      26.025 -15.201  -3.810  0.00  0.00     0.143 C 
BRANCH  18  19
ATOM     19  C   UNL d   1      25.260 -13.842  -3.943  0.00  0.00     0.194 C 
BRANCH  19  20
ATOM     20  O   UNL d   1      23.875 -13.886  -4.242  0.00  0.00    -0.398 OA
ATOM     21  H   UNL d   1      23.638 -13.039  -4.669  0.00  0.00     0.209 HD
ENDBRANCH  19  20
ENDBRANCH  18  19
BRANCH  18  22
ATOM     22  C   UNL d   1      27.337 -15.139  -4.622  0.00  0.00    -0.033 A 
ATOM     23  C   UNL d   1      27.432 -14.388  -5.804  0.00  0.00     0.009 A 
ATOM     24  C   UNL d   1      28.585 -14.457  -6.602  0.00  0.00     0.001 A 
ATOM     25  C   UNL d   1      29.700 -15.184  -6.187  0.00  0.00     0.000 A 
ATOM     26  C   UNL d   1      29.661 -15.866  -4.983  0.00  0.00     0.001 A 
ATOM     27  C   UNL d   1      28.498 -15.840  -4.218  0.00  0.00     0.009 A 
ENDBRANCH  18  22
ENDBRANCH   4  18
TORSDOF 9
ENDMDL
MODEL 2
REMARK VINA RESULT:   -31.888      1.118      1.295
REMARK INTER + INTRA:         -35.278
REMARK INTER:                 -34.573
REMARK INTRA:                  -0.705
REMARK CONF_INDEPENDENT:        2.685
REMARK UNBOUND:                -0.705
REMARK  9 active torsions:
REMARK  status: ('A' for Active; 'I' for Inactive)
REMARK    1  A    between atoms: C_2  and  C_4 
REMARK    2  A    between atoms: C_7  and  C_8 
REMARK    3  A    between atoms: C_8  and  C_9 
REMARK    4  A    between atoms: C_9  and  C_10 
REMARK    5  A    between atoms: C_10  and  N_11 
REMARK       I    between atoms: N_11  and  C_12 
REMARK       I    between atoms: C_12  and  N_14 
REMARK    6  A    between atoms: N_14  and  CA_15 
REMARK    7  A    between atoms: CA_15  and  C_16 
REMARK    8  A    between atoms: CA_15  and  C_18 
REMARK    9  A    between atoms: C_16  and  O_17 
ROOT
ATOM      1  N   UNL d   1      25.728 -16.362  -1.702  0.00  0.00    -0.343 N 
ATOM      2  C   UNL d   1      25.530 -15.519  -2.765  0.00  0.00     0.316 C 
ATOM      3  O   UNL d   1      24.507 -14.838  -2.876  0.00  0.00    -0.247 OA
ATOM      4  N   UNL d   1      26.552 -15.474  -3.676  0.00  0.00    -0.332 N 
ATOM      5  H   UNL d   1      26.515 -16.994  -1.688  0.00  0.00     0.164 HD
ATOM      6  H   UNL d   1      27.330 -16.111  -3.589  0.00  0.00     0.165 HD
ENDROOT
BRANCH   1   7
ATOM      7  C   UNL d   1      24.751 -16.394  -0.616  0.00  0.00     0.125 C 
BRANCH   7   8
ATOM      8  C   UNL d   1      23.430 -17.039  -1.009  0.00  0.00     0.028 C 
BRANCH   8   9
ATOM      9  C   UNL d   1      23.368 -18.537  -0.668  0.00  0.00     0.090 C 
BRANCH   9  10
ATOM     10  C   UNL d   1      21.952 -18.952  -0.499  0.00  0.00     0.172 A 
ATOM     11  O   UNL d   1      21.143 -18.918  -1.596  0.00  0.00    -0.196 OA
ATOM     12  N   UNL d   1      19.878 -19.325  -1.160  0.00  0.00    -0.111 NA
ATOM     13  C   UNL d   1      20.064 -19.560   0.147  0.00  0.00     0.159 A 
ATOM     14  N   UNL d   1      21.338 -19.345   0.593  0.00  0.00    -0.208 NA
BRANCH  13  15
ATOM     15  C   UNL d   1      18.967 -19.931   1.085  0.00  0.00     0.051 C 
ATOM     16  C   UNL d   1      18.159 -21.100   0.523  0.00  0.00     0.018 C 
ATOM     17  C   UNL d   1      19.489 -20.265   2.481  0.00  0.00     0.018 C 
ENDBRANCH  13  15
ENDBRANCH   9  10
ENDBRANCH   8   9
ENDBRANCH   7   8
ENDBRANCH   1   7
BRANCH   4  18
ATOM     18  CA  UNL d   1      26.538 -14.523  -4.813  0.00  0.00     0.143 C 
BRANCH  18  19
ATOM     19  C   UNL d   1      26.108 -13.090  -4.351  0.00  0.00     0.194 C 
BRANCH  19  20
ATOM     20  O   UNL d   1      25.611 -12.197  -5.333  0.00  0.00    -0.398 OA
ATOM     21  H   UNL d   1      24.662 -12.053  -5.149  0.00  0.00     0.209 HD
ENDBRANCH  19  20
ENDBRANCH  18  19
BRANCH  18  22
ATOM     22  C   UNL d   1      27.907 -14.450  -5.522  0.00  0.00    -0.033 A 
ATOM     23  C   UNL d   1      28.249 -13.366  -6.344  0.00  0.00     0.009 A 
ATOM     24  C   UNL d   1      29.438 -13.384  -7.091  0.00  0.00     0.001 A 
ATOM     25  C   UNL d   1      30.354 -14.426  -6.952  0.00  0.00     0.000 A 
ATOM     26  C   UNL d   1      30.077 -15.468  -6.083  0.00  0.00     0.001 A 
ATOM     27  C   UNL d   1      28.874 -15.474  -5.382  0.00  0.00     0.009 A 
ENDBRANCH  18  22
ENDBRANCH   4  18
TORSDOF 9
ENDMDL
MODEL 3
REMARK VINA RESULT:   -31.649      2.197      3.204
REMARK INTER + INTRA:         -35.783
REMARK INTER:                 -34.334
REMARK INTRA:                  -1.450
REMARK CONF_INDEPENDENT:        2.685
REMARK UNBOUND:                -1.450
REMARK  9 active torsions:
REMARK  status: ('A' for Active; 'I' for Inactive)
REMARK    1  A    between atoms: C_2  and  C_4 
REMARK    2  A    between atoms: C_7  and  C_8 
REMARK    3  A    between atoms: C_8  and  C_9 
REMARK    4  A    between atoms: C_9  and  C_10 
REMARK    5  A    between atoms: C_10  and  N_11 
REMARK       I    between atoms: N_11  and  C_12 
REMARK       I    between atoms: C_12  and  N_14 
REMARK    6  A    between atoms: N_14  and  CA_15 
REMARK    7  A    between atoms: CA_15  and  C_16 
REMARK    8  A    between atoms: CA_15  and  C_18 
REMARK    9  A    between atoms: C_16  and  O_17 
ROOT
ATOM      1  N   UNL d   1      26.446 -18.223   0.435  0.00  0.00    -0.343 N 
ATOM      2  C   UNL d   1      27.060 -17.182  -0.214  0.00  0.00     0.316 C 
ATOM      3  O   UNL d   1      26.417 -16.259  -0.721  0.00  0.00    -0.247 OA
ATOM      4  N   UNL d   1      28.428 -17.233  -0.240  0.00  0.00    -0.332 N 
ATOM      5  H   UNL d   1      26.981 -19.023   0.740  0.00  0.00     0.164 HD
ATOM      6  H   UNL d   1      28.907 -18.049   0.112  0.00  0.00     0.165 HD
ENDROOT
BRANCH   1   7
ATOM      7  C   UNL d   1      24.997 -18.202   0.620  0.00  0.00     0.125 C 
BRANCH   7   8
ATOM      8  C   UNL d   1      24.218 -18.320  -0.682  0.00  0.00     0.028 C 
BRANCH   8   9
ATOM      9  C   UNL d   1      22.990 -17.397  -0.733  0.00  0.00     0.090 C 
BRANCH   9  10
ATOM     10  C   UNL d   1      21.753 -18.202  -0.568  0.00  0.00     0.172 A 
ATOM     11  O   UNL d   1      20.640 -17.804  -1.248  0.00  0.00    -0.196 OA
ATOM     12  N   UNL d   1      19.628 -18.705  -0.900  0.00  0.00    -0.111 NA
ATOM     13  C   UNL d   1      20.242 -19.544  -0.053  0.00  0.00     0.159 A 
ATOM     14  N   UNL d   1      21.561 -19.268   0.173  0.00  0.00    -0.208 NA
BRANCH  13  15
ATOM     15  C   UNL d   1      19.544 -20.641   0.676  0.00  0.00     0.051 C 
ATOM     16  C   UNL d   1      19.590 -20.391   2.183  0.00  0.00     0.018 C 
ATOM     17  C   UNL d   1      18.102 -20.818   0.208  0.00  0.00     0.018 C 
ENDBRANCH  13  15
ENDBRANCH   9  10
ENDBRANCH   8   9
ENDBRANCH   7   8
ENDBRANCH   1   7
BRANCH   4  18
ATOM     18  CA  UNL d   1      29.237 -16.122  -0.797  0.00  0.00     0.143 C 
BRANCH  18  19
ATOM     19  C   UNL d   1      30.753 -16.288  -0.444  0.00  0.00     0.194 C 
BRANCH  19  20
ATOM     20  O   UNL d   1      31.187 -17.546   0.043  0.00  0.00    -0.398 OA
ATOM     21  H   UNL d   1      30.671 -17.745   0.850  0.00  0.00     0.209 HD
ENDBRANCH  19  20
ENDBRANCH  18  19
BRANCH  18  22
ATOM     22  C   UNL d   1      29.071 -15.998  -2.327  0.00  0.00    -0.033 A 
ATOM     23  C   UNL d   1      29.698 -16.894  -3.206  0.00  0.00     0.009 A 
ATOM     24  C   UNL d   1      29.652 -16.682  -4.593  0.00  0.00     0.001 A 
ATOM     25  C   UNL d   1      28.896 -15.642  -5.133  0.00  0.00     0.000 A 
ATOM     26  C   UNL d   1      28.200 -14.794  -4.289  0.00  0.00     0.001 A 
ATOM     27  C   UNL d   1      28.289 -14.974  -2.911  0.00  0.00     0.009 A 
ENDBRANCH  18  22
ENDBRANCH   4  18
TORSDOF 9
ENDMDL
MODEL 4
REMARK VINA RESULT:   -31.434      1.713      2.657
REMARK INTER + INTRA:         -35.695
REMARK INTER:                 -34.118
REMARK INTRA:                  -1.577
REMARK CONF_INDEPENDENT:        2.685
REMARK UNBOUND:                -1.577
REMARK  9 active torsions:
REMARK  status: ('A' for Active; 'I' for Inactive)
REMARK    1  A    between atoms: C_2  and  C_4 
REMARK    2  A    between atoms: C_7  and  C_8 
REMARK    3  A    between atoms: C_8  and  C_9 
REMARK    4  A    between atoms: C_9  and  C_10 
REMARK    5  A    between atoms: C_10  and  N_11 
REMARK       I    between atoms: N_11  and  C_12 
REMARK       I    between atoms: C_12  and  N_14 
REMARK    6  A    between atoms: N_14  and  CA_15 
REMARK    7  A    between atoms: CA_15  and  C_16 
REMARK    8  A    between atoms: CA_15  and  C_18 
REMARK    9  A    between atoms: C_16  and  O_17 
ROOT
ATOM      1  N   UNL d   1      25.313 -16.441  -1.541  0.00  0.00    -0.343 N 
ATOM      2  C   UNL d   1      25.649 -15.615  -2.582  0.00  0.00     0.316 C 
ATOM      3  O   UNL d   1      24.798 -14.987  -3.217  0.00  0.00    -0.247 OA
ATOM      4  N   UNL d   1      26.989 -15.526  -2.851  0.00  0.00    -0.332 N 
ATOM      5  H   UNL d   1      26.009 -17.034  -1.110  0.00  0.00     0.164 HD
ATOM      6  H   UNL d   1      27.640 -16.123  -2.362  0.00  0.00     0.165 HD
ENDROOT
BRANCH   1   7
ATOM      7  C   UNL d   1      23.922 -16.515  -1.099  0.00  0.00     0.125 C 
BRANCH   7   8
ATOM      8  C   UNL d   1      23.661 -17.638  -0.106  0.00  0.00     0.028 C 
BRANCH   8   9
ATOM      9  C   UNL d   1      23.292 -18.967  -0.786  0.00  0.00     0.090 C 
BRANCH   9  10
ATOM     10  C   UNL d   1      21.843 -19.236  -0.604  0.00  0.00     0.172 A 
ATOM     11  O   UNL d   1      21.017 -19.019  -1.668  0.00  0.00    -0.196 OA
ATOM     12  N   UNL d   1      19.724 -19.319  -1.224  0.00  0.00    -0.111 NA
ATOM     13  C   UNL d   1      19.914 -19.684   0.052  0.00  0.00     0.159 A 
ATOM     14  N   UNL d   1      21.215 -19.651   0.471  0.00  0.00    -0.208 NA
BRANCH  13  15
ATOM     15  C   UNL d   1      18.805 -20.010   0.993  0.00  0.00     0.051 C 
ATOM     16  C   UNL d   1      18.010 -21.211   0.482  0.00  0.00     0.018 C 
ATOM     17  C   UNL d   1      19.309 -20.268   2.411  0.00  0.00     0.018 C 
ENDBRANCH  13  15
ENDBRANCH   9  10
ENDBRANCH   8   9
ENDBRANCH   7   8
ENDBRANCH   1   7
BRANCH   4  18
ATOM     18  CA  UNL d   1      27.516 -14.583  -3.866  0.00  0.00     0.143 C 
BRANCH  18  19
ATOM     19  C   UNL d   1      27.201 -15.075  -5.318  0.00  0.00     0.194 C 
BRANCH  19  20
ATOM     20  O   UNL d   1      26.090 -15.936  -5.502  0.00  0.00    -0.398 OA
ATOM     21  H   UNL d   1      25.289 -15.447  -5.228  0.00  0.00     0.209 HD
ENDBRANCH  19  20
ENDBRANCH  18  19
BRANCH  18  22
ATOM     22  C   UNL d   1      26.964 -13.155  -3.671  0.00  0.00    -0.033 A 
ATOM     23  C   UNL d   1      25.958 -12.639  -4.502  0.00  0.00     0.009 A 
ATOM     24  C   UNL d   1      25.570 -11.294  -4.400  0.00  0.00     0.001 A 
ATOM     25  C   UNL d   1      26.094 -10.471  -3.405  0.00  0.00     0.000 A 
ATOM     26  C   UNL d   1      27.027 -10.981  -2.519  0.00  0.00     0.001 A 
ATOM     27  C   UNL d   1      27.451 -12.301  -2.654  0.00  0.00     0.009 A 
ENDBRANCH  18  22
ENDBRANCH   4  18
TORSDOF 9
ENDMDL
MODEL 5
REMARK VINA RESULT:   -31.304      4.031      5.658
REMARK INTER + INTRA:         -35.088
REMARK INTER:                 -33.989
REMARK INTRA:                  -1.099
REMARK CONF_INDEPENDENT:        2.685
REMARK UNBOUND:                -1.099
REMARK  9 active torsions:
REMARK  status: ('A' for Active; 'I' for Inactive)
REMARK    1  A    between atoms: C_2  and  C_4 
REMARK    2  A    between atoms: C_7  and  C_8 
REMARK    3  A    between atoms: C_8  and  C_9 
REMARK    4  A    between atoms: C_9  and  C_10 
REMARK    5  A    between atoms: C_10  and  N_11 
REMARK       I    between atoms: N_11  and  C_12 
REMARK       I    between atoms: C_12  and  N_14 
REMARK    6  A    between atoms: N_14  and  CA_15 
REMARK    7  A    between atoms: CA_15  and  C_16 
REMARK    8  A    between atoms: CA_15  and  C_18 
REMARK    9  A    between atoms: C_16  and  O_17 
ROOT
ATOM      1  N   UNL d   1      26.585 -17.388   0.222  0.00  0.00    -0.343 N 
ATOM      2  C   UNL d   1      27.010 -16.085   0.237  0.00  0.00     0.316 C 
ATOM      3  O   UNL d   1      26.672 -15.278  -0.633  0.00  0.00    -0.247 OA
ATOM      4  N   UNL d   1      27.816 -15.743   1.290  0.00  0.00    -0.332 N 
ATOM      5  H   UNL d   1      26.964 -18.059   0.875  0.00  0.00     0.164 HD
ATOM      6  H   UNL d   1      28.136 -16.456   1.929  0.00  0.00     0.165 HD
ENDROOT
BRANCH   1   7
ATOM      7  C   UNL d   1      25.629 -17.823  -0.793  0.00  0.00     0.125 C 
BRANCH   7   8
ATOM      8  C   UNL d   1      24.301 -18.290  -0.215  0.00  0.00     0.028 C 
BRANCH   8   9
ATOM      9  C   UNL d   1      23.114 -17.419  -0.657  0.00  0.00     0.090 C 
BRANCH   9  10
ATOM     10  C   UNL d   1      21.853 -18.195  -0.535  0.00  0.00     0.172 A 
ATOM     11  O   UNL d   1      20.754 -17.731  -1.196  0.00  0.00    -0.196 OA
ATOM     12  N   UNL d   1      19.715 -18.619  -0.895  0.00  0.00    -0.111 NA
ATOM     13  C   UNL d   1      20.302 -19.517  -0.090  0.00  0.00     0.159 A 
ATOM     14  N   UNL d   1      21.628 -19.292   0.152  0.00  0.00    -0.208 NA
BRANCH  13  15
ATOM     15  C   UNL d   1      19.570 -20.628   0.583  0.00  0.00     0.051 C 
ATOM     16  C   UNL d   1      19.612 -20.451   2.100  0.00  0.00     0.018 C 
ATOM     17  C   UNL d   1      18.126 -20.743   0.099  0.00  0.00     0.018 C 
ENDBRANCH  13  15
ENDBRANCH   9  10
ENDBRANCH   8   9
ENDBRANCH   7   8
ENDBRANCH   1   7
BRANCH   4  18
ATOM     18  CA  UNL d   1      28.257 -14.345   1.509  0.00  0.00     0.143 C 
BRANCH  18  19
ATOM     19  C   UNL d   1      27.241 -13.324   0.896  0.00  0.00     0.194 C 
BRANCH  19  20
ATOM     20  O   UNL d   1      27.533 -12.781  -0.380  0.00  0.00    -0.398 OA
ATOM     21  H   UNL d   1      27.522 -13.517  -1.024  0.00  0.00     0.209 HD
ENDBRANCH  19  20
ENDBRANCH  18  19
BRANCH  18  22
ATOM     22  C   UNL d   1      28.465 -14.033   3.007  0.00  0.00    -0.033 A 
ATOM     23  C   UNL d   1      29.749 -13.918   3.560  0.00  0.00     0.009 A 
ATOM     24  C   UNL d   1      29.919 -13.776   4.946  0.00  0.00     0.001 A 
ATOM     25  C   UNL d   1      28.819 -13.637   5.791  0.00  0.00     0.000 A 
ATOM     26  C   UNL d   1      27.541 -13.662   5.259  0.00  0.00     0.001 A 
ATOM     27  C   UNL d   1      27.373 -13.857   3.890  0.00  0.00     0.009 A 
ENDBRANCH  18  22
ENDBRANCH   4  18
TORSDOF 9
ENDMDL
MODEL 6
REMARK VINA RESULT:   -30.952      3.103      4.548
REMARK INTER + INTRA:         -35.245
REMARK INTER:                 -33.636
REMARK INTRA:                  -1.608
REMARK CONF_INDEPENDENT:        2.685
REMARK UNBOUND:                -1.608
REMARK  9 active torsions:
REMARK  status: ('A' for Active; 'I' for Inactive)
REMARK    1  A    between atoms: C_2  and  C_4 
REMARK    2  A    between atoms: C_7  and  C_8 
REMARK    3  A    between atoms: C_8  and  C_9 
REMARK    4  A    between atoms: C_9  and  C_10 
REMARK    5  A    between atoms: C_10  and  N_11 
REMARK       I    between atoms: N_11  and  C_12 
REMARK       I    between atoms: C_12  and  N_14 
REMARK    6  A    between atoms: N_14  and  CA_15 
REMARK    7  A    between atoms: CA_15  and  C_16 
REMARK    8  A    between atoms: CA_15  and  C_18 
REMARK    9  A    between atoms: C_16  and  O_17 
ROOT
ATOM      1  N   UNL d   1      26.251 -18.186   0.532  0.00  0.00    -0.343 N 
ATOM      2  C   UNL d   1      26.810 -16.978   0.203  0.00  0.00     0.316 C 
ATOM      3  O   UNL d   1      26.128 -16.029  -0.192  0.00  0.00    -0.247 OA
ATOM      4  N   UNL d   1      28.168 -16.898   0.364  0.00  0.00    -0.332 N 
ATOM      5  H   UNL d   1      26.835 -18.982   0.743  0.00  0.00     0.164 HD
ATOM      6  H   UNL d   1      28.694 -17.724   0.608  0.00  0.00     0.165 HD
ENDROOT
BRANCH   1   7
ATOM      7  C   UNL d   1      24.798 -18.337   0.508  0.00  0.00     0.125 C 
BRANCH   7   8
ATOM      8  C   UNL d   1      24.199 -18.216  -0.886  0.00  0.00     0.028 C 
BRANCH   8   9
ATOM      9  C   UNL d   1      22.966 -17.298  -0.932  0.00  0.00     0.090 C 
BRANCH   9  10
ATOM     10  C   UNL d   1      21.738 -18.101  -0.708  0.00  0.00     0.172 A 
ATOM     11  O   UNL d   1      20.579 -17.666  -1.281  0.00  0.00    -0.196 OA
ATOM     12  N   UNL d   1      19.588 -18.575  -0.895  0.00  0.00    -0.111 NA
ATOM     13  C   UNL d   1      20.257 -19.456  -0.136  0.00  0.00     0.159 A 
ATOM     14  N   UNL d   1      21.592 -19.199  -0.001  0.00  0.00    -0.208 NA
BRANCH  13  15
ATOM     15  C   UNL d   1      19.606 -20.579   0.596  0.00  0.00     0.051 C 
ATOM     16  C   UNL d   1      19.633 -20.318   2.102  0.00  0.00     0.018 C 
ATOM     17  C   UNL d   1      18.176 -20.824   0.123  0.00  0.00     0.018 C 
ENDBRANCH  13  15
ENDBRANCH   9  10
ENDBRANCH   8   9
ENDBRANCH   7   8
ENDBRANCH   1   7
BRANCH   4  18
ATOM     18  CA  UNL d   1      28.900 -15.624   0.166  0.00  0.00     0.143 C 
BRANCH  18  19
ATOM     19  C   UNL d   1      28.924 -15.210  -1.344  0.00  0.00     0.194 C 
BRANCH  19  20
ATOM     20  O   UNL d   1      27.810 -15.561  -2.147  0.00  0.00    -0.398 OA
ATOM     21  H   UNL d   1      27.501 -16.442  -1.856  0.00  0.00     0.209 HD
ENDBRANCH  19  20
ENDBRANCH  18  19
BRANCH  18  22
ATOM     22  C   UNL d   1      28.302 -14.477   1.009  0.00  0.00    -0.033 A 
ATOM     23  C   UNL d   1      28.521 -14.394   2.392  0.00  0.00     0.009 A 
ATOM     24  C   UNL d   1      27.855 -13.427   3.162  0.00  0.00     0.001 A 
ATOM     25  C   UNL d   1      27.048 -12.463   2.560  0.00  0.00     0.000 A 
ATOM     26  C   UNL d   1      26.883 -12.473   1.185  0.00  0.00     0.001 A 
ATOM     27  C   UNL d   1      27.502 -13.465   0.428  0.00  0.00     0.009 A 
ENDBRANCH  18  22
ENDBRANCH   4  18
TORSDOF 9
ENDMDL
MODEL 7
REMARK VINA RESULT:   -30.567      1.820      2.892
REMARK INTER + INTRA:         -34.963
REMARK INTER:                 -33.251
REMARK INTRA:                  -1.711
REMARK CONF_INDEPENDENT:        2.685
REMARK UNBOUND:                -1.711
REMARK  9 active torsions:
REMARK  status: ('A' for Active; 'I' for Inactive)
REMARK    1  A    between atoms: C_2  and  C_4 
REMARK    2  A    between atoms: C_7  and  C_8 
REMARK    3  A    between atoms: C_8  and  C_9 
REMARK    4  A    between atoms: C_9  and  C_10 
REMARK    5  A    between atoms: C_10  and  N_11 
REMARK       I    between atoms: N_11  and  C_12 
REMARK       I    between atoms: C_12  and  N_14 
REMARK    6  A    between atoms: N_14  and  CA_15 
REMARK    7  A    between atoms: CA_15  and  C_16 
REMARK    8  A    between atoms: CA_15  and  C_18 
REMARK    9  A    between atoms: C_16  and  O_17 
ROOT
ATOM      1  N   UNL d   1      26.353 -17.020   0.308  0.00  0.00    -0.343 N 
ATOM      2  C   UNL d   1      26.949 -16.519  -0.822  0.00  0.00     0.316 C 
ATOM      3  O   UNL d   1      26.764 -17.021  -1.933  0.00  0.00    -0.247 OA
ATOM      4  N   UNL d   1      27.742 -15.420  -0.628  0.00  0.00    -0.332 N 
ATOM      5  H   UNL d   1      26.607 -16.669   1.220  0.00  0.00     0.164 HD
ATOM      6  H   UNL d   1      27.932 -15.097   0.310  0.00  0.00     0.165 HD
ENDROOT
BRANCH   1   7
ATOM      7  C   UNL d   1      25.397 -18.118   0.191  0.00  0.00     0.125 C 
BRANCH   7   8
ATOM      8  C   UNL d   1      23.948 -17.657   0.146  0.00  0.00     0.028 C 
BRANCH   8   9
ATOM      9  C   UNL d   1      23.243 -18.020  -1.171  0.00  0.00     0.090 C 
BRANCH   9  10
ATOM     10  C   UNL d   1      21.896 -18.573  -0.881  0.00  0.00     0.172 A 
ATOM     11  O   UNL d   1      20.812 -17.870  -1.317  0.00  0.00    -0.196 OA
ATOM     12  N   UNL d   1      19.687 -18.587  -0.895  0.00  0.00    -0.111 NA
ATOM     13  C   UNL d   1      20.217 -19.641  -0.256  0.00  0.00     0.159 A 
ATOM     14  N   UNL d   1      21.583 -19.670  -0.231  0.00  0.00    -0.208 NA
BRANCH  13  15
ATOM     15  C   UNL d   1      19.407 -20.663   0.466  0.00  0.00     0.051 C 
ATOM     16  C   UNL d   1      19.313 -20.315   1.952  0.00  0.00     0.018 C 
ATOM     17  C   UNL d   1      18.012 -20.823  -0.133  0.00  0.00     0.018 C 
ENDBRANCH  13  15
ENDBRANCH   9  10
ENDBRANCH   8   9
ENDBRANCH   7   8
ENDBRANCH   1   7
BRANCH   4  18
ATOM     18  CA  UNL d   1      28.355 -14.694  -1.765  0.00  0.00     0.143 C 
BRANCH  18  19
ATOM     19  C   UNL d   1      29.339 -15.613  -2.563  0.00  0.00     0.194 C 
BRANCH  19  20
ATOM     20  O   UNL d   1      29.715 -16.849  -1.979  0.00  0.00    -0.398 OA
ATOM     21  H   UNL d   1      28.896 -17.345  -1.782  0.00  0.00     0.209 HD
ENDBRANCH  19  20
ENDBRANCH  18  19
BRANCH  18  22
ATOM     22  C   UNL d   1      27.291 -14.118  -2.724  0.00  0.00    -0.033 A 
ATOM     23  C   UNL d   1      26.603 -12.932  -2.427  0.00  0.00     0.009 A 
ATOM     24  C   UNL d   1      25.542 -12.500  -3.239  0.00  0.00     0.001 A 
ATOM     25  C   UNL d   1      25.219 -13.177  -4.414  0.00  0.00     0.000 A 
ATOM     26  C   UNL d   1      25.940 -14.303  -4.773  0.00  0.00     0.001 A 
ATOM     27  C   UNL d   1      26.957 -14.761  -3.940  0.00  0.00     0.009 A 
ENDBRANCH  18  22
ENDBRANCH   4  18
TORSDOF 9
ENDMDL
MODEL 8
REMARK VINA RESULT:   -30.383      1.499      2.154
REMARK INTER + INTRA:         -34.434
REMARK INTER:                 -33.068
REMARK INTRA:                  -1.366
REMARK CONF_INDEPENDENT:        2.685
REMARK UNBOUND:                -1.366
REMARK  9 active torsions:
REMARK  status: ('A' for Active; 'I' for Inactive)
REMARK    1  A    between atoms: C_2  and  C_4 
REMARK    2  A    between atoms: C_7  and  C_8 
REMARK    3  A    between atoms: C_8  and  C_9 
REMARK    4  A    between atoms: C_9  and  C_10 
REMARK    5  A    between atoms: C_10  and  N_11 
REMARK       I    between atoms: N_11  and  C_12 
REMARK       I    between atoms: C_12  and  N_14 
REMARK    6  A    between atoms: N_14  and  CA_15 
REMARK    7  A    between atoms: CA_15  and  C_16 
REMARK    8  A    between atoms: CA_15  and  C_18 
REMARK    9  A    between atoms: C_16  and  O_17 
ROOT
ATOM      1  N   UNL d   1      23.951 -16.036  -1.280  0.00  0.00    -0.343 N 
ATOM      2  C   UNL d   1      25.317 -15.946  -1.206  0.00  0.00     0.316 C 
ATOM      3  O   UNL d   1      25.945 -16.352  -0.225  0.00  0.00    -0.247 OA
ATOM      4  N   UNL d   1      25.928 -15.393  -2.300  0.00  0.00    -0.332 N 
ATOM      5  H   UNL d   1      23.448 -15.595  -2.037  0.00  0.00     0.164 HD
ATOM      6  H   UNL d   1      25.368 -14.997  -3.041  0.00  0.00     0.165 HD
ENDROOT
BRANCH   1   7
ATOM      7  C   UNL d   1      23.215 -16.716  -0.217  0.00  0.00     0.125 C 
BRANCH   7   8
ATOM      8  C   UNL d   1      23.788 -18.080   0.140  0.00  0.00     0.028 C 
BRANCH   8   9
ATOM      9  C   UNL d   1      23.281 -19.203  -0.780  0.00  0.00     0.090 C 
BRANCH   9  10
ATOM     10  C   UNL d   1      21.819 -19.381  -0.592  0.00  0.00     0.172 A 
ATOM     11  O   UNL d   1      21.002 -19.102  -1.648  0.00  0.00    -0.196 OA
ATOM     12  N   UNL d   1      19.696 -19.324  -1.199  0.00  0.00    -0.111 NA
ATOM     13  C   UNL d   1      19.869 -19.713   0.073  0.00  0.00     0.159 A 
ATOM     14  N   UNL d   1      21.172 -19.767   0.484  0.00  0.00    -0.208 NA
BRANCH  13  15
ATOM     15  C   UNL d   1      18.747 -19.978   1.018  0.00  0.00     0.051 C 
ATOM     16  C   UNL d   1      18.002 -21.250   0.614  0.00  0.00     0.018 C 
ATOM     17  C   UNL d   1      19.223 -20.075   2.466  0.00  0.00     0.018 C 
ENDBRANCH  13  15
ENDBRANCH   9  10
ENDBRANCH   8   9
ENDBRANCH   7   8
ENDBRANCH   1   7
BRANCH   4  18
ATOM     18  CA  UNL d   1      27.404 -15.338  -2.420  0.00  0.00     0.143 C 
BRANCH  18  19
ATOM     19  C   UNL d   1      28.070 -16.644  -1.872  0.00  0.00     0.194 C 
BRANCH  19  20
ATOM     20  O   UNL d   1      28.530 -16.643  -0.531  0.00  0.00    -0.398 OA
ATOM     21  H   UNL d   1      27.794 -16.948   0.035  0.00  0.00     0.209 HD
ENDBRANCH  19  20
ENDBRANCH  18  19
BRANCH  18  22
ATOM     22  C   UNL d   1      27.857 -15.098  -3.877  0.00  0.00    -0.033 A 
ATOM     23  C   UNL d   1      28.840 -15.897  -4.479  0.00  0.00     0.009 A 
ATOM     24  C   UNL d   1      29.339 -15.576  -5.751  0.00  0.00     0.001 A 
ATOM     25  C   UNL d   1      28.797 -14.524  -6.488  0.00  0.00     0.000 A 
ATOM     26  C   UNL d   1      27.767 -13.772  -5.949  0.00  0.00     0.001 A 
ATOM     27  C   UNL d   1      27.309 -14.058  -4.665  0.00  0.00     0.009 A 
ENDBRANCH  18  22
ENDBRANCH   4  18
TORSDOF 9
ENDMDL
