MODEL 1
REMARK VINA RESULT:   -10.221      0.000      0.000
REMARK INTER + INTRA:         -12.423
REMARK INTER:                 -12.309
REMARK INTRA:                  -0.114
REMARK CONF_INDEPENDENT:        2.088
REMARK UNBOUND:                -0.114
REMARK  7 active torsions:
REMARK  status: ('A' for Active; 'I' for Inactive)
REMARK    1  A    between atoms: N_1  and  C_2 
REMARK    2  A    between atoms: C_4  and  C_5 
REMARK    3  A    between atoms: C_5  and  N_6 
REMARK       I    between atoms: N_9  and  C_10 
REMARK    4  A    between atoms: C_10  and  C_12 
REMARK    5  A    between atoms: C_20  and  N_21 
REMARK    6  A    between atoms: N_21  and  C_22 
REMARK    7  A    between atoms: C_26  and  C_27 
ROOT
ATOM      1  C   UNL d   1      31.078 -14.825   3.278  0.00  0.00     0.737 A 
ATOM      2  N   UNL d   1      30.238 -14.444   2.326  0.00  0.00    -0.045 NA
ATOM      3  C   UNL d   1      29.038 -14.130   2.774  0.00  0.00     0.190 A 
ATOM      4  N   UNL d   1      28.676 -14.173   4.057  0.00  0.00    -0.044 NA
ATOM      5  C   UNL d   1      29.556 -14.616   4.918  0.00  0.00     0.744 A 
ATOM      6  N   UNL d   1      30.780 -14.943   4.559  0.00  0.00     0.130 NA
ENDROOT
BRANCH   3   7
ATOM      7  C   UNL d   1      27.931 -13.743   1.813  0.00  0.00     0.316 C 
BRANCH   7   8
ATOM      8  N   UNL d   1      27.836 -14.664   0.559  0.00  0.00    -0.061 N 
ATOM      9  C   UNL d   1      27.030 -15.956   0.875  0.00  0.00     0.255 C 
ATOM     10  C   UNL d   1      26.745 -16.770  -0.391  0.00  0.00     0.154 C 
ATOM     11  N   UNL d   1      26.126 -15.925  -1.409  0.00  0.00    -0.343 N 
ATOM     12  C   UNL d   1      24.797 -16.019  -1.861  0.00  0.00     0.277 C 
ATOM     13  C   UNL d   1      26.993 -14.822  -1.845  0.00  0.00     0.154 C 
ATOM     14  O   UNL d   1      24.382 -15.200  -2.695  0.00  0.00    -0.265 OA
ATOM     15  C   UNL d   1      27.306 -13.876  -0.677  0.00  0.00     0.255 C 
ATOM     16  H   UNL d   1      28.799 -14.950   0.343  0.00  0.00     0.280 HD
BRANCH  12  17
ATOM     17  C   UNL d   1      23.917 -17.017  -1.270  0.00  0.00     0.142 A 
ATOM     18  C   UNL d   1      22.585 -16.958  -0.890  0.00  0.00     0.045 A 
ATOM     19  C   UNL d   1      22.227 -18.236  -0.403  0.00  0.00     0.027 A 
ATOM     20  C   UNL d   1      23.349 -19.018  -0.527  0.00  0.00     0.143 A 
ATOM     21  O   UNL d   1      24.373 -18.297  -1.066  0.00  0.00    -0.317 OA
ENDBRANCH  12  17
ENDBRANCH   7   8
ENDBRANCH   3   7
BRANCH   1  22
ATOM     22  N   UNL d   1      32.350 -15.143   2.925  0.00  0.00    -0.230 N 
ATOM     23  H   UNL d   1      32.549 -15.414   1.980  0.00  0.00     0.174 HD
ATOM     24  H   UNL d   1      33.072 -14.959   3.605  0.00  0.00     0.174 HD
ENDBRANCH   1  22
BRANCH   5  25
ATOM     25  N   UNL d   1      29.096 -14.825   6.208  0.00  0.00    -0.188 N 
ATOM     26  H   UNL d   1      28.509 -15.637   6.335  0.00  0.00     0.184 HD
BRANCH  25  27
ATOM     27  C   UNL d   1      28.912 -13.812   7.146  0.00  0.00     0.050 A 
ATOM     28  C   UNL d   1      28.742 -12.499   6.716  0.00  0.00     0.030 A 
ATOM     29  C   UNL d   1      28.533 -11.484   7.644  0.00  0.00     0.003 A 
ATOM     30  C   UNL d   1      28.465 -11.787   9.003  0.00  0.00     0.016 A 
ATOM     31  C   UNL d   1      28.670 -13.098   9.451  0.00  0.00     0.050 A 
ATOM     32  C   UNL d   1      28.905 -14.100   8.512  0.00  0.00     0.046 A 
BRANCH  31  33
ATOM     33  C   UNL d   1      28.672 -13.426  10.918  0.00  0.00     0.417 C 
ATOM     34  F   UNL d   1      29.102 -14.694  11.153  0.00  0.00    -0.166 F 
ATOM     35  F   UNL d   1      29.481 -12.604  11.639  0.00  0.00    -0.166 F 
ATOM     36  F   UNL d   1      27.439 -13.337  11.493  0.00  0.00    -0.166 F 
ENDBRANCH  31  33
ENDBRANCH  25  27
ENDBRANCH   5  25
TORSDOF 7
ENDMDL
MODEL 2
REMARK VINA RESULT:    -9.838      3.881      5.158
REMARK INTER + INTRA:         -12.798
REMARK INTER:                 -11.926
REMARK INTRA:                  -0.872
REMARK CONF_INDEPENDENT:        2.088
REMARK UNBOUND:                -0.872
REMARK  7 active torsions:
REMARK  status: ('A' for Active; 'I' for Inactive)
REMARK    1  A    between atoms: N_1  and  C_2 
REMARK    2  A    between atoms: C_4  and  C_5 
REMARK    3  A    between atoms: C_5  and  N_6 
REMARK       I    between atoms: N_9  and  C_10 
REMARK    4  A    between atoms: C_10  and  C_12 
REMARK    5  A    between atoms: C_20  and  N_21 
REMARK    6  A    between atoms: N_21  and  C_22 
REMARK    7  A    between atoms: C_26  and  C_27 
ROOT
ATOM      1  C   UNL d   1      33.453 -16.640   1.974  0.00  0.00     0.737 A 
ATOM      2  N   UNL d   1      32.709 -17.131   0.993  0.00  0.00    -0.045 NA
ATOM      3  C   UNL d   1      31.525 -16.560   0.889  0.00  0.00     0.190 A 
ATOM      4  N   UNL d   1      31.091 -15.574   1.675  0.00  0.00    -0.044 NA
ATOM      5  C   UNL d   1      31.872 -15.193   2.652  0.00  0.00     0.744 A 
ATOM      6  N   UNL d   1      33.074 -15.703   2.824  0.00  0.00     0.130 NA
ENDROOT
BRANCH   3   7
ATOM      7  C   UNL d   1      30.518 -17.051  -0.133  0.00  0.00     0.316 C 
BRANCH   7   8
ATOM      8  N   UNL d   1      29.055 -16.596   0.157  0.00  0.00    -0.061 N 
ATOM      9  C   UNL d   1      28.692 -15.328  -0.666  0.00  0.00     0.255 C 
ATOM     10  C   UNL d   1      27.201 -14.990  -0.558  0.00  0.00     0.154 C 
ATOM     11  N   UNL d   1      26.391 -16.158  -0.892  0.00  0.00    -0.343 N 
ATOM     12  C   UNL d   1      25.587 -16.304  -2.037  0.00  0.00     0.277 C 
ATOM     13  C   UNL d   1      26.600 -17.285   0.029  0.00  0.00     0.154 C 
ATOM     14  O   UNL d   1      24.990 -17.375  -2.226  0.00  0.00    -0.265 OA
ATOM     15  C   UNL d   1      28.054 -17.777  -0.029  0.00  0.00     0.255 C 
ATOM     16  H   UNL d   1      29.031 -16.335   1.149  0.00  0.00     0.280 HD
BRANCH  12  17
ATOM     17  C   UNL d   1      25.548 -15.227  -3.016  0.00  0.00     0.142 A 
ATOM     18  C   UNL d   1      26.479 -14.800  -3.949  0.00  0.00     0.045 A 
ATOM     19  C   UNL d   1      25.900 -13.728  -4.666  0.00  0.00     0.027 A 
ATOM     20  C   UNL d   1      24.637 -13.564  -4.150  0.00  0.00     0.143 A 
ATOM     21  O   UNL d   1      24.407 -14.476  -3.163  0.00  0.00    -0.317 OA
ENDBRANCH  12  17
ENDBRANCH   7   8
ENDBRANCH   3   7
BRANCH   1  22
ATOM     22  N   UNL d   1      34.702 -17.140   2.148  0.00  0.00    -0.230 N 
ATOM     23  H   UNL d   1      35.179 -17.563   1.374  0.00  0.00     0.174 HD
ATOM     24  H   UNL d   1      35.156 -16.939   3.026  0.00  0.00     0.174 HD
ENDBRANCH   1  22
BRANCH   5  25
ATOM     25  N   UNL d   1      31.324 -14.302   3.560  0.00  0.00    -0.188 N 
ATOM     26  H   UNL d   1      31.905 -14.077   4.355  0.00  0.00     0.184 HD
BRANCH  25  27
ATOM     27  C   UNL d   1      29.956 -14.138   3.765  0.00  0.00     0.050 A 
ATOM     28  C   UNL d   1      29.365 -14.657   4.914  0.00  0.00     0.030 A 
ATOM     29  C   UNL d   1      28.005 -14.477   5.139  0.00  0.00     0.003 A 
ATOM     30  C   UNL d   1      27.238 -13.751   4.228  0.00  0.00     0.016 A 
ATOM     31  C   UNL d   1      27.813 -13.254   3.052  0.00  0.00     0.050 A 
ATOM     32  C   UNL d   1      29.172 -13.466   2.826  0.00  0.00     0.046 A 
BRANCH  31  33
ATOM     33  C   UNL d   1      26.983 -12.534   2.026  0.00  0.00     0.417 C 
ATOM     34  F   UNL d   1      25.904 -13.268   1.642  0.00  0.00    -0.166 F 
ATOM     35  F   UNL d   1      26.500 -11.347   2.480  0.00  0.00    -0.166 F 
ATOM     36  F   UNL d   1      27.667 -12.249   0.882  0.00  0.00    -0.166 F 
ENDBRANCH  31  33
ENDBRANCH  25  27
ENDBRANCH   5  25
TORSDOF 7
ENDMDL
MODEL 3
REMARK VINA RESULT:    -9.708      2.256      3.826
REMARK INTER + INTRA:         -12.015
REMARK INTER:                 -11.796
REMARK INTRA:                  -0.219
REMARK CONF_INDEPENDENT:        2.088
REMARK UNBOUND:                -0.219
REMARK  7 active torsions:
REMARK  status: ('A' for Active; 'I' for Inactive)
REMARK    1  A    between atoms: N_1  and  C_2 
REMARK    2  A    between atoms: C_4  and  C_5 
REMARK    3  A    between atoms: C_5  and  N_6 
REMARK       I    between atoms: N_9  and  C_10 
REMARK    4  A    between atoms: C_10  and  C_12 
REMARK    5  A    between atoms: C_20  and  N_21 
REMARK    6  A    between atoms: N_21  and  C_22 
REMARK    7  A    between atoms: C_26  and  C_27 
ROOT
ATOM      1  C   UNL d   1      33.344 -16.877   2.047  0.00  0.00     0.737 A 
ATOM      2  N   UNL d   1      32.562 -17.338   1.081  0.00  0.00    -0.045 NA
ATOM      3  C   UNL d   1      31.474 -16.617   0.891  0.00  0.00     0.190 A 
ATOM      4  N   UNL d   1      31.166 -15.520   1.583  0.00  0.00    -0.044 NA
ATOM      5  C   UNL d   1      31.969 -15.174   2.555  0.00  0.00     0.744 A 
ATOM      6  N   UNL d   1      33.082 -15.831   2.808  0.00  0.00     0.130 NA
ENDROOT
BRANCH   3   7
ATOM      7  C   UNL d   1      30.432 -17.043  -0.125  0.00  0.00     0.316 C 
BRANCH   7   8
ATOM      8  N   UNL d   1      28.981 -16.608   0.242  0.00  0.00    -0.061 N 
ATOM      9  C   UNL d   1      28.603 -15.274  -0.463  0.00  0.00     0.255 C 
ATOM     10  C   UNL d   1      27.118 -14.941  -0.286  0.00  0.00     0.154 C 
ATOM     11  N   UNL d   1      26.292 -16.074  -0.693  0.00  0.00    -0.343 N 
ATOM     12  C   UNL d   1      25.456 -16.122  -1.823  0.00  0.00     0.277 C 
ATOM     13  C   UNL d   1      26.519 -17.273   0.126  0.00  0.00     0.154 C 
ATOM     14  O   UNL d   1      24.847 -17.171  -2.083  0.00  0.00    -0.265 OA
ATOM     15  C   UNL d   1      27.967 -17.765  -0.012  0.00  0.00     0.255 C 
ATOM     16  H   UNL d   1      28.985 -16.429   1.253  0.00  0.00     0.280 HD
BRANCH  12  17
ATOM     17  C   UNL d   1      25.397 -14.968  -2.709  0.00  0.00     0.142 A 
ATOM     18  C   UNL d   1      25.549 -13.612  -2.463  0.00  0.00     0.045 A 
ATOM     19  C   UNL d   1      25.425 -12.941  -3.702  0.00  0.00     0.027 A 
ATOM     20  C   UNL d   1      25.224 -13.919  -4.645  0.00  0.00     0.143 A 
ATOM     21  O   UNL d   1      25.220 -15.150  -4.060  0.00  0.00    -0.317 OA
ENDBRANCH  12  17
ENDBRANCH   7   8
ENDBRANCH   3   7
BRANCH   1  22
ATOM     22  N   UNL d   1      34.505 -17.532   2.303  0.00  0.00    -0.230 N 
ATOM     23  H   UNL d   1      34.685 -18.413   1.860  0.00  0.00     0.174 HD
ATOM     24  H   UNL d   1      35.204 -17.032   2.830  0.00  0.00     0.174 HD
ENDBRANCH   1  22
BRANCH   5  25
ATOM     25  N   UNL d   1      31.532 -14.144   3.372  0.00  0.00    -0.188 N 
ATOM     26  H   UNL d   1      32.258 -13.619   3.838  0.00  0.00     0.184 HD
BRANCH  25  27
ATOM     27  C   UNL d   1      30.290 -14.120   4.003  0.00  0.00     0.050 A 
ATOM     28  C   UNL d   1      29.146 -14.449   3.282  0.00  0.00     0.030 A 
ATOM     29  C   UNL d   1      27.905 -14.453   3.911  0.00  0.00     0.003 A 
ATOM     30  C   UNL d   1      27.812 -14.155   5.270  0.00  0.00     0.016 A 
ATOM     31  C   UNL d   1      28.950 -13.787   5.997  0.00  0.00     0.050 A 
ATOM     32  C   UNL d   1      30.183 -13.762   5.348  0.00  0.00     0.046 A 
BRANCH  31  33
ATOM     33  C   UNL d   1      28.853 -13.392   7.444  0.00  0.00     0.417 C 
ATOM     34  F   UNL d   1      29.951 -12.705   7.857  0.00  0.00    -0.166 F 
ATOM     35  F   UNL d   1      27.781 -12.596   7.701  0.00  0.00    -0.166 F 
ATOM     36  F   UNL d   1      28.740 -14.457   8.288  0.00  0.00    -0.166 F 
ENDBRANCH  31  33
ENDBRANCH  25  27
ENDBRANCH   5  25
TORSDOF 7
ENDMDL
MODEL 4
REMARK VINA RESULT:    -9.391      1.699      2.224
REMARK INTER + INTRA:         -11.602
REMARK INTER:                 -11.479
REMARK INTRA:                  -0.123
REMARK CONF_INDEPENDENT:        2.088
REMARK UNBOUND:                -0.123
REMARK  7 active torsions:
REMARK  status: ('A' for Active; 'I' for Inactive)
REMARK    1  A    between atoms: N_1  and  C_2 
REMARK    2  A    between atoms: C_4  and  C_5 
REMARK    3  A    between atoms: C_5  and  N_6 
REMARK       I    between atoms: N_9  and  C_10 
REMARK    4  A    between atoms: C_10  and  C_12 
REMARK    5  A    between atoms: C_20  and  N_21 
REMARK    6  A    between atoms: N_21  and  C_22 
REMARK    7  A    between atoms: C_26  and  C_27 
ROOT
ATOM      1  C   UNL d   1      31.043 -14.708   3.436  0.00  0.00     0.737 A 
ATOM      2  N   UNL d   1      30.160 -14.403   2.495  0.00  0.00    -0.045 NA
ATOM      3  C   UNL d   1      28.947 -14.176   2.961  0.00  0.00     0.190 A 
ATOM      4  N   UNL d   1      28.611 -14.231   4.251  0.00  0.00    -0.044 NA
ATOM      5  C   UNL d   1      29.537 -14.596   5.100  0.00  0.00     0.744 A 
ATOM      6  N   UNL d   1      30.776 -14.833   4.723  0.00  0.00     0.130 NA
ENDROOT
BRANCH   3   7
ATOM      7  C   UNL d   1      27.798 -13.886   2.016  0.00  0.00     0.316 C 
BRANCH   7   8
ATOM      8  N   UNL d   1      27.810 -14.759   0.725  0.00  0.00    -0.061 N 
ATOM      9  C   UNL d   1      27.031 -16.087   0.942  0.00  0.00     0.255 C 
ATOM     10  C   UNL d   1      26.850 -16.859  -0.369  0.00  0.00     0.154 C 
ATOM     11  N   UNL d   1      26.263 -15.995  -1.390  0.00  0.00    -0.343 N 
ATOM     12  C   UNL d   1      24.968 -16.113  -1.925  0.00  0.00     0.277 C 
ATOM     13  C   UNL d   1      27.117 -14.848  -1.731  0.00  0.00     0.154 C 
ATOM     14  O   UNL d   1      24.575 -15.276  -2.751  0.00  0.00    -0.265 OA
ATOM     15  C   UNL d   1      27.326 -13.939  -0.511  0.00  0.00     0.255 C 
ATOM     16  H   UNL d   1      28.792 -15.004   0.557  0.00  0.00     0.280 HD
BRANCH  12  17
ATOM     17  C   UNL d   1      24.089 -17.162  -1.427  0.00  0.00     0.142 A 
ATOM     18  C   UNL d   1      23.441 -17.318  -0.212  0.00  0.00     0.045 A 
ATOM     19  C   UNL d   1      22.687 -18.512  -0.284  0.00  0.00     0.027 A 
ATOM     20  C   UNL d   1      22.895 -19.017  -1.544  0.00  0.00     0.143 A 
ATOM     21  O   UNL d   1      23.728 -18.201  -2.251  0.00  0.00    -0.317 OA
ENDBRANCH  12  17
ENDBRANCH   7   8
ENDBRANCH   3   7
BRANCH   1  22
ATOM     22  N   UNL d   1      32.328 -14.932   3.064  0.00  0.00    -0.230 N 
ATOM     23  H   UNL d   1      32.665 -14.562   2.195  0.00  0.00     0.174 HD
ATOM     24  H   UNL d   1      32.935 -15.353   3.751  0.00  0.00     0.174 HD
ENDBRANCH   1  22
BRANCH   5  25
ATOM     25  N   UNL d   1      29.116 -14.824   6.401  0.00  0.00    -0.188 N 
ATOM     26  H   UNL d   1      28.453 -15.577   6.518  0.00  0.00     0.184 HD
BRANCH  25  27
ATOM     27  C   UNL d   1      29.082 -13.847   7.394  0.00  0.00     0.050 A 
ATOM     28  C   UNL d   1      28.905 -14.224   8.722  0.00  0.00     0.030 A 
ATOM     29  C   UNL d   1      28.894 -13.258   9.723  0.00  0.00     0.003 A 
ATOM     30  C   UNL d   1      29.089 -11.916   9.398  0.00  0.00     0.016 A 
ATOM     31  C   UNL d   1      29.231 -11.521   8.062  0.00  0.00     0.050 A 
ATOM     32  C   UNL d   1      29.214 -12.497   7.067  0.00  0.00     0.046 A 
BRANCH  31  33
ATOM     33  C   UNL d   1      29.367 -10.071   7.692  0.00  0.00     0.417 C 
ATOM     34  F   UNL d   1      28.537  -9.728   6.671  0.00  0.00    -0.166 F 
ATOM     35  F   UNL d   1      29.076  -9.235   8.724  0.00  0.00    -0.166 F 
ATOM     36  F   UNL d   1      30.623  -9.735   7.280  0.00  0.00    -0.166 F 
ENDBRANCH  31  33
ENDBRANCH  25  27
ENDBRANCH   5  25
TORSDOF 7
ENDMDL
MODEL 5
REMARK VINA RESULT:    -9.263      5.734      8.395
REMARK INTER + INTRA:         -11.308
REMARK INTER:                 -11.351
REMARK INTRA:                   0.043
REMARK CONF_INDEPENDENT:        2.088
REMARK UNBOUND:                 0.043
REMARK  7 active torsions:
REMARK  status: ('A' for Active; 'I' for Inactive)
REMARK    1  A    between atoms: N_1  and  C_2 
REMARK    2  A    between atoms: C_4  and  C_5 
REMARK    3  A    between atoms: C_5  and  N_6 
REMARK       I    between atoms: N_9  and  C_10 
REMARK    4  A    between atoms: C_10  and  C_12 
REMARK    5  A    between atoms: C_20  and  N_21 
REMARK    6  A    between atoms: N_21  and  C_22 
REMARK    7  A    between atoms: C_26  and  C_27 
ROOT
ATOM      1  C   UNL d   1      31.298 -16.395   0.541  0.00  0.00     0.737 A 
ATOM      2  N   UNL d   1      32.243 -17.290   0.793  0.00  0.00    -0.045 NA
ATOM      3  C   UNL d   1      32.781 -17.168   1.991  0.00  0.00     0.190 A 
ATOM      4  N   UNL d   1      32.424 -16.249   2.889  0.00  0.00    -0.044 NA
ATOM      5  C   UNL d   1      31.522 -15.373   2.530  0.00  0.00     0.744 A 
ATOM      6  N   UNL d   1      30.926 -15.425   1.357  0.00  0.00     0.130 NA
ENDROOT
BRANCH   3   7
ATOM      7  C   UNL d   1      33.928 -18.063   2.417  0.00  0.00     0.316 C 
BRANCH   7   8
ATOM      8  N   UNL d   1      33.497 -19.523   2.751  0.00  0.00    -0.061 N 
ATOM      9  C   UNL d   1      34.560 -20.230   3.638  0.00  0.00     0.255 C 
ATOM     10  C   UNL d   1      34.060 -21.585   4.151  0.00  0.00     0.154 C 
ATOM     11  N   UNL d   1      32.761 -21.433   4.801  0.00  0.00    -0.343 N 
ATOM     12  C   UNL d   1      32.505 -21.576   6.177  0.00  0.00     0.277 C 
ATOM     13  C   UNL d   1      31.714 -20.956   3.886  0.00  0.00     0.154 C 
ATOM     14  O   UNL d   1      31.360 -21.366   6.605  0.00  0.00    -0.265 OA
ATOM     15  C   UNL d   1      32.055 -19.560   3.344  0.00  0.00     0.255 C 
ATOM     16  H   UNL d   1      33.466 -20.022   1.854  0.00  0.00     0.280 HD
BRANCH  12  17
ATOM     17  C   UNL d   1      33.611 -21.877   7.075  0.00  0.00     0.142 A 
ATOM     18  C   UNL d   1      34.218 -23.076   7.414  0.00  0.00     0.045 A 
ATOM     19  C   UNL d   1      35.271 -22.779   8.310  0.00  0.00     0.027 A 
ATOM     20  C   UNL d   1      35.268 -21.413   8.459  0.00  0.00     0.143 A 
ATOM     21  O   UNL d   1      34.279 -20.855   7.705  0.00  0.00    -0.317 OA
ENDBRANCH  12  17
ENDBRANCH   7   8
ENDBRANCH   3   7
BRANCH   1  22
ATOM     22  N   UNL d   1      30.660 -16.452  -0.656  0.00  0.00    -0.230 N 
ATOM     23  H   UNL d   1      29.685 -16.681  -0.687  0.00  0.00     0.174 HD
ATOM     24  H   UNL d   1      31.171 -16.123  -1.461  0.00  0.00     0.174 HD
ENDBRANCH   1  22
BRANCH   5  25
ATOM     25  N   UNL d   1      31.305 -14.324   3.409  0.00  0.00    -0.188 N 
ATOM     26  H   UNL d   1      32.131 -13.959   3.862  0.00  0.00     0.184 HD
BRANCH  25  27
ATOM     27  C   UNL d   1      30.113 -14.114   4.098  0.00  0.00     0.050 A 
ATOM     28  C   UNL d   1      28.899 -14.257   3.431  0.00  0.00     0.030 A 
ATOM     29  C   UNL d   1      27.703 -14.074   4.117  0.00  0.00     0.003 A 
ATOM     30  C   UNL d   1      27.721 -13.776   5.480  0.00  0.00     0.016 A 
ATOM     31  C   UNL d   1      28.935 -13.594   6.153  0.00  0.00     0.050 A 
ATOM     32  C   UNL d   1      30.126 -13.755   5.447  0.00  0.00     0.046 A 
BRANCH  31  33
ATOM     33  C   UNL d   1      28.967 -13.200   7.603  0.00  0.00     0.417 C 
ATOM     34  F   UNL d   1      28.879 -14.281   8.424  0.00  0.00    -0.166 F 
ATOM     35  F   UNL d   1      30.109 -12.547   7.946  0.00  0.00    -0.166 F 
ATOM     36  F   UNL d   1      27.942 -12.376   7.961  0.00  0.00    -0.166 F 
ENDBRANCH  31  33
ENDBRANCH  25  27
ENDBRANCH   5  25
TORSDOF 7
ENDMDL
MODEL 6
REMARK VINA RESULT:    -9.059      5.342      9.406
REMARK INTER + INTRA:         -11.541
REMARK INTER:                 -11.148
REMARK INTRA:                  -0.393
REMARK CONF_INDEPENDENT:        2.088
REMARK UNBOUND:                -0.393
REMARK  7 active torsions:
REMARK  status: ('A' for Active; 'I' for Inactive)
REMARK    1  A    between atoms: N_1  and  C_2 
REMARK    2  A    between atoms: C_4  and  C_5 
REMARK    3  A    between atoms: C_5  and  N_6 
REMARK       I    between atoms: N_9  and  C_10 
REMARK    4  A    between atoms: C_10  and  C_12 
REMARK    5  A    between atoms: C_20  and  N_21 
REMARK    6  A    between atoms: N_21  and  C_22 
REMARK    7  A    between atoms: C_26  and  C_27 
ROOT
ATOM      1  C   UNL d   1      31.370 -15.498  -1.066  0.00  0.00     0.737 A 
ATOM      2  N   UNL d   1      31.577 -14.742   0.003  0.00  0.00    -0.045 NA
ATOM      3  C   UNL d   1      30.763 -15.009   1.005  0.00  0.00     0.190 A 
ATOM      4  N   UNL d   1      29.818 -15.950   0.980  0.00  0.00    -0.044 NA
ATOM      5  C   UNL d   1      29.650 -16.607  -0.138  0.00  0.00     0.744 A 
ATOM      6  N   UNL d   1      30.423 -16.411  -1.186  0.00  0.00     0.130 NA
ENDROOT
BRANCH   3   7
ATOM      7  C   UNL d   1      30.812 -14.189   2.280  0.00  0.00     0.316 C 
BRANCH   7   8
ATOM      8  N   UNL d   1      29.614 -14.450   3.242  0.00  0.00    -0.061 N 
ATOM      9  C   UNL d   1      30.112 -14.774   4.678  0.00  0.00     0.255 C 
ATOM     10  C   UNL d   1      28.954 -14.824   5.682  0.00  0.00     0.154 C 
ATOM     11  N   UNL d   1      28.158 -13.603   5.598  0.00  0.00    -0.343 N 
ATOM     12  C   UNL d   1      28.081 -12.600   6.582  0.00  0.00     0.277 C 
ATOM     13  C   UNL d   1      27.524 -13.419   4.285  0.00  0.00     0.154 C 
ATOM     14  O   UNL d   1      27.405 -11.584   6.360  0.00  0.00    -0.265 OA
ATOM     15  C   UNL d   1      28.582 -13.282   3.180  0.00  0.00     0.255 C 
ATOM     16  H   UNL d   1      29.141 -15.288   2.885  0.00  0.00     0.280 HD
BRANCH  12  17
ATOM     17  C   UNL d   1      28.868 -12.740   7.799  0.00  0.00     0.142 A 
ATOM     18  C   UNL d   1      30.217 -12.991   7.996  0.00  0.00     0.045 A 
ATOM     19  C   UNL d   1      30.448 -12.990   9.391  0.00  0.00     0.027 A 
ATOM     20  C   UNL d   1      29.235 -12.719   9.977  0.00  0.00     0.143 A 
ATOM     21  O   UNL d   1      28.275 -12.550   9.024  0.00  0.00    -0.317 OA
ENDBRANCH  12  17
ENDBRANCH   7   8
ENDBRANCH   3   7
BRANCH   1  22
ATOM     22  N   UNL d   1      32.175 -15.322  -2.145  0.00  0.00    -0.230 N 
ATOM     23  H   UNL d   1      32.004 -14.558  -2.771  0.00  0.00     0.174 HD
ATOM     24  H   UNL d   1      33.003 -15.896  -2.195  0.00  0.00     0.174 HD
ENDBRANCH   1  22
BRANCH   5  25
ATOM     25  N   UNL d   1      28.546 -17.443  -0.195  0.00  0.00    -0.188 N 
ATOM     26  H   UNL d   1      28.748 -18.432  -0.189  0.00  0.00     0.184 HD
BRANCH  25  27
ATOM     27  C   UNL d   1      27.331 -17.093  -0.779  0.00  0.00     0.050 A 
ATOM     28  C   UNL d   1      27.303 -16.140  -1.794  0.00  0.00     0.030 A 
ATOM     29  C   UNL d   1      26.098 -15.803  -2.399  0.00  0.00     0.003 A 
ATOM     30  C   UNL d   1      24.920 -16.440  -2.008  0.00  0.00     0.016 A 
ATOM     31  C   UNL d   1      24.929 -17.374  -0.965  0.00  0.00     0.050 A 
ATOM     32  C   UNL d   1      26.141 -17.682  -0.349  0.00  0.00     0.046 A 
BRANCH  31  33
ATOM     33  C   UNL d   1      23.656 -18.013  -0.484  0.00  0.00     0.417 C 
ATOM     34  F   UNL d   1      23.804 -18.575   0.745  0.00  0.00    -0.166 F 
ATOM     35  F   UNL d   1      22.628 -17.128  -0.384  0.00  0.00    -0.166 F 
ATOM     36  F   UNL d   1      23.213 -19.011  -1.300  0.00  0.00    -0.166 F 
ENDBRANCH  31  33
ENDBRANCH  25  27
ENDBRANCH   5  25
TORSDOF 7
ENDMDL
MODEL 7
REMARK VINA RESULT:    -8.914      5.520      9.682
REMARK INTER + INTRA:         -11.504
REMARK INTER:                 -11.003
REMARK INTRA:                  -0.501
REMARK CONF_INDEPENDENT:        2.088
REMARK UNBOUND:                -0.501
REMARK  7 active torsions:
REMARK  status: ('A' for Active; 'I' for Inactive)
REMARK    1  A    between atoms: N_1  and  C_2 
REMARK    2  A    between atoms: C_4  and  C_5 
REMARK    3  A    between atoms: C_5  and  N_6 
REMARK       I    between atoms: N_9  and  C_10 
REMARK    4  A    between atoms: C_10  and  C_12 
REMARK    5  A    between atoms: C_20  and  N_21 
REMARK    6  A    between atoms: N_21  and  C_22 
REMARK    7  A    between atoms: C_26  and  C_27 
ROOT
ATOM      1  C   UNL d   1      30.348 -16.109  -0.998  0.00  0.00     0.737 A 
ATOM      2  N   UNL d   1      30.493 -15.120  -0.127  0.00  0.00    -0.045 NA
ATOM      3  C   UNL d   1      29.600 -15.133   0.843  0.00  0.00     0.190 A 
ATOM      4  N   UNL d   1      28.636 -16.046   0.968  0.00  0.00    -0.044 NA
ATOM      5  C   UNL d   1      28.536 -16.951   0.030  0.00  0.00     0.744 A 
ATOM      6  N   UNL d   1      29.390 -17.017  -0.970  0.00  0.00     0.130 NA
ENDROOT
BRANCH   3   7
ATOM      7  C   UNL d   1      29.574 -14.032   1.884  0.00  0.00     0.316 C 
BRANCH   7   8
ATOM      8  N   UNL d   1      29.008 -14.484   3.264  0.00  0.00    -0.061 N 
ATOM      9  C   UNL d   1      30.141 -14.589   4.325  0.00  0.00     0.255 C 
ATOM     10  C   UNL d   1      29.580 -14.825   5.731  0.00  0.00     0.154 C 
ATOM     11  N   UNL d   1      28.569 -13.820   6.049  0.00  0.00    -0.343 N 
ATOM     12  C   UNL d   1      28.699 -12.794   7.002  0.00  0.00     0.277 C 
ATOM     13  C   UNL d   1      27.405 -13.873   5.154  0.00  0.00     0.154 C 
ATOM     14  O   UNL d   1      27.780 -11.971   7.135  0.00  0.00    -0.265 OA
ATOM     15  C   UNL d   1      27.814 -13.582   3.703  0.00  0.00     0.255 C 
ATOM     16  H   UNL d   1      28.634 -15.429   3.121  0.00  0.00     0.280 HD
BRANCH  12  17
ATOM     17  C   UNL d   1      29.945 -12.670   7.745  0.00  0.00     0.142 A 
ATOM     18  C   UNL d   1      30.325 -13.151   8.988  0.00  0.00     0.045 A 
ATOM     19  C   UNL d   1      31.668 -12.760   9.201  0.00  0.00     0.027 A 
ATOM     20  C   UNL d   1      32.048 -12.077   8.071  0.00  0.00     0.143 A 
ATOM     21  O   UNL d   1      31.020 -12.029   7.177  0.00  0.00    -0.317 OA
ENDBRANCH  12  17
ENDBRANCH   7   8
ENDBRANCH   3   7
BRANCH   1  22
ATOM     22  N   UNL d   1      31.235 -16.202  -2.021  0.00  0.00    -0.230 N 
ATOM     23  H   UNL d   1      32.123 -16.643  -1.868  0.00  0.00     0.174 HD
ATOM     24  H   UNL d   1      30.904 -15.941  -2.937  0.00  0.00     0.174 HD
ENDBRANCH   1  22
BRANCH   5  25
ATOM     25  N   UNL d   1      27.418 -17.769   0.087  0.00  0.00    -0.188 N 
ATOM     26  H   UNL d   1      27.603 -18.761   0.049  0.00  0.00     0.184 HD
BRANCH  25  27
ATOM     27  C   UNL d   1      26.149 -17.388  -0.341  0.00  0.00     0.050 A 
ATOM     28  C   UNL d   1      25.983 -16.182  -1.017  0.00  0.00     0.030 A 
ATOM     29  C   UNL d   1      24.723 -15.806  -1.469  0.00  0.00     0.003 A 
ATOM     30  C   UNL d   1      23.631 -16.650  -1.270  0.00  0.00     0.016 A 
ATOM     31  C   UNL d   1      23.777 -17.848  -0.560  0.00  0.00     0.050 A 
ATOM     32  C   UNL d   1      25.041 -18.200  -0.090  0.00  0.00     0.046 A 
BRANCH  31  33
ATOM     33  C   UNL d   1      22.595 -18.731  -0.275  0.00  0.00     0.417 C 
ATOM     34  F   UNL d   1      21.666 -18.670  -1.266  0.00  0.00    -0.166 F 
ATOM     35  F   UNL d   1      22.936 -20.041  -0.145  0.00  0.00    -0.166 F 
ATOM     36  F   UNL d   1      21.938 -18.399   0.872  0.00  0.00    -0.166 F 
ENDBRANCH  31  33
ENDBRANCH  25  27
ENDBRANCH   5  25
TORSDOF 7
ENDMDL
MODEL 8
REMARK VINA RESULT:    -8.698      5.744      9.696
REMARK INTER + INTRA:         -11.306
REMARK INTER:                 -10.786
REMARK INTRA:                  -0.520
REMARK CONF_INDEPENDENT:        2.088
REMARK UNBOUND:                -0.520
REMARK  7 active torsions:
REMARK  status: ('A' for Active; 'I' for Inactive)
REMARK    1  A    between atoms: N_1  and  C_2 
REMARK    2  A    between atoms: C_4  and  C_5 
REMARK    3  A    between atoms: C_5  and  N_6 
REMARK       I    between atoms: N_9  and  C_10 
REMARK    4  A    between atoms: C_10  and  C_12 
REMARK    5  A    between atoms: C_20  and  N_21 
REMARK    6  A    between atoms: N_21  and  C_22 
REMARK    7  A    between atoms: C_26  and  C_27 
ROOT
ATOM      1  C   UNL d   1      31.214 -15.454  -1.237  0.00  0.00     0.737 A 
ATOM      2  N   UNL d   1      31.413 -14.640  -0.209  0.00  0.00    -0.045 NA
ATOM      3  C   UNL d   1      30.681 -14.933   0.848  0.00  0.00     0.190 A 
ATOM      4  N   UNL d   1      29.820 -15.950   0.912  0.00  0.00    -0.044 NA
ATOM      5  C   UNL d   1      29.649 -16.664  -0.170  0.00  0.00     0.744 A 
ATOM      6  N   UNL d   1      30.344 -16.447  -1.267  0.00  0.00     0.130 NA
ENDROOT
BRANCH   3   7
ATOM      7  C   UNL d   1      30.729 -14.061   2.087  0.00  0.00     0.316 C 
BRANCH   7   8
ATOM      8  N   UNL d   1      29.680 -14.450   3.171  0.00  0.00    -0.061 N 
ATOM      9  C   UNL d   1      30.357 -14.651   4.557  0.00  0.00     0.255 C 
ATOM     10  C   UNL d   1      29.322 -14.825   5.673  0.00  0.00     0.154 C 
ATOM     11  N   UNL d   1      28.357 -13.729   5.646  0.00  0.00    -0.343 N 
ATOM     12  C   UNL d   1      28.235 -12.712   6.610  0.00  0.00     0.277 C 
ATOM     13  C   UNL d   1      27.578 -13.682   4.400  0.00  0.00     0.154 C 
ATOM     14  O   UNL d   1      27.404 -11.808   6.436  0.00  0.00    -0.265 OA
ATOM     15  C   UNL d   1      28.492 -13.439   3.190  0.00  0.00     0.255 C 
ATOM     16  H   UNL d   1      29.297 -15.358   2.883  0.00  0.00     0.280 HD
BRANCH  12  17
ATOM     17  C   UNL d   1      29.150 -12.698   7.743  0.00  0.00     0.142 A 
ATOM     18  C   UNL d   1      30.181 -11.835   8.080  0.00  0.00     0.045 A 
ATOM     19  C   UNL d   1      30.717 -12.277   9.312  0.00  0.00     0.027 A 
ATOM     20  C   UNL d   1      29.976 -13.375   9.676  0.00  0.00     0.143 A 
ATOM     21  O   UNL d   1      29.015 -13.630   8.744  0.00  0.00    -0.317 OA
ENDBRANCH  12  17
ENDBRANCH   7   8
ENDBRANCH   3   7
BRANCH   1  22
ATOM     22  N   UNL d   1      31.940 -15.255  -2.366  0.00  0.00    -0.230 N 
ATOM     23  H   UNL d   1      31.473 -15.195  -3.251  0.00  0.00     0.174 HD
ATOM     24  H   UNL d   1      32.918 -15.038  -2.247  0.00  0.00     0.174 HD
ENDBRANCH   1  22
BRANCH   5  25
ATOM     25  N   UNL d   1      28.620 -17.591  -0.133  0.00  0.00    -0.188 N 
ATOM     26  H   UNL d   1      28.903 -18.559  -0.190  0.00  0.00     0.184 HD
BRANCH  25  27
ATOM     27  C   UNL d   1      27.319 -17.332  -0.558  0.00  0.00     0.050 A 
ATOM     28  C   UNL d   1      26.254 -18.000   0.041  0.00  0.00     0.030 A 
ATOM     29  C   UNL d   1      24.950 -17.729  -0.359  0.00  0.00     0.003 A 
ATOM     30  C   UNL d   1      24.708 -16.769  -1.340  0.00  0.00     0.016 A 
ATOM     31  C   UNL d   1      25.772 -16.116  -1.975  0.00  0.00     0.050 A 
ATOM     32  C   UNL d   1      27.075 -16.417  -1.583  0.00  0.00     0.046 A 
BRANCH  31  33
ATOM     33  C   UNL d   1      25.528 -15.133  -3.085  0.00  0.00     0.417 C 
ATOM     34  F   UNL d   1      26.464 -14.147  -3.104  0.00  0.00    -0.166 F 
ATOM     35  F   UNL d   1      25.551 -15.711  -4.316  0.00  0.00    -0.166 F 
ATOM     36  F   UNL d   1      24.323 -14.501  -2.991  0.00  0.00    -0.166 F 
ENDBRANCH  31  33
ENDBRANCH  25  27
ENDBRANCH   5  25
TORSDOF 7
ENDMDL
MODEL 9
REMARK VINA RESULT:    -8.173      5.656      8.984
REMARK INTER + INTRA:         -11.213
REMARK INTER:                 -10.261
REMARK INTRA:                  -0.951
REMARK CONF_INDEPENDENT:        2.088
REMARK UNBOUND:                -0.951
REMARK  7 active torsions:
REMARK  status: ('A' for Active; 'I' for Inactive)
REMARK    1  A    between atoms: N_1  and  C_2 
REMARK    2  A    between atoms: C_4  and  C_5 
REMARK    3  A    between atoms: C_5  and  N_6 
REMARK       I    between atoms: N_9  and  C_10 
REMARK    4  A    between atoms: C_10  and  C_12 
REMARK    5  A    between atoms: C_20  and  N_21 
REMARK    6  A    between atoms: N_21  and  C_22 
REMARK    7  A    between atoms: C_26  and  C_27 
ROOT
ATOM      1  C   UNL d   1      30.811 -17.248   0.142  0.00  0.00     0.737 A 
ATOM      2  N   UNL d   1      31.695 -16.825   1.034  0.00  0.00    -0.045 NA
ATOM      3  C   UNL d   1      31.356 -15.694   1.620  0.00  0.00     0.190 A 
ATOM      4  N   UNL d   1      30.234 -15.019   1.367  0.00  0.00    -0.044 NA
ATOM      5  C   UNL d   1      29.449 -15.484   0.430  0.00  0.00     0.744 A 
ATOM      6  N   UNL d   1      29.706 -16.611  -0.200  0.00  0.00     0.130 NA
ENDROOT
BRANCH   3   7
ATOM      7  C   UNL d   1      32.288 -15.029   2.615  0.00  0.00     0.316 C 
BRANCH   7   8
ATOM      8  N   UNL d   1      31.570 -14.055   3.596  0.00  0.00    -0.061 N 
ATOM      9  C   UNL d   1      31.076 -12.779   2.855  0.00  0.00     0.255 C 
ATOM     10  C   UNL d   1      30.187 -11.912   3.752  0.00  0.00     0.154 C 
ATOM     11  N   UNL d   1      29.108 -12.713   4.324  0.00  0.00    -0.343 N 
ATOM     12  C   UNL d   1      27.742 -12.603   4.007  0.00  0.00     0.277 C 
ATOM     13  C   UNL d   1      29.594 -13.794   5.192  0.00  0.00     0.154 C 
ATOM     14  O   UNL d   1      26.934 -13.385   4.530  0.00  0.00    -0.265 OA
ATOM     15  C   UNL d   1      30.453 -14.790   4.399  0.00  0.00     0.255 C 
ATOM     16  H   UNL d   1      32.282 -13.758   4.274  0.00  0.00     0.280 HD
BRANCH  12  17
ATOM     17  C   UNL d   1      27.324 -11.632   3.006  0.00  0.00     0.142 A 
ATOM     18  C   UNL d   1      26.816 -10.348   3.126  0.00  0.00     0.045 A 
ATOM     19  C   UNL d   1      26.613  -9.848   1.819  0.00  0.00     0.027 A 
ATOM     20  C   UNL d   1      27.024 -10.842   0.965  0.00  0.00     0.143 A 
ATOM     21  O   UNL d   1      27.471 -11.920   1.670  0.00  0.00    -0.317 OA
ENDBRANCH  12  17
ENDBRANCH   7   8
ENDBRANCH   3   7
BRANCH   1  22
ATOM     22  N   UNL d   1      31.052 -18.420  -0.498  0.00  0.00    -0.230 N 
ATOM     23  H   UNL d   1      31.776 -18.468  -1.190  0.00  0.00     0.174 HD
ATOM     24  H   UNL d   1      30.575 -19.238  -0.148  0.00  0.00     0.174 HD
ENDBRANCH   1  22
BRANCH   5  25
ATOM     25  N   UNL d   1      28.391 -14.669   0.061  0.00  0.00    -0.188 N 
ATOM     26  H   UNL d   1      28.245 -13.855   0.641  0.00  0.00     0.184 HD
BRANCH  25  27
ATOM     27  C   UNL d   1      27.262 -15.116  -0.623  0.00  0.00     0.050 A 
ATOM     28  C   UNL d   1      26.499 -16.151  -0.089  0.00  0.00     0.030 A 
ATOM     29  C   UNL d   1      25.357 -16.586  -0.752  0.00  0.00     0.003 A 
ATOM     30  C   UNL d   1      24.960 -15.967  -1.936  0.00  0.00     0.016 A 
ATOM     31  C   UNL d   1      25.738 -14.949  -2.502  0.00  0.00     0.050 A 
ATOM     32  C   UNL d   1      26.895 -14.541  -1.841  0.00  0.00     0.046 A 
BRANCH  31  33
ATOM     33  C   UNL d   1      25.362 -14.324  -3.816  0.00  0.00     0.417 C 
ATOM     34  F   UNL d   1      24.031 -14.054  -3.887  0.00  0.00    -0.166 F 
ATOM     35  F   UNL d   1      26.007 -13.149  -4.044  0.00  0.00    -0.166 F 
ATOM     36  F   UNL d   1      25.639 -15.118  -4.890  0.00  0.00    -0.166 F 
ENDBRANCH  31  33
ENDBRANCH  25  27
ENDBRANCH   5  25
TORSDOF 7
ENDMDL
