MODEL 1
REMARK VINA RESULT:    -8.283      0.000      0.000
REMARK INTER + INTRA:         -10.953
REMARK INTER:                  -9.775
REMARK INTRA:                  -1.178
REMARK CONF_INDEPENDENT:        1.492
REMARK UNBOUND:                -1.178
REMARK  5 active torsions:
REMARK  status: ('A' for Active; 'I' for Inactive)
REMARK    1  A    between atoms: C_2  and  O_3 
REMARK    2  A    between atoms: O_3  and  C_4 
REMARK       I    between atoms: C_4  and  N_6 
REMARK    3  A    between atoms: C_17  and  C_18 
REMARK    4  A    between atoms: C_21  and  O_22 
REMARK    5  A    between atoms: C_25  and  O_26 
ROOT
ATOM      1  C   UNL d   1      21.973 -19.112  -0.820  0.00  0.00     0.363 C 
ATOM      2  O   UNL d   1      21.626 -19.314  -1.979  0.00  0.00    -0.238 OA
ATOM      3  N   UNL d   1      22.811 -18.065  -0.446  0.00  0.00    -0.323 N 
ATOM      4  C   UNL d   1      23.829 -18.200   0.605  0.00  0.00     0.133 C 
ATOM      5  C   UNL d   1      25.242 -18.249   0.000  0.00  0.00     0.061 C 
ATOM      6  C   UNL d   1      25.416 -17.153  -0.992  0.00  0.00    -0.023 A 
ATOM      7  C   UNL d   1      24.339 -16.523  -1.579  0.00  0.00     0.010 A 
ATOM      8  S   UNL d   1      24.837 -15.285  -2.645  0.00  0.00    -0.074 SA
ATOM      9  C   UNL d   1      26.476 -15.661  -2.381  0.00  0.00     0.088 A 
ATOM     10  C   UNL d   1      26.654 -16.675  -1.470  0.00  0.00     0.073 A 
ATOM     11  C   UNL d   1      27.972 -17.147  -1.118  0.00  0.00     0.256 A 
ATOM     12  O   UNL d   1      28.203 -18.055  -0.315  0.00  0.00    -0.267 OA
ATOM     13  N   UNL d   1      28.990 -16.526  -1.737  0.00  0.00    -0.331 N 
ATOM     14  C   UNL d   1      28.839 -15.520  -2.731  0.00  0.00     0.222 A 
ATOM     15  N   UNL d   1      27.504 -15.065  -2.991  0.00  0.00    -0.358 N 
ATOM     16  C   UNL d   1      22.901 -16.837  -1.270  0.00  0.00     0.174 C 
ATOM     17  H   UNL d   1      29.922 -16.852  -1.524  0.00  0.00     0.165 HD
ATOM     18  H   UNL d   1      27.403 -14.331  -3.686  0.00  0.00     0.162 HD
ENDROOT
BRANCH  14  19
ATOM     19  C   UNL d   1      29.480 -15.995  -3.996  0.00  0.00     0.017 A 
ATOM     20  C   UNL d   1      30.731 -16.656  -3.845  0.00  0.00     0.017 A 
ATOM     21  C   UNL d   1      31.514 -17.005  -4.936  0.00  0.00     0.037 A 
ATOM     22  C   UNL d   1      31.015 -16.807  -6.214  0.00  0.00     0.070 A 
ATOM     23  C   UNL d   1      29.770 -16.183  -6.377  0.00  0.00     0.074 A 
ATOM     24  C   UNL d   1      28.985 -15.774  -5.282  0.00  0.00     0.081 A 
BRANCH  22  25
ATOM     25  O   UNL d   1      31.818 -17.282  -7.213  0.00  0.00    -0.356 OA
ATOM     26  C   UNL d   1      31.425 -18.516  -7.799  0.00  0.00     0.210 C 
ENDBRANCH  22  25
BRANCH  24  27
ATOM     27  O   UNL d   1      27.794 -15.200  -5.655  0.00  0.00    -0.355 OA
ATOM     28  C   UNL d   1      27.777 -13.851  -6.098  0.00  0.00     0.210 C 
ENDBRANCH  24  27
ENDBRANCH  14  19
BRANCH   1  29
ATOM     29  O   UNL d   1      21.495 -19.849   0.241  0.00  0.00    -0.304 OA
BRANCH  29  30
ATOM     30  C   UNL d   1      20.129 -19.560   0.652  0.00  0.00     0.176 C 
ATOM     31  C   UNL d   1      19.156 -19.700  -0.521  0.00  0.00     0.034 C 
ENDBRANCH  29  30
ENDBRANCH   1  29
TORSDOF 5
ENDMDL
MODEL 2
REMARK VINA RESULT:    -7.916      1.912      8.875
REMARK INTER + INTRA:         -10.497
REMARK INTER:                  -9.407
REMARK INTRA:                  -1.090
REMARK CONF_INDEPENDENT:        1.492
REMARK UNBOUND:                -1.090
REMARK  5 active torsions:
REMARK  status: ('A' for Active; 'I' for Inactive)
REMARK    1  A    between atoms: C_2  and  O_3 
REMARK    2  A    between atoms: O_3  and  C_4 
REMARK       I    between atoms: C_4  and  N_6 
REMARK    3  A    between atoms: C_17  and  C_18 
REMARK    4  A    between atoms: C_21  and  O_22 
REMARK    5  A    between atoms: C_25  and  O_26 
ROOT
ATOM      1  C   UNL d   1      30.811 -17.024  -6.784  0.00  0.00     0.363 C 
ATOM      2  O   UNL d   1      30.930 -18.215  -6.521  0.00  0.00    -0.238 OA
ATOM      3  N   UNL d   1      30.400 -16.074  -5.851  0.00  0.00    -0.323 N 
ATOM      4  C   UNL d   1      29.530 -14.943  -6.200  0.00  0.00     0.133 C 
ATOM      5  C   UNL d   1      28.111 -15.148  -5.643  0.00  0.00     0.061 C 
ATOM      6  C   UNL d   1      28.173 -15.555  -4.213  0.00  0.00    -0.023 A 
ATOM      7  C   UNL d   1      29.314 -16.096  -3.657  0.00  0.00     0.010 A 
ATOM      8  S   UNL d   1      29.107 -16.433  -1.996  0.00  0.00    -0.074 SA
ATOM      9  C   UNL d   1      27.479 -15.940  -2.057  0.00  0.00     0.088 A 
ATOM     10  C   UNL d   1      27.102 -15.485  -3.298  0.00  0.00     0.073 A 
ATOM     11  C   UNL d   1      25.756 -15.030  -3.555  0.00  0.00     0.256 A 
ATOM     12  O   UNL d   1      25.350 -14.616  -4.645  0.00  0.00    -0.267 OA
ATOM     13  N   UNL d   1      24.920 -15.083  -2.506  0.00  0.00    -0.331 N 
ATOM     14  C   UNL d   1      25.259 -15.608  -1.228  0.00  0.00     0.222 A 
ATOM     15  N   UNL d   1      26.626 -15.992  -1.030  0.00  0.00    -0.358 N 
ATOM     16  C   UNL d   1      30.604 -16.302  -4.402  0.00  0.00     0.174 C 
ATOM     17  H   UNL d   1      23.967 -14.791  -2.665  0.00  0.00     0.165 HD
ATOM     18  H   UNL d   1      26.869 -16.346  -0.109  0.00  0.00     0.162 HD
ENDROOT
BRANCH  14  19
ATOM     19  C   UNL d   1      24.350 -16.756  -0.924  0.00  0.00     0.017 A 
ATOM     20  C   UNL d   1      22.956 -16.489  -1.037  0.00  0.00     0.017 A 
ATOM     21  C   UNL d   1      21.996 -17.405  -0.631  0.00  0.00     0.037 A 
ATOM     22  C   UNL d   1      22.402 -18.661  -0.209  0.00  0.00     0.070 A 
ATOM     23  C   UNL d   1      23.771 -18.949  -0.121  0.00  0.00     0.074 A 
ATOM     24  C   UNL d   1      24.761 -18.013  -0.478  0.00  0.00     0.081 A 
BRANCH  22  25
ATOM     25  O   UNL d   1      21.375 -19.523   0.065  0.00  0.00    -0.356 OA
ATOM     26  C   UNL d   1      20.224 -19.408  -0.761  0.00  0.00     0.210 C 
ENDBRANCH  22  25
BRANCH  24  27
ATOM     27  O   UNL d   1      26.038 -18.496  -0.336  0.00  0.00    -0.355 OA
ATOM     28  C   UNL d   1      26.655 -18.476   0.943  0.00  0.00     0.210 C 
ENDBRANCH  24  27
ENDBRANCH  14  19
BRANCH   1  29
ATOM     29  O   UNL d   1      31.157 -16.489  -8.006  0.00  0.00    -0.304 OA
BRANCH  29  30
ATOM     30  C   UNL d   1      32.423 -15.773  -8.050  0.00  0.00     0.176 C 
ATOM     31  C   UNL d   1      32.211 -14.287  -8.348  0.00  0.00     0.034 C 
ENDBRANCH  29  30
ENDBRANCH   1  29
TORSDOF 5
ENDMDL
MODEL 3
REMARK VINA RESULT:    -7.717      1.023      1.930
REMARK INTER + INTRA:         -10.436
REMARK INTER:                  -9.208
REMARK INTRA:                  -1.228
REMARK CONF_INDEPENDENT:        1.492
REMARK UNBOUND:                -1.228
REMARK  5 active torsions:
REMARK  status: ('A' for Active; 'I' for Inactive)
REMARK    1  A    between atoms: C_2  and  O_3 
REMARK    2  A    between atoms: O_3  and  C_4 
REMARK       I    between atoms: C_4  and  N_6 
REMARK    3  A    between atoms: C_17  and  C_18 
REMARK    4  A    between atoms: C_21  and  O_22 
REMARK    5  A    between atoms: C_25  and  O_26 
ROOT
ATOM      1  C   UNL d   1      21.935 -19.069  -0.830  0.00  0.00     0.363 C 
ATOM      2  O   UNL d   1      21.618 -19.271  -1.997  0.00  0.00    -0.238 OA
ATOM      3  N   UNL d   1      22.793 -18.043  -0.440  0.00  0.00    -0.323 N 
ATOM      4  C   UNL d   1      23.774 -18.199   0.643  0.00  0.00     0.133 C 
ATOM      5  C   UNL d   1      25.203 -18.295   0.082  0.00  0.00     0.061 C 
ATOM      6  C   UNL d   1      25.439 -17.214  -0.914  0.00  0.00    -0.023 A 
ATOM      7  C   UNL d   1      24.399 -16.557  -1.538  0.00  0.00     0.010 A 
ATOM      8  S   UNL d   1      24.965 -15.345  -2.599  0.00  0.00    -0.074 SA
ATOM      9  C   UNL d   1      26.583 -15.767  -2.282  0.00  0.00     0.088 A 
ATOM     10  C   UNL d   1      26.704 -16.777  -1.358  0.00  0.00     0.073 A 
ATOM     11  C   UNL d   1      27.997 -17.284  -0.963  0.00  0.00     0.256 A 
ATOM     12  O   UNL d   1      28.176 -18.191  -0.145  0.00  0.00    -0.267 OA
ATOM     13  N   UNL d   1      29.050 -16.699  -1.555  0.00  0.00    -0.331 N 
ATOM     14  C   UNL d   1      28.959 -15.698  -2.561  0.00  0.00     0.222 A 
ATOM     15  N   UNL d   1      27.647 -15.207  -2.866  0.00  0.00    -0.358 N 
ATOM     16  C   UNL d   1      22.944 -16.827  -1.270  0.00  0.00     0.174 C 
ATOM     17  H   UNL d   1      29.965 -17.050  -1.311  0.00  0.00     0.165 HD
ATOM     18  H   UNL d   1      27.589 -14.476  -3.569  0.00  0.00     0.162 HD
ENDROOT
BRANCH  14  19
ATOM     19  C   UNL d   1      29.624 -16.203  -3.803  0.00  0.00     0.017 A 
ATOM     20  C   UNL d   1      29.373 -15.456  -4.987  0.00  0.00     0.017 A 
ATOM     21  C   UNL d   1      29.787 -15.895  -6.236  0.00  0.00     0.037 A 
ATOM     22  C   UNL d   1      30.566 -17.039  -6.322  0.00  0.00     0.070 A 
ATOM     23  C   UNL d   1      30.846 -17.770  -5.159  0.00  0.00     0.074 A 
ATOM     24  C   UNL d   1      30.389 -17.367  -3.889  0.00  0.00     0.081 A 
BRANCH  22  25
ATOM     25  O   UNL d   1      31.011 -17.325  -7.583  0.00  0.00    -0.356 OA
ATOM     26  C   UNL d   1      31.145 -18.704  -7.902  0.00  0.00     0.210 C 
ENDBRANCH  22  25
BRANCH  24  27
ATOM     27  O   UNL d   1      30.785 -18.210  -2.880  0.00  0.00    -0.355 OA
ATOM     28  C   UNL d   1      31.723 -19.240  -3.156  0.00  0.00     0.210 C 
ENDBRANCH  24  27
ENDBRANCH  14  19
BRANCH   1  29
ATOM     29  O   UNL d   1      21.404 -19.782   0.222  0.00  0.00    -0.304 OA
BRANCH  29  30
ATOM     30  C   UNL d   1      19.954 -19.899   0.242  0.00  0.00     0.176 C 
ATOM     31  C   UNL d   1      19.423 -19.984   1.675  0.00  0.00     0.034 C 
ENDBRANCH  29  30
ENDBRANCH   1  29
TORSDOF 5
ENDMDL
MODEL 4
REMARK VINA RESULT:    -7.357      4.540      6.689
REMARK INTER + INTRA:         -10.053
REMARK INTER:                  -8.848
REMARK INTRA:                  -1.204
REMARK CONF_INDEPENDENT:        1.492
REMARK UNBOUND:                -1.204
REMARK  5 active torsions:
REMARK  status: ('A' for Active; 'I' for Inactive)
REMARK    1  A    between atoms: C_2  and  O_3 
REMARK    2  A    between atoms: O_3  and  C_4 
REMARK       I    between atoms: C_4  and  N_6 
REMARK    3  A    between atoms: C_17  and  C_18 
REMARK    4  A    between atoms: C_21  and  O_22 
REMARK    5  A    between atoms: C_25  and  O_26 
ROOT
ATOM      1  C   UNL d   1      22.159 -18.760  -0.389  0.00  0.00     0.363 C 
ATOM      2  O   UNL d   1      21.925 -18.913   0.805  0.00  0.00    -0.238 OA
ATOM      3  N   UNL d   1      23.435 -18.515  -0.890  0.00  0.00    -0.323 N 
ATOM      4  C   UNL d   1      23.683 -17.607  -2.019  0.00  0.00     0.133 C 
ATOM      5  C   UNL d   1      24.330 -16.297  -1.540  0.00  0.00     0.061 C 
ATOM      6  C   UNL d   1      25.468 -16.588  -0.626  0.00  0.00    -0.023 A 
ATOM      7  C   UNL d   1      25.593 -17.801   0.020  0.00  0.00     0.010 A 
ATOM      8  S   UNL d   1      27.009 -17.865   0.972  0.00  0.00    -0.074 SA
ATOM      9  C   UNL d   1      27.392 -16.252   0.584  0.00  0.00     0.088 A 
ATOM     10  C   UNL d   1      26.493 -15.681  -0.285  0.00  0.00     0.073 A 
ATOM     11  C   UNL d   1      26.638 -14.314  -0.727  0.00  0.00     0.256 A 
ATOM     12  O   UNL d   1      25.866 -13.739  -1.499  0.00  0.00    -0.267 OA
ATOM     13  N   UNL d   1      27.702 -13.660  -0.235  0.00  0.00    -0.331 N 
ATOM     14  C   UNL d   1      28.615 -14.199   0.715  0.00  0.00     0.222 A 
ATOM     15  N   UNL d   1      28.438 -15.578   1.068  0.00  0.00    -0.358 N 
ATOM     16  C   UNL d   1      24.638 -18.950  -0.144  0.00  0.00     0.174 C 
ATOM     17  H   UNL d   1      27.815 -12.696  -0.511  0.00  0.00     0.165 HD
ATOM     18  H   UNL d   1      29.105 -15.965   1.730  0.00  0.00     0.162 HD
ENDROOT
BRANCH  14  19
ATOM     19  C   UNL d   1      28.592 -13.343   1.942  0.00  0.00     0.017 A 
ATOM     20  C   UNL d   1      29.017 -13.974   3.144  0.00  0.00     0.017 A 
ATOM     21  C   UNL d   1      28.896 -13.357   4.381  0.00  0.00     0.037 A 
ATOM     22  C   UNL d   1      28.453 -12.045   4.438  0.00  0.00     0.070 A 
ATOM     23  C   UNL d   1      28.058 -11.400   3.257  0.00  0.00     0.074 A 
ATOM     24  C   UNL d   1      28.124 -12.029   1.998  0.00  0.00     0.081 A 
BRANCH  22  25
ATOM     25  O   UNL d   1      28.473 -11.496   5.690  0.00  0.00    -0.356 OA
ATOM     26  C   UNL d   1      28.363 -12.408   6.775  0.00  0.00     0.210 C 
ENDBRANCH  22  25
BRANCH  24  27
ATOM     27  O   UNL d   1      27.708 -11.223   0.968  0.00  0.00    -0.355 OA
ATOM     28  C   UNL d   1      26.818 -10.150   1.236  0.00  0.00     0.210 C 
ENDBRANCH  24  27
ENDBRANCH  14  19
BRANCH   1  29
ATOM     29  O   UNL d   1      21.197 -18.907  -1.364  0.00  0.00    -0.304 OA
BRANCH  29  30
ATOM     30  C   UNL d   1      19.820 -18.965  -0.895  0.00  0.00     0.176 C 
ATOM     31  C   UNL d   1      19.552 -20.258  -0.121  0.00  0.00     0.034 C 
ENDBRANCH  29  30
ENDBRANCH   1  29
TORSDOF 5
ENDMDL
MODEL 5
REMARK VINA RESULT:    -7.182      5.006      7.184
REMARK INTER + INTRA:          -9.911
REMARK INTER:                  -8.674
REMARK INTRA:                  -1.237
REMARK CONF_INDEPENDENT:        1.492
REMARK UNBOUND:                -1.237
REMARK  5 active torsions:
REMARK  status: ('A' for Active; 'I' for Inactive)
REMARK    1  A    between atoms: C_2  and  O_3 
REMARK    2  A    between atoms: O_3  and  C_4 
REMARK       I    between atoms: C_4  and  N_6 
REMARK    3  A    between atoms: C_17  and  C_18 
REMARK    4  A    between atoms: C_21  and  O_22 
REMARK    5  A    between atoms: C_25  and  O_26 
ROOT
ATOM      1  C   UNL d   1      23.037 -18.601  -0.426  0.00  0.00     0.363 C 
ATOM      2  O   UNL d   1      22.719 -18.575   0.758  0.00  0.00    -0.238 OA
ATOM      3  N   UNL d   1      24.264 -18.137  -0.896  0.00  0.00    -0.323 N 
ATOM      4  C   UNL d   1      24.406 -17.431  -2.177  0.00  0.00     0.133 C 
ATOM      5  C   UNL d   1      24.665 -15.931  -1.953  0.00  0.00     0.061 C 
ATOM      6  C   UNL d   1      25.735 -15.740  -0.936  0.00  0.00    -0.023 A 
ATOM      7  C   UNL d   1      26.076 -16.732  -0.041  0.00  0.00     0.010 A 
ATOM      8  S   UNL d   1      27.357 -16.246   0.980  0.00  0.00    -0.074 SA
ATOM      9  C   UNL d   1      27.381 -14.695   0.279  0.00  0.00     0.088 A 
ATOM     10  C   UNL d   1      26.470 -14.552  -0.740  0.00  0.00     0.073 A 
ATOM     11  C   UNL d   1      26.331 -13.305  -1.454  0.00  0.00     0.256 A 
ATOM     12  O   UNL d   1      25.530 -13.107  -2.373  0.00  0.00    -0.267 OA
ATOM     13  N   UNL d   1      27.148 -12.318  -1.054  0.00  0.00    -0.331 N 
ATOM     14  C   UNL d   1      28.055 -12.412   0.037  0.00  0.00     0.222 A 
ATOM     15  N   UNL d   1      28.177 -13.695   0.666  0.00  0.00    -0.358 N 
ATOM     16  C   UNL d   1      25.448 -18.097  -0.008  0.00  0.00     0.174 C 
ATOM     17  H   UNL d   1      27.055 -11.429  -1.524  0.00  0.00     0.165 HD
ATOM     18  H   UNL d   1      28.843 -13.763   1.431  0.00  0.00     0.162 HD
ENDROOT
BRANCH  14  19
ATOM     19  C   UNL d   1      27.697 -11.371   1.050  0.00  0.00     0.017 A 
ATOM     20  C   UNL d   1      27.178 -10.153   0.529  0.00  0.00     0.017 A 
ATOM     21  C   UNL d   1      26.955  -9.044   1.332  0.00  0.00     0.037 A 
ATOM     22  C   UNL d   1      27.136  -9.159   2.702  0.00  0.00     0.070 A 
ATOM     23  C   UNL d   1      27.619 -10.363   3.234  0.00  0.00     0.074 A 
ATOM     24  C   UNL d   1      27.900 -11.483   2.427  0.00  0.00     0.081 A 
BRANCH  22  25
ATOM     25  O   UNL d   1      26.787  -8.044   3.413  0.00  0.00    -0.356 OA
ATOM     26  C   UNL d   1      27.782  -7.520   4.282  0.00  0.00     0.210 C 
ENDBRANCH  22  25
BRANCH  24  27
ATOM     27  O   UNL d   1      28.347 -12.567   3.142  0.00  0.00    -0.355 OA
ATOM     28  C   UNL d   1      27.405 -13.458   3.720  0.00  0.00     0.210 C 
ENDBRANCH  24  27
ENDBRANCH  14  19
BRANCH   1  29
ATOM     29  O   UNL d   1      22.248 -19.174  -1.399  0.00  0.00    -0.304 OA
BRANCH  29  30
ATOM     30  C   UNL d   1      20.816 -18.950  -1.270  0.00  0.00     0.176 C 
ATOM     31  C   UNL d   1      20.224 -19.785  -0.133  0.00  0.00     0.034 C 
ENDBRANCH  29  30
ENDBRANCH   1  29
TORSDOF 5
ENDMDL
MODEL 6
REMARK VINA RESULT:    -7.065      5.636      8.439
REMARK INTER + INTRA:          -9.831
REMARK INTER:                  -8.556
REMARK INTRA:                  -1.275
REMARK CONF_INDEPENDENT:        1.492
REMARK UNBOUND:                -1.275
REMARK  5 active torsions:
REMARK  status: ('A' for Active; 'I' for Inactive)
REMARK    1  A    between atoms: C_2  and  O_3 
REMARK    2  A    between atoms: O_3  and  C_4 
REMARK       I    between atoms: C_4  and  N_6 
REMARK    3  A    between atoms: C_17  and  C_18 
REMARK    4  A    between atoms: C_21  and  O_22 
REMARK    5  A    between atoms: C_25  and  O_26 
ROOT
ATOM      1  C   UNL d   1      26.294  -8.423   2.143  0.00  0.00     0.363 C 
ATOM      2  O   UNL d   1      25.243  -8.242   1.538  0.00  0.00    -0.238 OA
ATOM      3  N   UNL d   1      27.271  -9.322   1.720  0.00  0.00    -0.323 N 
ATOM      4  C   UNL d   1      28.061 -10.133   2.657  0.00  0.00     0.133 C 
ATOM      5  C   UNL d   1      27.619 -11.605   2.618  0.00  0.00     0.061 C 
ATOM      6  C   UNL d   1      27.521 -12.077   1.210  0.00  0.00    -0.023 A 
ATOM      7  C   UNL d   1      27.399 -11.198   0.153  0.00  0.00     0.010 A 
ATOM      8  S   UNL d   1      27.345 -12.017  -1.345  0.00  0.00    -0.074 SA
ATOM      9  C   UNL d   1      27.395 -13.530  -0.566  0.00  0.00     0.088 A 
ATOM     10  C   UNL d   1      27.495 -13.427   0.801  0.00  0.00     0.073 A 
ATOM     11  C   UNL d   1      27.542 -14.599   1.642  0.00  0.00     0.256 A 
ATOM     12  O   UNL d   1      27.625 -14.578   2.874  0.00  0.00    -0.267 OA
ATOM     13  N   UNL d   1      27.484 -15.774   0.995  0.00  0.00    -0.331 N 
ATOM     14  C   UNL d   1      27.315 -15.916  -0.410  0.00  0.00     0.222 A 
ATOM     15  N   UNL d   1      27.329 -14.711  -1.187  0.00  0.00    -0.358 N 
ATOM     16  C   UNL d   1      27.383  -9.701   0.294  0.00  0.00     0.174 C 
ATOM     17  H   UNL d   1      27.492 -16.610   1.563  0.00  0.00     0.165 HD
ATOM     18  H   UNL d   1      27.230 -14.818  -2.192  0.00  0.00     0.162 HD
ENDROOT
BRANCH  14  19
ATOM     19  C   UNL d   1      26.056 -16.682  -0.667  0.00  0.00     0.017 A 
ATOM     20  C   UNL d   1      25.704 -17.644   0.321  0.00  0.00     0.017 A 
ATOM     21  C   UNL d   1      24.658 -18.537   0.139  0.00  0.00     0.037 A 
ATOM     22  C   UNL d   1      23.859 -18.416  -0.987  0.00  0.00     0.070 A 
ATOM     23  C   UNL d   1      24.176 -17.453  -1.956  0.00  0.00     0.074 A 
ATOM     24  C   UNL d   1      25.266 -16.573  -1.813  0.00  0.00     0.081 A 
BRANCH  22  25
ATOM     25  O   UNL d   1      22.793 -19.273  -1.018  0.00  0.00    -0.356 OA
ATOM     26  C   UNL d   1      21.508 -18.678  -0.897  0.00  0.00     0.210 C 
ENDBRANCH  22  25
BRANCH  24  27
ATOM     27  O   UNL d   1      25.395 -15.696  -2.862  0.00  0.00    -0.355 OA
ATOM     28  C   UNL d   1      24.705 -14.456  -2.825  0.00  0.00     0.210 C 
ENDBRANCH  24  27
ENDBRANCH  14  19
BRANCH   1  29
ATOM     29  O   UNL d   1      26.654  -7.691   3.253  0.00  0.00    -0.304 OA
BRANCH  29  30
ATOM     30  C   UNL d   1      27.217  -6.375   2.990  0.00  0.00     0.176 C 
ATOM     31  C   UNL d   1      26.208  -5.471   2.277  0.00  0.00     0.034 C 
ENDBRANCH  29  30
ENDBRANCH   1  29
TORSDOF 5
ENDMDL
MODEL 7
REMARK VINA RESULT:    -6.907      2.465      8.827
REMARK INTER + INTRA:          -9.623
REMARK INTER:                  -8.398
REMARK INTRA:                  -1.224
REMARK CONF_INDEPENDENT:        1.492
REMARK UNBOUND:                -1.224
REMARK  5 active torsions:
REMARK  status: ('A' for Active; 'I' for Inactive)
REMARK    1  A    between atoms: C_2  and  O_3 
REMARK    2  A    between atoms: O_3  and  C_4 
REMARK       I    between atoms: C_4  and  N_6 
REMARK    3  A    between atoms: C_17  and  C_18 
REMARK    4  A    between atoms: C_21  and  O_22 
REMARK    5  A    between atoms: C_25  and  O_26 
ROOT
ATOM      1  C   UNL d   1      31.313 -19.334  -8.328  0.00  0.00     0.363 C 
ATOM      2  O   UNL d   1      30.894 -20.450  -8.043  0.00  0.00    -0.238 OA
ATOM      3  N   UNL d   1      31.548 -18.342  -7.379  0.00  0.00    -0.323 N 
ATOM      4  C   UNL d   1      31.273 -16.921  -7.632  0.00  0.00     0.133 C 
ATOM      5  C   UNL d   1      30.030 -16.454  -6.855  0.00  0.00     0.061 C 
ATOM      6  C   UNL d   1      30.111 -16.900  -5.438  0.00  0.00    -0.023 A 
ATOM      7  C   UNL d   1      30.932 -17.937  -5.045  0.00  0.00     0.010 A 
ATOM      8  S   UNL d   1      30.848 -18.203  -3.360  0.00  0.00    -0.074 SA
ATOM      9  C   UNL d   1      29.658 -16.998  -3.187  0.00  0.00     0.088 A 
ATOM     10  C   UNL d   1      29.355 -16.370  -4.371  0.00  0.00     0.073 A 
ATOM     11  C   UNL d   1      28.362 -15.324  -4.435  0.00  0.00     0.256 A 
ATOM     12  O   UNL d   1      28.037 -14.724  -5.463  0.00  0.00    -0.267 OA
ATOM     13  N   UNL d   1      27.772 -15.018  -3.268  0.00  0.00    -0.331 N 
ATOM     14  C   UNL d   1      28.015 -15.692  -2.038  0.00  0.00     0.222 A 
ATOM     15  N   UNL d   1      29.051 -16.683  -2.040  0.00  0.00    -0.358 N 
ATOM     16  C   UNL d   1      31.840 -18.696  -5.971  0.00  0.00     0.174 C 
ATOM     17  H   UNL d   1      27.058 -14.305  -3.289  0.00  0.00     0.165 HD
ATOM     18  H   UNL d   1      29.236 -17.146  -1.155  0.00  0.00     0.162 HD
ENDROOT
BRANCH  14  19
ATOM     19  C   UNL d   1      26.730 -16.287  -1.555  0.00  0.00     0.017 A 
ATOM     20  C   UNL d   1      26.822 -17.089  -0.384  0.00  0.00     0.017 A 
ATOM     21  C   UNL d   1      25.748 -17.832   0.085  0.00  0.00     0.037 A 
ATOM     22  C   UNL d   1      24.517 -17.703  -0.540  0.00  0.00     0.070 A 
ATOM     23  C   UNL d   1      24.405 -16.892  -1.679  0.00  0.00     0.074 A 
ATOM     24  C   UNL d   1      25.497 -16.172  -2.199  0.00  0.00     0.081 A 
BRANCH  22  25
ATOM     25  O   UNL d   1      23.503 -18.394   0.063  0.00  0.00    -0.356 OA
ATOM     26  C   UNL d   1      22.230 -18.312  -0.565  0.00  0.00     0.210 C 
ENDBRANCH  22  25
BRANCH  24  27
ATOM     27  O   UNL d   1      25.175 -15.426  -3.306  0.00  0.00    -0.355 OA
ATOM     28  C   UNL d   1      24.768 -14.075  -3.145  0.00  0.00     0.210 C 
ENDBRANCH  24  27
ENDBRANCH  14  19
BRANCH   1  29
ATOM     29  O   UNL d   1      31.678 -18.977  -9.608  0.00  0.00    -0.304 OA
BRANCH  29  30
ATOM     30  C   UNL d   1      33.075 -19.193  -9.953  0.00  0.00     0.176 C 
ATOM     31  C   UNL d   1      33.912 -17.939  -9.691  0.00  0.00     0.034 C 
ENDBRANCH  29  30
ENDBRANCH   1  29
TORSDOF 5
ENDMDL
MODEL 8
REMARK VINA RESULT:    -6.521      7.406     10.929
REMARK INTER + INTRA:          -9.114
REMARK INTER:                  -8.012
REMARK INTRA:                  -1.102
REMARK CONF_INDEPENDENT:        1.492
REMARK UNBOUND:                -1.102
REMARK  5 active torsions:
REMARK  status: ('A' for Active; 'I' for Inactive)
REMARK    1  A    between atoms: C_2  and  O_3 
REMARK    2  A    between atoms: O_3  and  C_4 
REMARK       I    between atoms: C_4  and  N_6 
REMARK    3  A    between atoms: C_17  and  C_18 
REMARK    4  A    between atoms: C_21  and  O_22 
REMARK    5  A    between atoms: C_25  and  O_26 
ROOT
ATOM      1  C   UNL d   1      26.416 -14.455  -4.968  0.00  0.00     0.363 C 
ATOM      2  O   UNL d   1      25.303 -14.808  -4.595  0.00  0.00    -0.238 OA
ATOM      3  N   UNL d   1      26.904 -13.162  -4.796  0.00  0.00    -0.323 N 
ATOM      4  C   UNL d   1      27.742 -12.490  -5.798  0.00  0.00     0.133 C 
ATOM      5  C   UNL d   1      26.951 -11.393  -6.531  0.00  0.00     0.061 C 
ATOM      6  C   UNL d   1      26.229 -10.538  -5.551  0.00  0.00    -0.023 A 
ATOM      7  C   UNL d   1      25.961 -10.965  -4.267  0.00  0.00     0.010 A 
ATOM      8  S   UNL d   1      25.155  -9.765  -3.358  0.00  0.00    -0.074 SA
ATOM      9  C   UNL d   1      25.092  -8.728  -4.706  0.00  0.00     0.088 A 
ATOM     10  C   UNL d   1      25.707  -9.254  -5.817  0.00  0.00     0.073 A 
ATOM     11  C   UNL d   1      25.752  -8.530  -7.065  0.00  0.00     0.256 A 
ATOM     12  O   UNL d   1      26.281  -8.946  -8.100  0.00  0.00    -0.267 OA
ATOM     13  N   UNL d   1      25.160  -7.325  -7.053  0.00  0.00    -0.331 N 
ATOM     14  C   UNL d   1      24.459  -6.779  -5.942  0.00  0.00     0.222 A 
ATOM     15  N   UNL d   1      24.501  -7.530  -4.721  0.00  0.00    -0.358 N 
ATOM     16  C   UNL d   1      26.386 -12.296  -3.712  0.00  0.00     0.174 C 
ATOM     17  H   UNL d   1      25.158  -6.808  -7.921  0.00  0.00     0.165 HD
ATOM     18  H   UNL d   1      24.018  -7.126  -3.924  0.00  0.00     0.162 HD
ENDROOT
BRANCH  14  19
ATOM     19  C   UNL d   1      23.041  -6.526  -6.346  0.00  0.00     0.017 A 
ATOM     20  C   UNL d   1      22.749  -6.710  -7.726  0.00  0.00     0.017 A 
ATOM     21  C   UNL d   1      21.523  -6.358  -8.272  0.00  0.00     0.037 A 
ATOM     22  C   UNL d   1      20.513  -5.919  -7.430  0.00  0.00     0.070 A 
ATOM     23  C   UNL d   1      20.778  -5.760  -6.062  0.00  0.00     0.074 A 
ATOM     24  C   UNL d   1      22.033  -6.063  -5.499  0.00  0.00     0.081 A 
BRANCH  22  25
ATOM     25  O   UNL d   1      19.315  -5.701  -8.051  0.00  0.00    -0.356 OA
ATOM     26  C   UNL d   1      18.572  -6.860  -8.403  0.00  0.00     0.210 C 
ENDBRANCH  22  25
BRANCH  24  27
ATOM     27  O   UNL d   1      22.081  -5.856  -4.142  0.00  0.00    -0.355 OA
ATOM     28  C   UNL d   1      21.080  -5.065  -3.519  0.00  0.00     0.210 C 
ENDBRANCH  24  27
ENDBRANCH  14  19
BRANCH   1  29
ATOM     29  O   UNL d   1      27.333 -15.327  -5.514  0.00  0.00    -0.304 OA
BRANCH  29  30
ATOM     30  C   UNL d   1      28.527 -15.574  -4.719  0.00  0.00     0.176 C 
ATOM     31  C   UNL d   1      28.193 -15.664  -3.229  0.00  0.00     0.034 C 
ENDBRANCH  29  30
ENDBRANCH   1  29
TORSDOF 5
ENDMDL
MODEL 9
REMARK VINA RESULT:    -6.483      1.973      8.841
REMARK INTER + INTRA:          -9.242
REMARK INTER:                  -7.974
REMARK INTRA:                  -1.268
REMARK CONF_INDEPENDENT:        1.492
REMARK UNBOUND:                -1.268
REMARK  5 active torsions:
REMARK  status: ('A' for Active; 'I' for Inactive)
REMARK    1  A    between atoms: C_2  and  O_3 
REMARK    2  A    between atoms: O_3  and  C_4 
REMARK       I    between atoms: C_4  and  N_6 
REMARK    3  A    between atoms: C_17  and  C_18 
REMARK    4  A    between atoms: C_21  and  O_22 
REMARK    5  A    between atoms: C_25  and  O_26 
ROOT
ATOM      1  C   UNL d   1      32.307 -17.620  -7.023  0.00  0.00     0.363 C 
ATOM      2  O   UNL d   1      32.537 -18.653  -6.403  0.00  0.00    -0.238 OA
ATOM      3  N   UNL d   1      31.794 -16.471  -6.425  0.00  0.00    -0.323 N 
ATOM      4  C   UNL d   1      30.825 -15.593  -7.096  0.00  0.00     0.133 C 
ATOM      5  C   UNL d   1      29.424 -15.749  -6.480  0.00  0.00     0.061 C 
ATOM      6  C   UNL d   1      29.504 -15.682  -4.996  0.00  0.00    -0.023 A 
ATOM      7  C   UNL d   1      30.683 -15.911  -4.317  0.00  0.00     0.010 A 
ATOM      8  S   UNL d   1      30.485 -15.731  -2.630  0.00  0.00    -0.074 SA
ATOM      9  C   UNL d   1      28.818 -15.440  -2.816  0.00  0.00     0.088 A 
ATOM     10  C   UNL d   1      28.417 -15.433  -4.131  0.00  0.00     0.073 A 
ATOM     11  C   UNL d   1      27.038 -15.213  -4.496  0.00  0.00     0.256 A 
ATOM     12  O   UNL d   1      26.610 -15.200  -5.654  0.00  0.00    -0.267 OA
ATOM     13  N   UNL d   1      26.195 -15.015  -3.469  0.00  0.00    -0.331 N 
ATOM     14  C   UNL d   1      26.564 -15.080  -2.097  0.00  0.00     0.222 A 
ATOM     15  N   UNL d   1      27.959 -15.251  -1.811  0.00  0.00    -0.358 N 
ATOM     16  C   UNL d   1      31.997 -16.214  -4.981  0.00  0.00     0.174 C 
ATOM     17  H   UNL d   1      25.221 -14.880  -3.696  0.00  0.00     0.165 HD
ATOM     18  H   UNL d   1      28.220 -15.274  -0.829  0.00  0.00     0.162 HD
ENDROOT
BRANCH  14  19
ATOM     19  C   UNL d   1      25.765 -16.158  -1.435  0.00  0.00     0.017 A 
ATOM     20  C   UNL d   1      24.427 -16.308  -1.897  0.00  0.00     0.017 A 
ATOM     21  C   UNL d   1      23.522 -17.152  -1.269  0.00  0.00     0.037 A 
ATOM     22  C   UNL d   1      23.963 -17.958  -0.232  0.00  0.00     0.070 A 
ATOM     23  C   UNL d   1      25.287 -17.842   0.215  0.00  0.00     0.074 A 
ATOM     24  C   UNL d   1      26.205 -16.953  -0.376  0.00  0.00     0.081 A 
BRANCH  22  25
ATOM     25  O   UNL d   1      23.023 -18.828   0.246  0.00  0.00    -0.356 OA
ATOM     26  C   UNL d   1      21.823 -18.930  -0.509  0.00  0.00     0.210 C 
ENDBRANCH  22  25
BRANCH  24  27
ATOM     27  O   UNL d   1      27.453 -17.004   0.196  0.00  0.00    -0.355 OA
ATOM     28  C   UNL d   1      28.455 -17.825  -0.386  0.00  0.00     0.210 C 
ENDBRANCH  24  27
ENDBRANCH  14  19
BRANCH   1  29
ATOM     29  O   UNL d   1      32.619 -17.463  -8.355  0.00  0.00    -0.304 OA
BRANCH  29  30
ATOM     30  C   UNL d   1      32.665 -18.684  -9.145  0.00  0.00     0.176 C 
ATOM     31  C   UNL d   1      31.295 -19.365  -9.195  0.00  0.00     0.034 C 
ENDBRANCH  29  30
ENDBRANCH   1  29
TORSDOF 5
ENDMDL
