MODEL 1
REMARK VINA RESULT:    -7.664      0.000      0.000
REMARK INTER + INTRA:         -11.216
REMARK INTER:                 -10.050
REMARK INTRA:                  -1.166
REMARK CONF_INDEPENDENT:        2.386
REMARK UNBOUND:                -1.166
REMARK  8 active torsions:
REMARK  status: ('A' for Active; 'I' for Inactive)
REMARK    1  A    between atoms: O_2  and  C_3 
REMARK    2  A    between atoms: C_6  and  C_7 
REMARK    3  A    between atoms: C_8  and  C_9 
REMARK       I    between atoms: C_9  and  N_11 
REMARK    4  A    between atoms: N_11  and  N_12 
REMARK       I    between atoms: N_12  and  C_13 
REMARK       I    between atoms: C_13  and  N_15 
REMARK    5  A    between atoms: N_15  and  C_16 
REMARK    6  A    between atoms: C_16  and  C_17 
REMARK    7  A    between atoms: C_17  and  C_18 
REMARK    8  A    between atoms: C_22  and  O_23 
ROOT
ATOM      1  C   UNL d   1      25.283 -17.242  -0.792  0.00  0.00     0.259 C 
ATOM      2  O   UNL d   1      25.845 -17.895   0.095  0.00  0.00    -0.267 OA
ATOM      3  N   UNL d   1      23.902 -17.218  -0.945  0.00  0.00    -0.263 N 
ATOM      4  H   UNL d   1      23.410 -16.686  -1.662  0.00  0.00     0.190 HD
ENDROOT
BRANCH   1   5
ATOM      5  C   UNL d   1      26.066 -16.411  -1.777  0.00  0.00     0.076 C 
ATOM      6  C   UNL d   1      25.515 -15.430  -2.534  0.00  0.00     0.017 C 
BRANCH   6   7
ATOM      7  C   UNL d   1      26.213 -14.612  -3.574  0.00  0.00    -0.033 A 
ATOM      8  C   UNL d   1      26.156 -13.212  -3.581  0.00  0.00     0.014 A 
ATOM      9  C   UNL d   1      26.702 -12.461  -4.653  0.00  0.00     0.040 A 
ATOM     10  C   UNL d   1      27.393 -13.066  -5.724  0.00  0.00     0.101 A 
ATOM     11  C   UNL d   1      27.531 -14.464  -5.674  0.00  0.00     0.102 A 
ATOM     12  C   UNL d   1      26.930 -15.197  -4.620  0.00  0.00     0.051 A 
BRANCH  10  13
ATOM     13  O   UNL d   1      28.040 -12.160  -6.537  0.00  0.00    -0.353 OA
ATOM     14  C   UNL d   1      27.989 -12.284  -7.960  0.00  0.00     0.210 C 
ENDBRANCH  10  13
BRANCH  11  15
ATOM     15  O   UNL d   1      28.229 -15.342  -6.468  0.00  0.00    -0.353 OA
ATOM     16  C   UNL d   1      29.530 -15.647  -6.053  0.00  0.00     0.210 C 
ENDBRANCH  11  15
ENDBRANCH   6   7
ENDBRANCH   1   5
BRANCH   3  17
ATOM     17  N   UNL d   1      23.060 -17.979  -0.059  0.00  0.00    -0.249 N 
ATOM     18  C   UNL d   1      22.088 -18.821  -0.578  0.00  0.00     0.334 C 
ATOM     19  O   UNL d   1      21.916 -18.953  -1.793  0.00  0.00    -0.246 OA
ATOM     20  N   UNL d   1      21.326 -19.490   0.365  0.00  0.00    -0.342 N 
ATOM     21  H   UNL d   1      21.535 -19.390   1.348  0.00  0.00     0.164 HD
ATOM     22  H   UNL d   1      23.233 -17.857   0.934  0.00  0.00     0.192 HD
BRANCH  20  23
ATOM     23  C   UNL d   1      20.284 -20.435  -0.042  0.00  0.00     0.125 C 
BRANCH  23  24
ATOM     24  C   UNL d   1      18.839 -19.954   0.194  0.00  0.00     0.023 C 
BRANCH  24  25
ATOM     25  C   UNL d   1      18.224 -20.482   1.516  0.00  0.00    -0.021 C 
ATOM     26  C   UNL d   1      17.679 -21.904   1.363  0.00  0.00     0.009 C 
ATOM     27  C   UNL d   1      19.261 -20.469   2.645  0.00  0.00     0.009 C 
ENDBRANCH  24  25
ENDBRANCH  23  24
ENDBRANCH  20  23
ENDBRANCH   3  17
TORSDOF 8
ENDMDL
MODEL 2
REMARK VINA RESULT:    -7.136      1.411      2.385
REMARK INTER + INTRA:         -11.091
REMARK INTER:                  -9.522
REMARK INTRA:                  -1.569
REMARK CONF_INDEPENDENT:        2.386
REMARK UNBOUND:                -1.569
REMARK  8 active torsions:
REMARK  status: ('A' for Active; 'I' for Inactive)
REMARK    1  A    between atoms: O_2  and  C_3 
REMARK    2  A    between atoms: C_6  and  C_7 
REMARK    3  A    between atoms: C_8  and  C_9 
REMARK       I    between atoms: C_9  and  N_11 
REMARK    4  A    between atoms: N_11  and  N_12 
REMARK       I    between atoms: N_12  and  C_13 
REMARK       I    between atoms: C_13  and  N_15 
REMARK    5  A    between atoms: N_15  and  C_16 
REMARK    6  A    between atoms: C_16  and  C_17 
REMARK    7  A    between atoms: C_17  and  C_18 
REMARK    8  A    between atoms: C_22  and  O_23 
ROOT
ATOM      1  C   UNL d   1      25.195 -16.990  -1.121  0.00  0.00     0.259 C 
ATOM      2  O   UNL d   1      25.963 -17.759  -0.533  0.00  0.00    -0.267 OA
ATOM      3  N   UNL d   1      23.823 -17.201  -1.183  0.00  0.00    -0.263 N 
ATOM      4  H   UNL d   1      23.165 -16.583  -1.656  0.00  0.00     0.190 HD
ENDROOT
BRANCH   1   5
ATOM      5  C   UNL d   1      25.699 -15.749  -1.816  0.00  0.00     0.076 C 
ATOM      6  C   UNL d   1      25.430 -15.455  -3.112  0.00  0.00     0.017 C 
BRANCH   6   7
ATOM      7  C   UNL d   1      25.946 -14.281  -3.883  0.00  0.00    -0.033 A 
ATOM      8  C   UNL d   1      26.786 -14.432  -4.994  0.00  0.00     0.014 A 
ATOM      9  C   UNL d   1      27.379 -13.309  -5.624  0.00  0.00     0.040 A 
ATOM     10  C   UNL d   1      27.102 -11.985  -5.222  0.00  0.00     0.101 A 
ATOM     11  C   UNL d   1      26.188 -11.826  -4.166  0.00  0.00     0.102 A 
ATOM     12  C   UNL d   1      25.650 -12.966  -3.518  0.00  0.00     0.051 A 
BRANCH  10  13
ATOM     13  O   UNL d   1      27.590 -11.037  -6.095  0.00  0.00    -0.353 OA
ATOM     14  C   UNL d   1      28.755 -10.273  -5.774  0.00  0.00     0.210 C 
ENDBRANCH  10  13
BRANCH  11  15
ATOM     15  O   UNL d   1      25.615 -10.705  -3.615  0.00  0.00    -0.353 OA
ATOM     16  C   UNL d   1      25.494  -9.596  -4.459  0.00  0.00     0.210 C 
ENDBRANCH  11  15
ENDBRANCH   6   7
ENDBRANCH   1   5
BRANCH   3  17
ATOM     17  N   UNL d   1      23.238 -18.358  -0.556  0.00  0.00    -0.249 N 
ATOM     18  C   UNL d   1      21.874 -18.584  -0.651  0.00  0.00     0.334 C 
ATOM     19  O   UNL d   1      21.124 -17.823  -1.270  0.00  0.00    -0.246 OA
ATOM     20  N   UNL d   1      21.419 -19.716   0.005  0.00  0.00    -0.342 N 
ATOM     21  H   UNL d   1      22.074 -20.337   0.456  0.00  0.00     0.164 HD
ATOM     22  H   UNL d   1      23.882 -18.971  -0.064  0.00  0.00     0.192 HD
BRANCH  20  23
ATOM     23  C   UNL d   1      20.004 -20.093  -0.038  0.00  0.00     0.125 C 
BRANCH  23  24
ATOM     24  C   UNL d   1      19.094 -19.326   0.941  0.00  0.00     0.023 C 
BRANCH  24  25
ATOM     25  C   UNL d   1      18.547 -20.212   2.091  0.00  0.00    -0.021 C 
ATOM     26  C   UNL d   1      18.045 -21.563   1.580  0.00  0.00     0.009 C 
ATOM     27  C   UNL d   1      19.623 -20.454   3.155  0.00  0.00     0.009 C 
ENDBRANCH  24  25
ENDBRANCH  23  24
ENDBRANCH  20  23
ENDBRANCH   3  17
TORSDOF 8
ENDMDL
MODEL 3
REMARK VINA RESULT:    -6.973      1.947      2.437
REMARK INTER + INTRA:         -10.911
REMARK INTER:                  -9.359
REMARK INTRA:                  -1.552
REMARK CONF_INDEPENDENT:        2.386
REMARK UNBOUND:                -1.552
REMARK  8 active torsions:
REMARK  status: ('A' for Active; 'I' for Inactive)
REMARK    1  A    between atoms: O_2  and  C_3 
REMARK    2  A    between atoms: C_6  and  C_7 
REMARK    3  A    between atoms: C_8  and  C_9 
REMARK       I    between atoms: C_9  and  N_11 
REMARK    4  A    between atoms: N_11  and  N_12 
REMARK       I    between atoms: N_12  and  C_13 
REMARK       I    between atoms: C_13  and  N_15 
REMARK    5  A    between atoms: N_15  and  C_16 
REMARK    6  A    between atoms: C_16  and  C_17 
REMARK    7  A    between atoms: C_17  and  C_18 
REMARK    8  A    between atoms: C_22  and  O_23 
ROOT
ATOM      1  C   UNL d   1      25.295 -16.851  -0.795  0.00  0.00     0.259 C 
ATOM      2  O   UNL d   1      26.076 -17.771  -0.529  0.00  0.00    -0.267 OA
ATOM      3  N   UNL d   1      23.914 -16.996  -0.733  0.00  0.00    -0.263 N 
ATOM      4  H   UNL d   1      23.246 -16.256  -0.942  0.00  0.00     0.190 HD
ENDROOT
BRANCH   1   5
ATOM      5  C   UNL d   1      25.792 -15.487  -1.205  0.00  0.00     0.076 C 
ATOM      6  C   UNL d   1      25.453 -14.886  -2.372  0.00  0.00     0.017 C 
BRANCH   6   7
ATOM      7  C   UNL d   1      25.956 -13.569  -2.873  0.00  0.00    -0.033 A 
ATOM      8  C   UNL d   1      26.789 -12.748  -2.103  0.00  0.00     0.014 A 
ATOM      9  C   UNL d   1      27.139 -11.443  -2.535  0.00  0.00     0.040 A 
ATOM     10  C   UNL d   1      26.735 -10.930  -3.786  0.00  0.00     0.101 A 
ATOM     11  C   UNL d   1      25.975 -11.785  -4.602  0.00  0.00     0.102 A 
ATOM     12  C   UNL d   1      25.594 -13.065  -4.124  0.00  0.00     0.051 A 
BRANCH  10  13
ATOM     13  O   UNL d   1      27.361  -9.747  -4.117  0.00  0.00    -0.353 OA
ATOM     14  C   UNL d   1      26.668  -8.500  -4.025  0.00  0.00     0.210 C 
ENDBRANCH  10  13
BRANCH  11  15
ATOM     15  O   UNL d   1      25.528 -11.656  -5.895  0.00  0.00    -0.353 OA
ATOM     16  C   UNL d   1      26.312 -10.866  -6.741  0.00  0.00     0.210 C 
ENDBRANCH  11  15
ENDBRANCH   6   7
ENDBRANCH   1   5
BRANCH   3  17
ATOM     17  N   UNL d   1      23.334 -18.259  -0.356  0.00  0.00    -0.249 N 
ATOM     18  C   UNL d   1      21.972 -18.468  -0.499  0.00  0.00     0.334 C 
ATOM     19  O   UNL d   1      21.220 -17.600  -0.954  0.00  0.00    -0.246 OA
ATOM     20  N   UNL d   1      21.521 -19.711  -0.088  0.00  0.00    -0.342 N 
ATOM     21  H   UNL d   1      22.179 -20.408   0.230  0.00  0.00     0.164 HD
ATOM     22  H   UNL d   1      23.980 -18.956   0.004  0.00  0.00     0.192 HD
BRANCH  20  23
ATOM     23  C   UNL d   1      20.108 -20.079  -0.212  0.00  0.00     0.125 C 
BRANCH  23  24
ATOM     24  C   UNL d   1      19.154 -19.325   0.734  0.00  0.00     0.023 C 
BRANCH  24  25
ATOM     25  C   UNL d   1      18.557 -20.225   1.848  0.00  0.00    -0.021 C 
ATOM     26  C   UNL d   1      18.113 -21.585   1.305  0.00  0.00     0.009 C 
ATOM     27  C   UNL d   1      19.573 -20.450   2.973  0.00  0.00     0.009 C 
ENDBRANCH  24  25
ENDBRANCH  23  24
ENDBRANCH  20  23
ENDBRANCH   3  17
TORSDOF 8
ENDMDL
MODEL 4
REMARK VINA RESULT:    -6.946      7.298      9.239
REMARK INTER + INTRA:         -10.238
REMARK INTER:                  -9.333
REMARK INTRA:                  -0.906
REMARK CONF_INDEPENDENT:        2.386
REMARK UNBOUND:                -0.906
REMARK  8 active torsions:
REMARK  status: ('A' for Active; 'I' for Inactive)
REMARK    1  A    between atoms: O_2  and  C_3 
REMARK    2  A    between atoms: C_6  and  C_7 
REMARK    3  A    between atoms: C_8  and  C_9 
REMARK       I    between atoms: C_9  and  N_11 
REMARK    4  A    between atoms: N_11  and  N_12 
REMARK       I    between atoms: N_12  and  C_13 
REMARK       I    between atoms: C_13  and  N_15 
REMARK    5  A    between atoms: N_15  and  C_16 
REMARK    6  A    between atoms: C_16  and  C_17 
REMARK    7  A    between atoms: C_17  and  C_18 
REMARK    8  A    between atoms: C_22  and  O_23 
ROOT
ATOM      1  C   UNL d   1      28.296 -13.550   3.471  0.00  0.00     0.259 C 
ATOM      2  O   UNL d   1      28.046 -12.583   4.198  0.00  0.00    -0.267 OA
ATOM      3  N   UNL d   1      29.329 -14.442   3.737  0.00  0.00    -0.263 N 
ATOM      4  H   UNL d   1      29.556 -15.250   3.159  0.00  0.00     0.190 HD
ENDROOT
BRANCH   1   5
ATOM      5  C   UNL d   1      27.485 -13.837   2.232  0.00  0.00     0.076 C 
ATOM      6  C   UNL d   1      28.005 -14.390   1.108  0.00  0.00     0.017 C 
BRANCH   6   7
ATOM      7  C   UNL d   1      27.279 -14.643  -0.176  0.00  0.00    -0.033 A 
ATOM      8  C   UNL d   1      27.201 -13.679  -1.188  0.00  0.00     0.014 A 
ATOM      9  C   UNL d   1      26.392 -13.883  -2.335  0.00  0.00     0.040 A 
ATOM     10  C   UNL d   1      25.687 -15.084  -2.557  0.00  0.00     0.101 A 
ATOM     11  C   UNL d   1      25.835 -16.090  -1.587  0.00  0.00     0.102 A 
ATOM     12  C   UNL d   1      26.608 -15.842  -0.424  0.00  0.00     0.051 A 
BRANCH  10  13
ATOM     13  O   UNL d   1      25.149 -15.176  -3.823  0.00  0.00    -0.353 OA
ATOM     14  C   UNL d   1      25.976 -15.470  -4.952  0.00  0.00     0.210 C 
ENDBRANCH  10  13
BRANCH  11  15
ATOM     15  O   UNL d   1      25.399 -17.393  -1.546  0.00  0.00    -0.353 OA
ATOM     16  C   UNL d   1      24.678 -17.765  -0.407  0.00  0.00     0.210 C 
ENDBRANCH  11  15
ENDBRANCH   6   7
ENDBRANCH   1   5
BRANCH   3  17
ATOM     17  N   UNL d   1      30.167 -14.258   4.893  0.00  0.00    -0.249 N 
ATOM     18  C   UNL d   1      29.617 -14.306   6.164  0.00  0.00     0.334 C 
ATOM     19  O   UNL d   1      28.414 -14.513   6.350  0.00  0.00    -0.246 OA
ATOM     20  N   UNL d   1      30.512 -14.098   7.200  0.00  0.00    -0.342 N 
ATOM     21  H   UNL d   1      31.495 -13.983   7.003  0.00  0.00     0.164 HD
ATOM     22  H   UNL d   1      31.153 -14.101   4.707  0.00  0.00     0.192 HD
BRANCH  20  23
ATOM     23  C   UNL d   1      30.073 -14.153   8.597  0.00  0.00     0.125 C 
BRANCH  23  24
ATOM     24  C   UNL d   1      28.825 -13.310   8.921  0.00  0.00     0.023 C 
BRANCH  24  25
ATOM     25  C   UNL d   1      28.097 -13.765  10.213  0.00  0.00    -0.021 C 
ATOM     26  C   UNL d   1      28.896 -14.824  10.975  0.00  0.00     0.009 C 
ATOM     27  C   UNL d   1      27.840 -12.575  11.145  0.00  0.00     0.009 C 
ENDBRANCH  24  25
ENDBRANCH  23  24
ENDBRANCH  20  23
ENDBRANCH   3  17
TORSDOF 8
ENDMDL
MODEL 5
REMARK VINA RESULT:    -6.626      1.432      1.836
REMARK INTER + INTRA:         -10.503
REMARK INTER:                  -9.012
REMARK INTRA:                  -1.490
REMARK CONF_INDEPENDENT:        2.386
REMARK UNBOUND:                -1.490
REMARK  8 active torsions:
REMARK  status: ('A' for Active; 'I' for Inactive)
REMARK    1  A    between atoms: O_2  and  C_3 
REMARK    2  A    between atoms: C_6  and  C_7 
REMARK    3  A    between atoms: C_8  and  C_9 
REMARK       I    between atoms: C_9  and  N_11 
REMARK    4  A    between atoms: N_11  and  N_12 
REMARK       I    between atoms: N_12  and  C_13 
REMARK       I    between atoms: C_13  and  N_15 
REMARK    5  A    between atoms: N_15  and  C_16 
REMARK    6  A    between atoms: C_16  and  C_17 
REMARK    7  A    between atoms: C_17  and  C_18 
REMARK    8  A    between atoms: C_22  and  O_23 
ROOT
ATOM      1  C   UNL d   1      25.501 -16.069  -1.334  0.00  0.00     0.259 C 
ATOM      2  O   UNL d   1      25.345 -15.275  -0.399  0.00  0.00    -0.267 OA
ATOM      3  N   UNL d   1      24.674 -17.168  -1.531  0.00  0.00    -0.263 N 
ATOM      4  H   UNL d   1      24.775 -17.836  -2.294  0.00  0.00     0.190 HD
ENDROOT
BRANCH   1   5
ATOM      5  C   UNL d   1      26.609 -15.892  -2.342  0.00  0.00     0.076 C 
ATOM      6  C   UNL d   1      26.530 -15.049  -3.401  0.00  0.00     0.017 C 
BRANCH   6   7
ATOM      7  C   UNL d   1      27.558 -14.871  -4.473  0.00  0.00    -0.033 A 
ATOM      8  C   UNL d   1      27.575 -13.745  -5.308  0.00  0.00     0.014 A 
ATOM      9  C   UNL d   1      28.466 -13.660  -6.408  0.00  0.00     0.040 A 
ATOM     10  C   UNL d   1      29.427 -14.657  -6.679  0.00  0.00     0.101 A 
ATOM     11  C   UNL d   1      29.474 -15.745  -5.790  0.00  0.00     0.102 A 
ATOM     12  C   UNL d   1      28.538 -15.832  -4.729  0.00  0.00     0.051 A 
BRANCH  10  13
ATOM     13  O   UNL d   1      30.340 -14.286  -7.643  0.00  0.00    -0.353 OA
ATOM     14  C   UNL d   1      30.609 -12.908  -7.907  0.00  0.00     0.210 C 
ENDBRANCH  10  13
BRANCH  11  15
ATOM     15  O   UNL d   1      30.342 -16.806  -5.689  0.00  0.00    -0.353 OA
ATOM     16  C   UNL d   1      31.326 -16.893  -6.679  0.00  0.00     0.210 C 
ENDBRANCH  11  15
ENDBRANCH   6   7
ENDBRANCH   1   5
BRANCH   3  17
ATOM     17  N   UNL d   1      23.587 -17.431  -0.624  0.00  0.00    -0.249 N 
ATOM     18  C   UNL d   1      22.721 -18.486  -0.865  0.00  0.00     0.334 C 
ATOM     19  O   UNL d   1      22.850 -19.230  -1.842  0.00  0.00    -0.246 OA
ATOM     20  N   UNL d   1      21.703 -18.634   0.062  0.00  0.00    -0.342 N 
ATOM     21  H   UNL d   1      21.666 -18.034   0.873  0.00  0.00     0.164 HD
ATOM     22  H   UNL d   1      23.515 -16.809   0.176  0.00  0.00     0.192 HD
BRANCH  20  23
ATOM     23  C   UNL d   1      20.733 -19.726  -0.053  0.00  0.00     0.125 C 
BRANCH  23  24
ATOM     24  C   UNL d   1      19.276 -19.340   0.265  0.00  0.00     0.023 C 
BRANCH  24  25
ATOM     25  C   UNL d   1      18.685 -20.114   1.472  0.00  0.00    -0.021 C 
ATOM     26  C   UNL d   1      18.093 -21.461   1.051  0.00  0.00     0.009 C 
ATOM     27  C   UNL d   1      19.755 -20.358   2.543  0.00  0.00     0.009 C 
ENDBRANCH  24  25
ENDBRANCH  23  24
ENDBRANCH  20  23
ENDBRANCH   3  17
TORSDOF 8
ENDMDL
MODEL 6
REMARK VINA RESULT:    -6.513      2.125      3.145
REMARK INTER + INTRA:         -10.274
REMARK INTER:                  -8.900
REMARK INTRA:                  -1.374
REMARK CONF_INDEPENDENT:        2.386
REMARK UNBOUND:                -1.374
REMARK  8 active torsions:
REMARK  status: ('A' for Active; 'I' for Inactive)
REMARK    1  A    between atoms: O_2  and  C_3 
REMARK    2  A    between atoms: C_6  and  C_7 
REMARK    3  A    between atoms: C_8  and  C_9 
REMARK       I    between atoms: C_9  and  N_11 
REMARK    4  A    between atoms: N_11  and  N_12 
REMARK       I    between atoms: N_12  and  C_13 
REMARK       I    between atoms: C_13  and  N_15 
REMARK    5  A    between atoms: N_15  and  C_16 
REMARK    6  A    between atoms: C_16  and  C_17 
REMARK    7  A    between atoms: C_17  and  C_18 
REMARK    8  A    between atoms: C_22  and  O_23 
ROOT
ATOM      1  C   UNL d   1      25.214 -15.150  -3.122  0.00  0.00     0.259 C 
ATOM      2  O   UNL d   1      24.303 -14.377  -3.437  0.00  0.00    -0.267 OA
ATOM      3  N   UNL d   1      25.035 -16.195  -2.223  0.00  0.00    -0.263 N 
ATOM      4  H   UNL d   1      25.766 -16.850  -1.948  0.00  0.00     0.190 HD
ENDROOT
BRANCH   1   5
ATOM      5  C   UNL d   1      26.599 -15.017  -3.704  0.00  0.00     0.076 C 
ATOM      6  C   UNL d   1      26.847 -14.938  -5.035  0.00  0.00     0.017 C 
BRANCH   6   7
ATOM      7  C   UNL d   1      28.193 -14.870  -5.686  0.00  0.00    -0.033 A 
ATOM      8  C   UNL d   1      28.549 -13.827  -6.552  0.00  0.00     0.014 A 
ATOM      9  C   UNL d   1      29.772 -13.853  -7.269  0.00  0.00     0.040 A 
ATOM     10  C   UNL d   1      30.724 -14.880  -7.099  0.00  0.00     0.101 A 
ATOM     11  C   UNL d   1      30.410 -15.881  -6.163  0.00  0.00     0.102 A 
ATOM     12  C   UNL d   1      29.159 -15.860  -5.498  0.00  0.00     0.051 A 
BRANCH  10  13
ATOM     13  O   UNL d   1      31.932 -14.610  -7.705  0.00  0.00    -0.353 OA
ATOM     14  C   UNL d   1      32.565 -13.338  -7.544  0.00  0.00     0.210 C 
ENDBRANCH  10  13
BRANCH  11  15
ATOM     15  O   UNL d   1      31.142 -16.936  -5.673  0.00  0.00    -0.353 OA
ATOM     16  C   UNL d   1      30.407 -18.021  -5.185  0.00  0.00     0.210 C 
ENDBRANCH  11  15
ENDBRANCH   6   7
ENDBRANCH   1   5
BRANCH   3  17
ATOM     17  N   UNL d   1      23.752 -16.409  -1.606  0.00  0.00    -0.249 N 
ATOM     18  C   UNL d   1      23.465 -17.626  -1.008  0.00  0.00     0.334 C 
ATOM     19  O   UNL d   1      24.283 -18.550  -0.974  0.00  0.00    -0.246 OA
ATOM     20  N   UNL d   1      22.195 -17.727  -0.462  0.00  0.00    -0.342 N 
ATOM     21  H   UNL d   1      21.577 -16.929  -0.468  0.00  0.00     0.164 HD
ATOM     22  H   UNL d   1      23.105 -15.627  -1.640  0.00  0.00     0.192 HD
BRANCH  20  23
ATOM     23  C   UNL d   1      21.768 -18.946   0.229  0.00  0.00     0.125 C 
BRANCH  23  24
ATOM     24  C   UNL d   1      20.288 -19.326   0.025  0.00  0.00     0.023 C 
BRANCH  24  25
ATOM     25  C   UNL d   1      19.817 -20.476   0.952  0.00  0.00    -0.021 C 
ATOM     26  C   UNL d   1      19.865 -20.074   2.428  0.00  0.00     0.009 C 
ATOM     27  C   UNL d   1      18.388 -20.910   0.605  0.00  0.00     0.009 C 
ENDBRANCH  24  25
ENDBRANCH  23  24
ENDBRANCH  20  23
ENDBRANCH   3  17
TORSDOF 8
ENDMDL
MODEL 7
REMARK VINA RESULT:    -6.442      2.002      3.164
REMARK INTER + INTRA:         -10.192
REMARK INTER:                  -8.828
REMARK INTRA:                  -1.364
REMARK CONF_INDEPENDENT:        2.386
REMARK UNBOUND:                -1.364
REMARK  8 active torsions:
REMARK  status: ('A' for Active; 'I' for Inactive)
REMARK    1  A    between atoms: O_2  and  C_3 
REMARK    2  A    between atoms: C_6  and  C_7 
REMARK    3  A    between atoms: C_8  and  C_9 
REMARK       I    between atoms: C_9  and  N_11 
REMARK    4  A    between atoms: N_11  and  N_12 
REMARK       I    between atoms: N_12  and  C_13 
REMARK       I    between atoms: C_13  and  N_15 
REMARK    5  A    between atoms: N_15  and  C_16 
REMARK    6  A    between atoms: C_16  and  C_17 
REMARK    7  A    between atoms: C_17  and  C_18 
REMARK    8  A    between atoms: C_22  and  O_23 
ROOT
ATOM      1  C   UNL d   1      25.200 -15.288  -2.879  0.00  0.00     0.259 C 
ATOM      2  O   UNL d   1      24.329 -14.450  -3.139  0.00  0.00    -0.267 OA
ATOM      3  N   UNL d   1      24.971 -16.373  -2.041  0.00  0.00    -0.263 N 
ATOM      4  H   UNL d   1      25.666 -17.083  -1.813  0.00  0.00     0.190 HD
ENDROOT
BRANCH   1   5
ATOM      5  C   UNL d   1      26.586 -15.195  -3.466  0.00  0.00     0.076 C 
ATOM      6  C   UNL d   1      26.834 -15.155  -4.798  0.00  0.00     0.017 C 
BRANCH   6   7
ATOM      7  C   UNL d   1      28.179 -15.128  -5.452  0.00  0.00    -0.033 A 
ATOM      8  C   UNL d   1      29.207 -16.003  -5.077  0.00  0.00     0.014 A 
ATOM      9  C   UNL d   1      30.516 -15.869  -5.607  0.00  0.00     0.040 A 
ATOM     10  C   UNL d   1      30.837 -14.906  -6.586  0.00  0.00     0.101 A 
ATOM     11  C   UNL d   1      29.787 -14.086  -7.032  0.00  0.00     0.102 A 
ATOM     12  C   UNL d   1      28.500 -14.205  -6.449  0.00  0.00     0.051 A 
BRANCH  10  13
ATOM     13  O   UNL d   1      32.090 -15.084  -7.135  0.00  0.00    -0.353 OA
ATOM     14  C   UNL d   1      32.289 -15.972  -8.237  0.00  0.00     0.210 C 
ENDBRANCH  10  13
BRANCH  11  15
ATOM     15  O   UNL d   1      29.721 -13.149  -8.036  0.00  0.00    -0.353 OA
ATOM     16  C   UNL d   1      30.900 -12.442  -8.296  0.00  0.00     0.210 C 
ENDBRANCH  11  15
ENDBRANCH   6   7
ENDBRANCH   1   5
BRANCH   3  17
ATOM     17  N   UNL d   1      23.682 -16.555  -1.426  0.00  0.00    -0.249 N 
ATOM     18  C   UNL d   1      23.275 -17.819  -1.027  0.00  0.00     0.334 C 
ATOM     19  O   UNL d   1      23.990 -18.815  -1.174  0.00  0.00    -0.246 OA
ATOM     20  N   UNL d   1      22.011 -17.879  -0.464  0.00  0.00    -0.342 N 
ATOM     21  H   UNL d   1      21.482 -17.032  -0.317  0.00  0.00     0.164 HD
ATOM     22  H   UNL d   1      23.122 -15.716  -1.308  0.00  0.00     0.192 HD
BRANCH  20  23
ATOM     23  C   UNL d   1      21.466 -19.146   0.030  0.00  0.00     0.125 C 
BRANCH  23  24
ATOM     24  C   UNL d   1      20.008 -19.432  -0.379  0.00  0.00     0.023 C 
BRANCH  24  25
ATOM     25  C   UNL d   1      19.099 -19.813   0.819  0.00  0.00    -0.021 C 
ATOM     26  C   UNL d   1      18.410 -21.162   0.604  0.00  0.00     0.009 C 
ATOM     27  C   UNL d   1      19.905 -19.872   2.121  0.00  0.00     0.009 C 
ENDBRANCH  24  25
ENDBRANCH  23  24
ENDBRANCH  20  23
ENDBRANCH   3  17
TORSDOF 8
ENDMDL
MODEL 8
REMARK VINA RESULT:    -6.441      1.733      2.100
REMARK INTER + INTRA:         -10.307
REMARK INTER:                  -8.827
REMARK INTRA:                  -1.479
REMARK CONF_INDEPENDENT:        2.386
REMARK UNBOUND:                -1.479
REMARK  8 active torsions:
REMARK  status: ('A' for Active; 'I' for Inactive)
REMARK    1  A    between atoms: O_2  and  C_3 
REMARK    2  A    between atoms: C_6  and  C_7 
REMARK    3  A    between atoms: C_8  and  C_9 
REMARK       I    between atoms: C_9  and  N_11 
REMARK    4  A    between atoms: N_11  and  N_12 
REMARK       I    between atoms: N_12  and  C_13 
REMARK       I    between atoms: C_13  and  N_15 
REMARK    5  A    between atoms: N_15  and  C_16 
REMARK    6  A    between atoms: C_16  and  C_17 
REMARK    7  A    between atoms: C_17  and  C_18 
REMARK    8  A    between atoms: C_22  and  O_23 
ROOT
ATOM      1  C   UNL d   1      25.681 -17.831   0.019  0.00  0.00     0.259 C 
ATOM      2  O   UNL d   1      25.981 -18.536   0.989  0.00  0.00    -0.267 OA
ATOM      3  N   UNL d   1      24.394 -17.778  -0.502  0.00  0.00    -0.263 N 
ATOM      4  H   UNL d   1      24.116 -17.203  -1.297  0.00  0.00     0.190 HD
ENDROOT
BRANCH   1   5
ATOM      5  C   UNL d   1      26.703 -16.963  -0.671  0.00  0.00     0.076 C 
ATOM      6  C   UNL d   1      26.683 -16.693  -2.000  0.00  0.00     0.017 C 
BRANCH   6   7
ATOM      7  C   UNL d   1      27.695 -15.898  -2.762  0.00  0.00    -0.033 A 
ATOM      8  C   UNL d   1      28.857 -15.400  -2.160  0.00  0.00     0.014 A 
ATOM      9  C   UNL d   1      29.732 -14.530  -2.859  0.00  0.00     0.040 A 
ATOM     10  C   UNL d   1      29.526 -14.180  -4.210  0.00  0.00     0.101 A 
ATOM     11  C   UNL d   1      28.410 -14.751  -4.846  0.00  0.00     0.102 A 
ATOM     12  C   UNL d   1      27.522 -15.575  -4.110  0.00  0.00     0.051 A 
BRANCH  10  13
ATOM     13  O   UNL d   1      30.597 -13.518  -4.771  0.00  0.00    -0.353 OA
ATOM     14  C   UNL d   1      30.631 -12.090  -4.826  0.00  0.00     0.210 C 
ENDBRANCH  10  13
BRANCH  11  15
ATOM     15  O   UNL d   1      27.989 -14.722  -6.154  0.00  0.00    -0.353 OA
ATOM     16  C   UNL d   1      28.892 -14.190  -7.080  0.00  0.00     0.210 C 
ENDBRANCH  11  15
ENDBRANCH   6   7
ENDBRANCH   1   5
BRANCH   3  17
ATOM     17  N   UNL d   1      23.342 -18.571   0.081  0.00  0.00    -0.249 N 
ATOM     18  C   UNL d   1      22.026 -18.369  -0.305  0.00  0.00     0.334 C 
ATOM     19  O   UNL d   1      21.712 -17.525  -1.150  0.00  0.00    -0.246 OA
ATOM     20  N   UNL d   1      21.098 -19.174   0.333  0.00  0.00    -0.342 N 
ATOM     21  H   UNL d   1      21.404 -19.886   0.981  0.00  0.00     0.164 HD
ATOM     22  H   UNL d   1      23.634 -19.264   0.764  0.00  0.00     0.192 HD
BRANCH  20  23
ATOM     23  C   UNL d   1      19.673 -19.090   0.001  0.00  0.00     0.125 C 
BRANCH  23  24
ATOM     24  C   UNL d   1      18.963 -20.446  -0.176  0.00  0.00     0.023 C 
BRANCH  24  25
ATOM     25  C   UNL d   1      18.754 -21.207   1.159  0.00  0.00    -0.021 C 
ATOM     26  C   UNL d   1      19.218 -20.385   2.363  0.00  0.00     0.009 C 
ATOM     27  C   UNL d   1      17.280 -21.579   1.353  0.00  0.00     0.009 C 
ENDBRANCH  24  25
ENDBRANCH  23  24
ENDBRANCH  20  23
ENDBRANCH   3  17
TORSDOF 8
ENDMDL
MODEL 9
REMARK VINA RESULT:    -6.412      1.340      2.424
REMARK INTER + INTRA:         -10.285
REMARK INTER:                  -8.798
REMARK INTRA:                  -1.487
REMARK CONF_INDEPENDENT:        2.386
REMARK UNBOUND:                -1.487
REMARK  8 active torsions:
REMARK  status: ('A' for Active; 'I' for Inactive)
REMARK    1  A    between atoms: O_2  and  C_3 
REMARK    2  A    between atoms: C_6  and  C_7 
REMARK    3  A    between atoms: C_8  and  C_9 
REMARK       I    between atoms: C_9  and  N_11 
REMARK    4  A    between atoms: N_11  and  N_12 
REMARK       I    between atoms: N_12  and  C_13 
REMARK       I    between atoms: C_13  and  N_15 
REMARK    5  A    between atoms: N_15  and  C_16 
REMARK    6  A    between atoms: C_16  and  C_17 
REMARK    7  A    between atoms: C_17  and  C_18 
REMARK    8  A    between atoms: C_22  and  O_23 
ROOT
ATOM      1  C   UNL d   1      25.583 -16.219  -1.363  0.00  0.00     0.259 C 
ATOM      2  O   UNL d   1      25.405 -15.304  -0.552  0.00  0.00    -0.267 OA
ATOM      3  N   UNL d   1      24.776 -17.350  -1.409  0.00  0.00    -0.263 N 
ATOM      4  H   UNL d   1      24.896 -18.117  -2.069  0.00  0.00     0.190 HD
ENDROOT
BRANCH   1   5
ATOM      5  C   UNL d   1      26.699 -16.169  -2.376  0.00  0.00     0.076 C 
ATOM      6  C   UNL d   1      26.773 -15.242  -3.364  0.00  0.00     0.017 C 
BRANCH   6   7
ATOM      7  C   UNL d   1      27.810 -15.170  -4.440  0.00  0.00    -0.033 A 
ATOM      8  C   UNL d   1      28.982 -15.936  -4.397  0.00  0.00     0.014 A 
ATOM      9  C   UNL d   1      30.016 -15.750  -5.349  0.00  0.00     0.040 A 
ATOM     10  C   UNL d   1      29.896 -14.847  -6.426  0.00  0.00     0.101 A 
ATOM     11  C   UNL d   1      28.685 -14.141  -6.524  0.00  0.00     0.102 A 
ATOM     12  C   UNL d   1      27.687 -14.307  -5.531  0.00  0.00     0.051 A 
BRANCH  10  13
ATOM     13  O   UNL d   1      30.902 -14.976  -7.360  0.00  0.00    -0.353 OA
ATOM     14  C   UNL d   1      31.598 -16.213  -7.523  0.00  0.00     0.210 C 
ENDBRANCH  10  13
BRANCH  11  15
ATOM     15  O   UNL d   1      28.196 -13.294  -7.490  0.00  0.00    -0.353 OA
ATOM     16  C   UNL d   1      29.148 -12.552  -8.196  0.00  0.00     0.210 C 
ENDBRANCH  11  15
ENDBRANCH   6   7
ENDBRANCH   1   5
BRANCH   3  17
ATOM     17  N   UNL d   1      23.684 -17.499  -0.483  0.00  0.00    -0.249 N 
ATOM     18  C   UNL d   1      22.833 -18.588  -0.584  0.00  0.00     0.334 C 
ATOM     19  O   UNL d   1      22.980 -19.458  -1.447  0.00  0.00    -0.246 OA
ATOM     20  N   UNL d   1      21.807 -18.621   0.347  0.00  0.00    -0.342 N 
ATOM     21  H   UNL d   1      21.755 -17.915   1.067  0.00  0.00     0.164 HD
ATOM     22  H   UNL d   1      23.596 -16.774   0.223  0.00  0.00     0.192 HD
BRANCH  20  23
ATOM     23  C   UNL d   1      20.852 -19.731   0.376  0.00  0.00     0.125 C 
BRANCH  23  24
ATOM     24  C   UNL d   1      19.388 -19.325   0.636  0.00  0.00     0.023 C 
BRANCH  24  25
ATOM     25  C   UNL d   1      18.707 -20.163   1.748  0.00  0.00    -0.021 C 
ATOM     26  C   UNL d   1      18.177 -21.495   1.215  0.00  0.00     0.009 C 
ATOM     27  C   UNL d   1      19.683 -20.444   2.897  0.00  0.00     0.009 C 
ENDBRANCH  24  25
ENDBRANCH  23  24
ENDBRANCH  20  23
ENDBRANCH   3  17
TORSDOF 8
ENDMDL
