MODEL 1
REMARK VINA RESULT:    -9.325      0.000      0.000
REMARK INTER + INTRA:         -14.577
REMARK INTER:                 -12.606
REMARK INTRA:                  -1.971
REMARK CONF_INDEPENDENT:        3.281
REMARK UNBOUND:                -1.971
REMARK  11 active torsions:
REMARK  status: ('A' for Active; 'I' for Inactive)
REMARK    1  A    between atoms: C_2  and  C_3 
REMARK    2  A    between atoms: C_3  and  C_4 
REMARK    3  A    between atoms: C_4  and  S_5 
REMARK    4  A    between atoms: S_5  and  C_6 
REMARK    5  A    between atoms: C_11  and  N_12 
REMARK       I    between atoms: N_12  and  C_13 
REMARK    6  A    between atoms: C_13  and  C_15 
REMARK    7  A    between atoms: C_15  and  S_16 
REMARK    8  A    between atoms: S_16  and  C_17 
REMARK    9  A    between atoms: C_20  and  N_21 
REMARK   10  A    between atoms: N_21  and  N_22 
REMARK   11  A    between atoms: C_23  and  C_24 
ROOT
ATOM      1  C   UNL d   1      31.125 -13.943   1.572  0.00  0.00     0.226 C 
ATOM      2  N   UNL d   1      31.939 -13.497   2.531  0.00  0.00    -0.132 NA
ATOM      3  N   UNL d   1      31.225 -13.831   3.637  0.00  0.00    -0.103 N 
ATOM      4  C   UNL d   1      30.019 -14.409   3.327  0.00  0.00     0.739 C 
ATOM      5  N   UNL d   1      29.914 -14.407   2.019  0.00  0.00    -0.034 NA
ATOM      6  H   UNL d   1      31.648 -13.699   4.545  0.00  0.00     0.208 HD
ENDROOT
BRANCH   1   7
ATOM      7  S   UNL d   1      31.559 -14.213  -0.079  0.00  0.00    -0.079 SA
BRANCH   7   8
ATOM      8  C   UNL d   1      31.109 -15.895  -0.612  0.00  0.00     0.185 C 
BRANCH   8   9
ATOM      9  C   UNL d   1      29.581 -15.908  -0.925  0.00  0.00     0.231 C 
ATOM     10  N   UNL d   1      28.719 -16.339   0.083  0.00  0.00    -0.325 N 
ATOM     11  H   UNL d   1      28.950 -16.041   1.024  0.00  0.00     0.169 HD
ATOM     12  O   UNL d   1      29.154 -15.546  -2.030  0.00  0.00    -0.272 OA
BRANCH  10  13
ATOM     13  C   UNL d   1      27.358 -16.770  -0.132  0.00  0.00     0.051 A 
ATOM     14  C   UNL d   1      27.013 -18.064   0.340  0.00  0.00     0.031 A 
ATOM     15  C   UNL d   1      25.705 -18.575   0.233  0.00  0.00     0.002 A 
ATOM     16  C   UNL d   1      24.707 -17.806  -0.342  0.00  0.00     0.002 A 
ATOM     17  C   UNL d   1      25.038 -16.565  -0.877  0.00  0.00     0.021 A 
ATOM     18  C   UNL d   1      26.350 -16.031  -0.805  0.00  0.00     0.027 A 
BRANCH  18  19
ATOM     19  S   UNL d   1      26.429 -14.431  -1.626  0.00  0.00    -0.128 SA
BRANCH  19  20
ATOM     20  C   UNL d   1      25.021 -14.408  -2.779  0.00  0.00     0.079 C 
BRANCH  20  21
ATOM     21  C   UNL d   1      25.525 -13.991  -4.162  0.00  0.00     0.010 C 
BRANCH  21  22
ATOM     22  C   UNL d   1      26.089 -15.203  -4.909  0.00  0.00    -0.004 C 
ATOM     23  C   UNL d   1      27.507 -14.947  -5.389  0.00  0.00     0.005 C 
ENDBRANCH  21  22
ENDBRANCH  20  21
ENDBRANCH  19  20
ENDBRANCH  18  19
ENDBRANCH  10  13
ENDBRANCH   8   9
ENDBRANCH   7   8
ENDBRANCH   1   7
BRANCH   4  24
ATOM     24  N   UNL d   1      29.167 -14.921   4.262  0.00  0.00    -0.106 N 
ATOM     25  H   UNL d   1      28.704 -15.814   4.111  0.00  0.00     0.208 HD
BRANCH  24  26
ATOM     26  N   UNL d   1      28.816 -14.173   5.361  0.00  0.00    -0.172 NA
ATOM     27  C   UNL d   1      29.364 -14.449   6.502  0.00  0.00     0.150 C 
BRANCH  27  28
ATOM     28  C   UNL d   1      29.025 -13.663   7.717  0.00  0.00    -0.015 A 
ATOM     29  C   UNL d   1      28.885 -12.270   7.652  0.00  0.00     0.013 A 
ATOM     30  C   UNL d   1      28.668 -11.533   8.824  0.00  0.00     0.003 A 
ATOM     31  C   UNL d   1      28.542 -12.189  10.050  0.00  0.00     0.024 A 
ATOM     32  C   UNL d   1      28.669 -13.576  10.105  0.00  0.00     0.034 A 
ATOM     33 CL   UNL d   1      28.584 -14.373  11.629  0.00  0.00    -0.084 Cl
ATOM     34  C   UNL d   1      28.906 -14.317   8.947  0.00  0.00     0.036 A 
ENDBRANCH  27  28
ENDBRANCH  24  26
ENDBRANCH   4  24
TORSDOF 11
ENDMDL
MODEL 2
REMARK VINA RESULT:    -8.610      3.746      5.538
REMARK INTER + INTRA:         -14.557
REMARK INTER:                 -11.892
REMARK INTRA:                  -2.666
REMARK CONF_INDEPENDENT:        3.281
REMARK UNBOUND:                -2.666
REMARK  11 active torsions:
REMARK  status: ('A' for Active; 'I' for Inactive)
REMARK    1  A    between atoms: C_2  and  C_3 
REMARK    2  A    between atoms: C_3  and  C_4 
REMARK    3  A    between atoms: C_4  and  S_5 
REMARK    4  A    between atoms: S_5  and  C_6 
REMARK    5  A    between atoms: C_11  and  N_12 
REMARK       I    between atoms: N_12  and  C_13 
REMARK    6  A    between atoms: C_13  and  C_15 
REMARK    7  A    between atoms: C_15  and  S_16 
REMARK    8  A    between atoms: S_16  and  C_17 
REMARK    9  A    between atoms: C_20  and  N_21 
REMARK   10  A    between atoms: N_21  and  N_22 
REMARK   11  A    between atoms: C_23  and  C_24 
ROOT
ATOM      1  C   UNL d   1      30.697 -17.152  -2.053  0.00  0.00     0.226 C 
ATOM      2  N   UNL d   1      31.239 -18.188  -1.410  0.00  0.00    -0.132 NA
ATOM      3  N   UNL d   1      30.253 -18.472  -0.521  0.00  0.00    -0.103 N 
ATOM      4  C   UNL d   1      29.195 -17.603  -0.616  0.00  0.00     0.739 C 
ATOM      5  N   UNL d   1      29.507 -16.714  -1.529  0.00  0.00    -0.034 NA
ATOM      6  H   UNL d   1      30.343 -19.297   0.056  0.00  0.00     0.208 HD
ENDROOT
BRANCH   1   7
ATOM      7  S   UNL d   1      31.216 -16.522  -3.576  0.00  0.00    -0.079 SA
BRANCH   7   8
ATOM      8  C   UNL d   1      30.108 -17.053  -4.921  0.00  0.00     0.185 C 
BRANCH   8   9
ATOM      9  C   UNL d   1      28.948 -16.016  -5.026  0.00  0.00     0.231 C 
ATOM     10  N   UNL d   1      28.338 -15.606  -3.841  0.00  0.00    -0.325 N 
ATOM     11  H   UNL d   1      28.954 -15.465  -3.048  0.00  0.00     0.169 HD
ATOM     12  O   UNL d   1      28.587 -15.573  -6.126  0.00  0.00    -0.272 OA
BRANCH  10  13
ATOM     13  C   UNL d   1      27.045 -14.970  -3.763  0.00  0.00     0.051 A 
ATOM     14  C   UNL d   1      26.834 -13.839  -4.595  0.00  0.00     0.031 A 
ATOM     15  C   UNL d   1      25.600 -13.165  -4.643  0.00  0.00     0.002 A 
ATOM     16  C   UNL d   1      24.540 -13.605  -3.867  0.00  0.00     0.002 A 
ATOM     17  C   UNL d   1      24.745 -14.666  -2.990  0.00  0.00     0.021 A 
ATOM     18  C   UNL d   1      25.983 -15.352  -2.902  0.00  0.00     0.027 A 
BRANCH  18  19
ATOM     19  S   UNL d   1      25.907 -16.638  -1.644  0.00  0.00    -0.128 SA
BRANCH  19  20
ATOM     20  C   UNL d   1      24.141 -17.043  -1.471  0.00  0.00     0.079 C 
BRANCH  20  21
ATOM     21  C   UNL d   1      24.001 -18.231  -0.518  0.00  0.00     0.010 C 
BRANCH  21  22
ATOM     22  C   UNL d   1      22.633 -18.199   0.172  0.00  0.00    -0.004 C 
ATOM     23  C   UNL d   1      21.558 -18.817  -0.704  0.00  0.00     0.005 C 
ENDBRANCH  21  22
ENDBRANCH  20  21
ENDBRANCH  19  20
ENDBRANCH  18  19
ENDBRANCH  10  13
ENDBRANCH   8   9
ENDBRANCH   7   8
ENDBRANCH   1   7
BRANCH   4  24
ATOM     24  N   UNL d   1      28.041 -17.739   0.099  0.00  0.00    -0.106 N 
ATOM     25  H   UNL d   1      27.454 -18.563  -0.010  0.00  0.00     0.208 HD
BRANCH  24  26
ATOM     26  N   UNL d   1      27.584 -16.702   0.879  0.00  0.00    -0.172 NA
ATOM     27  C   UNL d   1      28.214 -15.571   0.842  0.00  0.00     0.150 C 
BRANCH  27  28
ATOM     28  C   UNL d   1      27.754 -14.418   1.659  0.00  0.00    -0.015 A 
ATOM     29  C   UNL d   1      27.158 -13.304   1.051  0.00  0.00     0.013 A 
ATOM     30  C   UNL d   1      26.825 -12.182   1.822  0.00  0.00     0.003 A 
ATOM     31  C   UNL d   1      27.039 -12.192   3.201  0.00  0.00     0.024 A 
ATOM     32  C   UNL d   1      27.619 -13.309   3.800  0.00  0.00     0.034 A 
ATOM     33 CL   UNL d   1      27.948 -13.287   5.490  0.00  0.00    -0.084 Cl
ATOM     34  C   UNL d   1      27.975 -14.423   3.039  0.00  0.00     0.036 A 
ENDBRANCH  27  28
ENDBRANCH  24  26
ENDBRANCH   4  24
TORSDOF 11
ENDMDL
MODEL 3
REMARK VINA RESULT:    -8.574      4.636      7.355
REMARK INTER + INTRA:         -15.501
REMARK INTER:                 -11.855
REMARK INTRA:                  -3.646
REMARK CONF_INDEPENDENT:        3.281
REMARK UNBOUND:                -3.646
REMARK  11 active torsions:
REMARK  status: ('A' for Active; 'I' for Inactive)
REMARK    1  A    between atoms: C_2  and  C_3 
REMARK    2  A    between atoms: C_3  and  C_4 
REMARK    3  A    between atoms: C_4  and  S_5 
REMARK    4  A    between atoms: S_5  and  C_6 
REMARK    5  A    between atoms: C_11  and  N_12 
REMARK       I    between atoms: N_12  and  C_13 
REMARK    6  A    between atoms: C_13  and  C_15 
REMARK    7  A    between atoms: C_15  and  S_16 
REMARK    8  A    between atoms: S_16  and  C_17 
REMARK    9  A    between atoms: C_20  and  N_21 
REMARK   10  A    between atoms: N_21  and  N_22 
REMARK   11  A    between atoms: C_23  and  C_24 
ROOT
ATOM      1  C   UNL d   1      30.917 -17.459  -2.263  0.00  0.00     0.226 C 
ATOM      2  N   UNL d   1      30.955 -18.689  -1.746  0.00  0.00    -0.132 NA
ATOM      3  N   UNL d   1      30.124 -18.537  -0.683  0.00  0.00    -0.103 N 
ATOM      4  C   UNL d   1      29.656 -17.251  -0.564  0.00  0.00     0.739 C 
ATOM      5  N   UNL d   1      30.221 -16.545  -1.515  0.00  0.00    -0.034 NA
ATOM      6  H   UNL d   1      29.877 -19.352  -0.140  0.00  0.00     0.208 HD
ENDROOT
BRANCH   1   7
ATOM      7  S   UNL d   1      31.425 -17.016  -3.854  0.00  0.00    -0.079 SA
BRANCH   7   8
ATOM      8  C   UNL d   1      30.116 -17.341  -5.078  0.00  0.00     0.185 C 
BRANCH   8   9
ATOM      9  C   UNL d   1      29.095 -16.164  -5.018  0.00  0.00     0.231 C 
ATOM     10  N   UNL d   1      28.596 -15.806  -3.766  0.00  0.00    -0.325 N 
ATOM     11  H   UNL d   1      29.259 -15.824  -2.999  0.00  0.00     0.169 HD
ATOM     12  O   UNL d   1      28.746 -15.569  -6.047  0.00  0.00    -0.272 OA
BRANCH  10  13
ATOM     13  C   UNL d   1      27.399 -15.027  -3.553  0.00  0.00     0.051 A 
ATOM     14  C   UNL d   1      26.385 -15.125  -4.542  0.00  0.00     0.031 A 
ATOM     15  C   UNL d   1      25.155 -14.451  -4.422  0.00  0.00     0.002 A 
ATOM     16  C   UNL d   1      24.902 -13.667  -3.309  0.00  0.00     0.002 A 
ATOM     17  C   UNL d   1      25.908 -13.498  -2.363  0.00  0.00     0.021 A 
ATOM     18  C   UNL d   1      27.166 -14.145  -2.466  0.00  0.00     0.027 A 
BRANCH  18  19
ATOM     19  S   UNL d   1      28.235 -13.674  -1.097  0.00  0.00    -0.128 SA
BRANCH  19  20
ATOM     20  C   UNL d   1      27.298 -12.430  -0.155  0.00  0.00     0.079 C 
BRANCH  20  21
ATOM     21  C   UNL d   1      26.586 -13.127   1.005  0.00  0.00     0.010 C 
BRANCH  21  22
ATOM     22  C   UNL d   1      27.487 -14.208   1.609  0.00  0.00    -0.004 C 
ATOM     23  C   UNL d   1      28.591 -13.599   2.456  0.00  0.00     0.005 C 
ENDBRANCH  21  22
ENDBRANCH  20  21
ENDBRANCH  19  20
ENDBRANCH  18  19
ENDBRANCH  10  13
ENDBRANCH   8   9
ENDBRANCH   7   8
ENDBRANCH   1   7
BRANCH   4  24
ATOM     24  N   UNL d   1      28.729 -16.870   0.363  0.00  0.00    -0.106 N 
ATOM     25  H   UNL d   1      28.961 -16.850   1.353  0.00  0.00     0.208 HD
BRANCH  24  26
ATOM     26  N   UNL d   1      27.428 -16.637  -0.016  0.00  0.00    -0.172 NA
ATOM     27  C   UNL d   1      26.572 -17.604   0.071  0.00  0.00     0.150 C 
BRANCH  27  28
ATOM     28  C   UNL d   1      25.152 -17.399  -0.317  0.00  0.00    -0.015 A 
ATOM     29  C   UNL d   1      24.715 -16.158  -0.803  0.00  0.00     0.013 A 
ATOM     30  C   UNL d   1      23.355 -15.950  -1.067  0.00  0.00     0.003 A 
ATOM     31  C   UNL d   1      22.441 -16.992  -0.894  0.00  0.00     0.024 A 
ATOM     32  C   UNL d   1      22.885 -18.227  -0.424  0.00  0.00     0.034 A 
ATOM     33 CL   UNL d   1      21.743 -19.485  -0.144  0.00  0.00    -0.084 Cl
ATOM     34  C   UNL d   1      24.234 -18.438  -0.138  0.00  0.00     0.036 A 
ENDBRANCH  27  28
ENDBRANCH  24  26
ENDBRANCH   4  24
TORSDOF 11
ENDMDL
MODEL 4
REMARK VINA RESULT:    -8.519      5.952      7.688
REMARK INTER + INTRA:         -14.518
REMARK INTER:                 -11.800
REMARK INTRA:                  -2.718
REMARK CONF_INDEPENDENT:        3.281
REMARK UNBOUND:                -2.718
REMARK  11 active torsions:
REMARK  status: ('A' for Active; 'I' for Inactive)
REMARK    1  A    between atoms: C_2  and  C_3 
REMARK    2  A    between atoms: C_3  and  C_4 
REMARK    3  A    between atoms: C_4  and  S_5 
REMARK    4  A    between atoms: S_5  and  C_6 
REMARK    5  A    between atoms: C_11  and  N_12 
REMARK       I    between atoms: N_12  and  C_13 
REMARK    6  A    between atoms: C_13  and  C_15 
REMARK    7  A    between atoms: C_15  and  S_16 
REMARK    8  A    between atoms: S_16  and  C_17 
REMARK    9  A    between atoms: C_20  and  N_21 
REMARK   10  A    between atoms: N_21  and  N_22 
REMARK   11  A    between atoms: C_23  and  C_24 
ROOT
ATOM      1  C   UNL d   1      30.270 -16.338  -2.049  0.00  0.00     0.226 C 
ATOM      2  N   UNL d   1      30.801 -17.470  -1.583  0.00  0.00    -0.132 NA
ATOM      3  N   UNL d   1      29.986 -17.710  -0.525  0.00  0.00    -0.103 N 
ATOM      4  C   UNL d   1      29.043 -16.727  -0.356  0.00  0.00     0.739 C 
ATOM      5  N   UNL d   1      29.271 -15.813  -1.270  0.00  0.00    -0.034 NA
ATOM      6  H   UNL d   1      30.090 -18.580  -0.020  0.00  0.00     0.208 HD
ENDROOT
BRANCH   1   7
ATOM      7  S   UNL d   1      30.546 -15.659  -3.614  0.00  0.00    -0.079 SA
BRANCH   7   8
ATOM      8  C   UNL d   1      29.341 -16.288  -4.826  0.00  0.00     0.185 C 
BRANCH   8   9
ATOM      9  C   UNL d   1      28.607 -15.064  -5.455  0.00  0.00     0.231 C 
ATOM     10  N   UNL d   1      28.789 -13.821  -4.850  0.00  0.00    -0.325 N 
ATOM     11  H   UNL d   1      29.725 -13.620  -4.515  0.00  0.00     0.169 HD
ATOM     12  O   UNL d   1      27.892 -15.196  -6.458  0.00  0.00    -0.272 OA
BRANCH  10  13
ATOM     13  C   UNL d   1      27.926 -12.680  -5.045  0.00  0.00     0.051 A 
ATOM     14  C   UNL d   1      27.819 -12.175  -6.367  0.00  0.00     0.031 A 
ATOM     15  C   UNL d   1      26.972 -11.098  -6.691  0.00  0.00     0.002 A 
ATOM     16  C   UNL d   1      26.203 -10.502  -5.705  0.00  0.00     0.002 A 
ATOM     17  C   UNL d   1      26.346 -10.933  -4.390  0.00  0.00     0.021 A 
ATOM     18  C   UNL d   1      27.207 -12.001  -4.027  0.00  0.00     0.027 A 
BRANCH  18  19
ATOM     19  S   UNL d   1      27.174 -12.266  -2.247  0.00  0.00    -0.128 SA
BRANCH  19  20
ATOM     20  C   UNL d   1      26.016 -13.646  -1.984  0.00  0.00     0.079 C 
BRANCH  20  21
ATOM     21  C   UNL d   1      26.638 -14.923  -2.552  0.00  0.00     0.010 C 
BRANCH  21  22
ATOM     22  C   UNL d   1      25.723 -15.529  -3.620  0.00  0.00    -0.004 C 
ATOM     23  C   UNL d   1      25.162 -14.458  -4.540  0.00  0.00     0.005 C 
ENDBRANCH  21  22
ENDBRANCH  20  21
ENDBRANCH  19  20
ENDBRANCH  18  19
ENDBRANCH  10  13
ENDBRANCH   8   9
ENDBRANCH   7   8
ENDBRANCH   1   7
BRANCH   4  24
ATOM     24  N   UNL d   1      28.047 -16.789   0.576  0.00  0.00    -0.106 N 
ATOM     25  H   UNL d   1      28.247 -17.072   1.532  0.00  0.00     0.208 HD
BRANCH  24  26
ATOM     26  N   UNL d   1      26.738 -16.602   0.201  0.00  0.00    -0.172 NA
ATOM     27  C   UNL d   1      25.969 -17.638   0.086  0.00  0.00     0.150 C 
BRANCH  27  28
ATOM     28  C   UNL d   1      24.544 -17.486  -0.307  0.00  0.00    -0.015 A 
ATOM     29  C   UNL d   1      24.061 -16.262  -0.790  0.00  0.00     0.013 A 
ATOM     30  C   UNL d   1      22.695 -16.106  -1.058  0.00  0.00     0.003 A 
ATOM     31  C   UNL d   1      21.821 -17.182  -0.891  0.00  0.00     0.024 A 
ATOM     32  C   UNL d   1      22.311 -18.400  -0.423  0.00  0.00     0.034 A 
ATOM     33 CL   UNL d   1      21.217 -19.702  -0.150  0.00  0.00    -0.084 Cl
ATOM     34  C   UNL d   1      23.666 -18.561  -0.133  0.00  0.00     0.036 A 
ENDBRANCH  27  28
ENDBRANCH  24  26
ENDBRANCH   4  24
TORSDOF 11
ENDMDL
MODEL 5
REMARK VINA RESULT:    -8.427      1.642      2.635
REMARK INTER + INTRA:         -14.488
REMARK INTER:                 -11.708
REMARK INTRA:                  -2.779
REMARK CONF_INDEPENDENT:        3.281
REMARK UNBOUND:                -2.779
REMARK  11 active torsions:
REMARK  status: ('A' for Active; 'I' for Inactive)
REMARK    1  A    between atoms: C_2  and  C_3 
REMARK    2  A    between atoms: C_3  and  C_4 
REMARK    3  A    between atoms: C_4  and  S_5 
REMARK    4  A    between atoms: S_5  and  C_6 
REMARK    5  A    between atoms: C_11  and  N_12 
REMARK       I    between atoms: N_12  and  C_13 
REMARK    6  A    between atoms: C_13  and  C_15 
REMARK    7  A    between atoms: C_15  and  S_16 
REMARK    8  A    between atoms: S_16  and  C_17 
REMARK    9  A    between atoms: C_20  and  N_21 
REMARK   10  A    between atoms: N_21  and  N_22 
REMARK   11  A    between atoms: C_23  and  C_24 
ROOT
ATOM      1  C   UNL d   1      31.547 -14.382   1.436  0.00  0.00     0.226 C 
ATOM      2  N   UNL d   1      32.387 -13.763   2.268  0.00  0.00    -0.132 NA
ATOM      3  N   UNL d   1      31.752 -13.957   3.452  0.00  0.00    -0.103 N 
ATOM      4  C   UNL d   1      30.563 -14.627   3.305  0.00  0.00     0.739 C 
ATOM      5  N   UNL d   1      30.388 -14.826   2.020  0.00  0.00    -0.034 NA
ATOM      6  H   UNL d   1      32.215 -13.671   4.303  0.00  0.00     0.208 HD
ENDROOT
BRANCH   1   7
ATOM      7  S   UNL d   1      31.906 -14.878  -0.180  0.00  0.00    -0.079 SA
BRANCH   7   8
ATOM      8  C   UNL d   1      31.214 -16.526  -0.532  0.00  0.00     0.185 C 
BRANCH   8   9
ATOM      9  C   UNL d   1      29.693 -16.357  -0.829  0.00  0.00     0.231 C 
ATOM     10  N   UNL d   1      28.799 -16.616   0.210  0.00  0.00    -0.325 N 
ATOM     11  H   UNL d   1      29.083 -16.301   1.131  0.00  0.00     0.169 HD
ATOM     12  O   UNL d   1      29.298 -16.002  -1.948  0.00  0.00    -0.272 OA
BRANCH  10  13
ATOM     13  C   UNL d   1      27.390 -16.877   0.033  0.00  0.00     0.051 A 
ATOM     14  C   UNL d   1      26.949 -18.206   0.266  0.00  0.00     0.031 A 
ATOM     15  C   UNL d   1      25.593 -18.572   0.173  0.00  0.00     0.002 A 
ATOM     16  C   UNL d   1      24.640 -17.619  -0.148  0.00  0.00     0.002 A 
ATOM     17  C   UNL d   1      25.058 -16.327  -0.452  0.00  0.00     0.021 A 
ATOM     18  C   UNL d   1      26.419 -15.932  -0.390  0.00  0.00     0.027 A 
BRANCH  18  19
ATOM     19  S   UNL d   1      26.603 -14.210  -0.881  0.00  0.00    -0.128 SA
BRANCH  19  20
ATOM     20  C   UNL d   1      27.577 -13.429   0.444  0.00  0.00     0.079 C 
BRANCH  20  21
ATOM     21  C   UNL d   1      26.649 -13.130   1.623  0.00  0.00     0.010 C 
BRANCH  21  22
ATOM     22  C   UNL d   1      27.378 -13.379   2.948  0.00  0.00    -0.004 C 
ATOM     23  C   UNL d   1      27.948 -12.090   3.515  0.00  0.00     0.005 C 
ENDBRANCH  21  22
ENDBRANCH  20  21
ENDBRANCH  19  20
ENDBRANCH  18  19
ENDBRANCH  10  13
ENDBRANCH   8   9
ENDBRANCH   7   8
ENDBRANCH   1   7
BRANCH   4  24
ATOM     24  N   UNL d   1      29.789 -15.029   4.355  0.00  0.00    -0.106 N 
ATOM     25  H   UNL d   1      29.113 -15.781   4.246  0.00  0.00     0.208 HD
BRANCH  24  26
ATOM     26  N   UNL d   1      29.817 -14.333   5.541  0.00  0.00    -0.172 NA
ATOM     27  C   UNL d   1      28.747 -14.299   6.268  0.00  0.00     0.150 C 
BRANCH  27  28
ATOM     28  C   UNL d   1      28.729 -13.568   7.562  0.00  0.00    -0.015 A 
ATOM     29  C   UNL d   1      28.598 -12.172   7.593  0.00  0.00     0.013 A 
ATOM     30  C   UNL d   1      28.687 -11.488   8.813  0.00  0.00     0.003 A 
ATOM     31  C   UNL d   1      28.857 -12.199  10.003  0.00  0.00     0.024 A 
ATOM     32  C   UNL d   1      28.974 -13.587   9.965  0.00  0.00     0.034 A 
ATOM     33 CL   UNL d   1      29.256 -14.452  11.427  0.00  0.00    -0.084 Cl
ATOM     34  C   UNL d   1      28.907 -14.276   8.754  0.00  0.00     0.036 A 
ENDBRANCH  27  28
ENDBRANCH  24  26
ENDBRANCH   4  24
TORSDOF 11
ENDMDL
MODEL 6
REMARK VINA RESULT:    -8.210      6.912      8.871
REMARK INTER + INTRA:         -14.427
REMARK INTER:                 -11.491
REMARK INTRA:                  -2.936
REMARK CONF_INDEPENDENT:        3.281
REMARK UNBOUND:                -2.936
REMARK  11 active torsions:
REMARK  status: ('A' for Active; 'I' for Inactive)
REMARK    1  A    between atoms: C_2  and  C_3 
REMARK    2  A    between atoms: C_3  and  C_4 
REMARK    3  A    between atoms: C_4  and  S_5 
REMARK    4  A    between atoms: S_5  and  C_6 
REMARK    5  A    between atoms: C_11  and  N_12 
REMARK       I    between atoms: N_12  and  C_13 
REMARK    6  A    between atoms: C_13  and  C_15 
REMARK    7  A    between atoms: C_15  and  S_16 
REMARK    8  A    between atoms: S_16  and  C_17 
REMARK    9  A    between atoms: C_20  and  N_21 
REMARK   10  A    between atoms: N_21  and  N_22 
REMARK   11  A    between atoms: C_23  and  C_24 
ROOT
ATOM      1  C   UNL d   1      27.895 -13.797  -6.416  0.00  0.00     0.226 C 
ATOM      2  N   UNL d   1      27.707 -15.115  -6.326  0.00  0.00    -0.132 NA
ATOM      3  N   UNL d   1      26.668 -15.159  -5.454  0.00  0.00    -0.103 N 
ATOM      4  C   UNL d   1      26.296 -13.911  -5.019  0.00  0.00     0.739 C 
ATOM      5  N   UNL d   1      27.124 -13.050  -5.563  0.00  0.00    -0.034 NA
ATOM      6  H   UNL d   1      26.233 -16.050  -5.263  0.00  0.00     0.208 HD
ENDROOT
BRANCH   1   7
ATOM      7  S   UNL d   1      28.794 -12.985  -7.649  0.00  0.00    -0.079 SA
BRANCH   7   8
ATOM      8  C   UNL d   1      30.555 -12.857  -7.203  0.00  0.00     0.185 C 
BRANCH   8   9
ATOM      9  C   UNL d   1      31.103 -14.301  -6.985  0.00  0.00     0.231 C 
ATOM     10  N   UNL d   1      30.184 -15.349  -6.999  0.00  0.00    -0.325 N 
ATOM     11  H   UNL d   1      29.443 -15.283  -7.688  0.00  0.00     0.169 HD
ATOM     12  O   UNL d   1      32.313 -14.503  -6.808  0.00  0.00    -0.272 OA
BRANCH  10  13
ATOM     13  C   UNL d   1      30.432 -16.664  -6.456  0.00  0.00     0.051 A 
ATOM     14  C   UNL d   1      31.081 -17.597  -7.307  0.00  0.00     0.031 A 
ATOM     15  C   UNL d   1      31.420 -18.894  -6.875  0.00  0.00     0.002 A 
ATOM     16  C   UNL d   1      31.127 -19.290  -5.580  0.00  0.00     0.002 A 
ATOM     17  C   UNL d   1      30.427 -18.418  -4.753  0.00  0.00     0.021 A 
ATOM     18  C   UNL d   1      30.051 -17.113  -5.165  0.00  0.00     0.027 A 
BRANCH  18  19
ATOM     19  S   UNL d   1      29.131 -16.277  -3.864  0.00  0.00    -0.128 SA
BRANCH  19  20
ATOM     20  C   UNL d   1      30.338 -15.969  -2.537  0.00  0.00     0.079 C 
BRANCH  20  21
ATOM     21  C   UNL d   1      29.672 -16.260  -1.191  0.00  0.00     0.010 C 
BRANCH  21  22
ATOM     22  C   UNL d   1      29.677 -17.767  -0.912  0.00  0.00    -0.004 C 
ATOM     23  C   UNL d   1      31.032 -18.381  -1.216  0.00  0.00     0.005 C 
ENDBRANCH  21  22
ENDBRANCH  20  21
ENDBRANCH  19  20
ENDBRANCH  18  19
ENDBRANCH  10  13
ENDBRANCH   8   9
ENDBRANCH   7   8
ENDBRANCH   1   7
BRANCH   4  24
ATOM     24  N   UNL d   1      25.215 -13.683  -4.217  0.00  0.00    -0.106 N 
ATOM     25  H   UNL d   1      24.748 -12.780  -4.217  0.00  0.00     0.208 HD
BRANCH  24  26
ATOM     26  N   UNL d   1      24.826 -14.629  -3.298  0.00  0.00    -0.172 NA
ATOM     27  C   UNL d   1      25.732 -15.197  -2.568  0.00  0.00     0.150 C 
BRANCH  27  28
ATOM     28  C   UNL d   1      25.360 -16.218  -1.553  0.00  0.00    -0.015 A 
ATOM     29  C   UNL d   1      26.336 -16.794  -0.728  0.00  0.00     0.013 A 
ATOM     30  C   UNL d   1      25.986 -17.828   0.151  0.00  0.00     0.003 A 
ATOM     31  C   UNL d   1      24.659 -18.251   0.241  0.00  0.00     0.024 A 
ATOM     32  C   UNL d   1      23.692 -17.664  -0.573  0.00  0.00     0.034 A 
ATOM     33 CL   UNL d   1      22.070 -18.239  -0.509  0.00  0.00    -0.084 Cl
ATOM     34  C   UNL d   1      24.033 -16.648  -1.467  0.00  0.00     0.036 A 
ENDBRANCH  27  28
ENDBRANCH  24  26
ENDBRANCH   4  24
TORSDOF 11
ENDMDL
MODEL 7
REMARK VINA RESULT:    -7.735      5.069      6.571
REMARK INTER + INTRA:         -14.534
REMARK INTER:                 -11.016
REMARK INTRA:                  -3.517
REMARK CONF_INDEPENDENT:        3.281
REMARK UNBOUND:                -3.517
REMARK  11 active torsions:
REMARK  status: ('A' for Active; 'I' for Inactive)
REMARK    1  A    between atoms: C_2  and  C_3 
REMARK    2  A    between atoms: C_3  and  C_4 
REMARK    3  A    between atoms: C_4  and  S_5 
REMARK    4  A    between atoms: S_5  and  C_6 
REMARK    5  A    between atoms: C_11  and  N_12 
REMARK       I    between atoms: N_12  and  C_13 
REMARK    6  A    between atoms: C_13  and  C_15 
REMARK    7  A    between atoms: C_15  and  S_16 
REMARK    8  A    between atoms: S_16  and  C_17 
REMARK    9  A    between atoms: C_20  and  N_21 
REMARK   10  A    between atoms: N_21  and  N_22 
REMARK   11  A    between atoms: C_23  and  C_24 
ROOT
ATOM      1  C   UNL d   1      30.595 -17.834  -2.564  0.00  0.00     0.226 C 
ATOM      2  N   UNL d   1      30.960 -18.816  -1.738  0.00  0.00    -0.132 NA
ATOM      3  N   UNL d   1      30.697 -18.240  -0.537  0.00  0.00    -0.103 N 
ATOM      4  C   UNL d   1      30.237 -16.952  -0.663  0.00  0.00     0.739 C 
ATOM      5  N   UNL d   1      30.250 -16.662  -1.942  0.00  0.00    -0.034 NA
ATOM      6  H   UNL d   1      30.788 -18.800   0.299  0.00  0.00     0.208 HD
ENDROOT
BRANCH   1   7
ATOM      7  S   UNL d   1      30.285 -17.999  -4.256  0.00  0.00    -0.079 SA
BRANCH   7   8
ATOM      8  C   UNL d   1      30.375 -16.388  -5.103  0.00  0.00     0.185 C 
BRANCH   8   9
ATOM      9  C   UNL d   1      28.984 -15.696  -4.971  0.00  0.00     0.231 C 
ATOM     10  N   UNL d   1      28.524 -15.411  -3.686  0.00  0.00    -0.325 N 
ATOM     11  H   UNL d   1      29.219 -15.081  -3.026  0.00  0.00     0.169 HD
ATOM     12  O   UNL d   1      28.318 -15.409  -5.975  0.00  0.00    -0.272 OA
BRANCH  10  13
ATOM     13  C   UNL d   1      27.147 -15.132  -3.352  0.00  0.00     0.051 A 
ATOM     14  C   UNL d   1      26.532 -14.043  -4.024  0.00  0.00     0.031 A 
ATOM     15  C   UNL d   1      25.181 -13.704  -3.819  0.00  0.00     0.002 A 
ATOM     16  C   UNL d   1      24.406 -14.448  -2.945  0.00  0.00     0.002 A 
ATOM     17  C   UNL d   1      25.007 -15.473  -2.221  0.00  0.00     0.021 A 
ATOM     18  C   UNL d   1      26.371 -15.825  -2.388  0.00  0.00     0.027 A 
BRANCH  18  19
ATOM     19  S   UNL d   1      26.821 -17.164  -1.272  0.00  0.00    -0.128 SA
BRANCH  19  20
ATOM     20  C   UNL d   1      25.771 -16.943   0.198  0.00  0.00     0.079 C 
BRANCH  20  21
ATOM     21  C   UNL d   1      24.756 -18.087   0.252  0.00  0.00     0.010 C 
BRANCH  21  22
ATOM     22  C   UNL d   1      23.501 -17.721  -0.546  0.00  0.00    -0.004 C 
ATOM     23  C   UNL d   1      22.937 -18.928  -1.273  0.00  0.00     0.005 C 
ENDBRANCH  21  22
ENDBRANCH  20  21
ENDBRANCH  19  20
ENDBRANCH  18  19
ENDBRANCH  10  13
ENDBRANCH   8   9
ENDBRANCH   7   8
ENDBRANCH   1   7
BRANCH   4  24
ATOM     24  N   UNL d   1      29.810 -16.199   0.391  0.00  0.00    -0.106 N 
ATOM     25  H   UNL d   1      29.568 -16.634   1.278  0.00  0.00     0.208 HD
BRANCH  24  26
ATOM     26  N   UNL d   1      29.570 -14.855   0.228  0.00  0.00    -0.172 NA
ATOM     27  C   UNL d   1      28.358 -14.418   0.357  0.00  0.00     0.150 C 
BRANCH  27  28
ATOM     28  C   UNL d   1      28.049 -12.973   0.199  0.00  0.00    -0.015 A 
ATOM     29  C   UNL d   1      27.977 -12.131   1.318  0.00  0.00     0.013 A 
ATOM     30  C   UNL d   1      27.585 -10.795   1.164  0.00  0.00     0.003 A 
ATOM     31  C   UNL d   1      27.314 -10.288  -0.109  0.00  0.00     0.024 A 
ATOM     32  C   UNL d   1      27.401 -11.127  -1.218  0.00  0.00     0.034 A 
ATOM     33 CL   UNL d   1      26.995 -10.516  -2.775  0.00  0.00    -0.084 Cl
ATOM     34  C   UNL d   1      27.770 -12.465  -1.073  0.00  0.00     0.036 A 
ENDBRANCH  27  28
ENDBRANCH  24  26
ENDBRANCH   4  24
TORSDOF 11
ENDMDL
MODEL 8
REMARK VINA RESULT:    -7.541      4.861      9.138
REMARK INTER + INTRA:         -14.693
REMARK INTER:                 -10.822
REMARK INTRA:                  -3.871
REMARK CONF_INDEPENDENT:        3.281
REMARK UNBOUND:                -3.871
REMARK  11 active torsions:
REMARK  status: ('A' for Active; 'I' for Inactive)
REMARK    1  A    between atoms: C_2  and  C_3 
REMARK    2  A    between atoms: C_3  and  C_4 
REMARK    3  A    between atoms: C_4  and  S_5 
REMARK    4  A    between atoms: S_5  and  C_6 
REMARK    5  A    between atoms: C_11  and  N_12 
REMARK       I    between atoms: N_12  and  C_13 
REMARK    6  A    between atoms: C_13  and  C_15 
REMARK    7  A    between atoms: C_15  and  S_16 
REMARK    8  A    between atoms: S_16  and  C_17 
REMARK    9  A    between atoms: C_20  and  N_21 
REMARK   10  A    between atoms: N_21  and  N_22 
REMARK   11  A    between atoms: C_23  and  C_24 
ROOT
ATOM      1  C   UNL d   1      26.299 -17.609   0.444  0.00  0.00     0.226 C 
ATOM      2  N   UNL d   1      26.644 -16.338   0.662  0.00  0.00    -0.132 NA
ATOM      3  N   UNL d   1      27.939 -16.359   0.255  0.00  0.00    -0.103 N 
ATOM      4  C   UNL d   1      28.343 -17.610  -0.142  0.00  0.00     0.739 C 
ATOM      5  N   UNL d   1      27.331 -18.423   0.054  0.00  0.00    -0.034 NA
ATOM      6  H   UNL d   1      28.448 -15.488   0.213  0.00  0.00     0.208 HD
ENDROOT
BRANCH   1   7
ATOM      7  S   UNL d   1      24.684 -18.219   0.363  0.00  0.00    -0.079 SA
BRANCH   7   8
ATOM      8  C   UNL d   1      23.722 -17.365  -0.926  0.00  0.00     0.185 C 
BRANCH   8   9
ATOM      9  C   UNL d   1      24.719 -16.576  -1.829  0.00  0.00     0.231 C 
ATOM     10  N   UNL d   1      25.101 -15.302  -1.410  0.00  0.00    -0.325 N 
ATOM     11  H   UNL d   1      25.259 -15.189  -0.415  0.00  0.00     0.169 HD
ATOM     12  O   UNL d   1      25.155 -17.069  -2.879  0.00  0.00    -0.272 OA
BRANCH  10  13
ATOM     13  C   UNL d   1      25.692 -14.301  -2.266  0.00  0.00     0.051 A 
ATOM     14  C   UNL d   1      25.160 -14.183  -3.577  0.00  0.00     0.031 A 
ATOM     15  C   UNL d   1      25.621 -13.212  -4.486  0.00  0.00     0.002 A 
ATOM     16  C   UNL d   1      26.619 -12.328  -4.108  0.00  0.00     0.002 A 
ATOM     17  C   UNL d   1      27.204 -12.472  -2.854  0.00  0.00     0.021 A 
ATOM     18  C   UNL d   1      26.779 -13.455  -1.924  0.00  0.00     0.027 A 
BRANCH  18  19
ATOM     19  S   UNL d   1      27.774 -13.383  -0.426  0.00  0.00    -0.128 SA
BRANCH  19  20
ATOM     20  C   UNL d   1      26.581 -13.310   0.947  0.00  0.00     0.079 C 
BRANCH  20  21
ATOM     21  C   UNL d   1      27.340 -13.009   2.240  0.00  0.00     0.010 C 
BRANCH  21  22
ATOM     22  C   UNL d   1      27.880 -14.305   2.853  0.00  0.00    -0.004 C 
ATOM     23  C   UNL d   1      27.752 -14.297   4.366  0.00  0.00     0.005 C 
ENDBRANCH  21  22
ENDBRANCH  20  21
ENDBRANCH  19  20
ENDBRANCH  18  19
ENDBRANCH  10  13
ENDBRANCH   8   9
ENDBRANCH   7   8
ENDBRANCH   1   7
BRANCH   4  24
ATOM     24  N   UNL d   1      29.568 -17.869  -0.686  0.00  0.00    -0.106 N 
ATOM     25  H   UNL d   1      30.319 -18.253  -0.118  0.00  0.00     0.208 HD
BRANCH  24  26
ATOM     26  N   UNL d   1      29.845 -17.487  -1.977  0.00  0.00    -0.172 NA
ATOM     27  C   UNL d   1      29.021 -16.691  -2.582  0.00  0.00     0.150 C 
BRANCH  27  28
ATOM     28  C   UNL d   1      29.282 -16.242  -3.975  0.00  0.00    -0.015 A 
ATOM     29  C   UNL d   1      28.563 -15.173  -4.528  0.00  0.00     0.013 A 
ATOM     30  C   UNL d   1      28.747 -14.829  -5.873  0.00  0.00     0.003 A 
ATOM     31  C   UNL d   1      29.682 -15.516  -6.650  0.00  0.00     0.024 A 
ATOM     32  C   UNL d   1      30.402 -16.569  -6.089  0.00  0.00     0.034 A 
ATOM     33 CL   UNL d   1      31.500 -17.461  -7.072  0.00  0.00    -0.084 Cl
ATOM     34  C   UNL d   1      30.212 -16.935  -4.756  0.00  0.00     0.036 A 
ENDBRANCH  27  28
ENDBRANCH  24  26
ENDBRANCH   4  24
TORSDOF 11
ENDMDL
MODEL 9
REMARK VINA RESULT:    -7.453      5.531      7.929
REMARK INTER + INTRA:         -14.707
REMARK INTER:                 -10.734
REMARK INTRA:                  -3.972
REMARK CONF_INDEPENDENT:        3.281
REMARK UNBOUND:                -3.972
REMARK  11 active torsions:
REMARK  status: ('A' for Active; 'I' for Inactive)
REMARK    1  A    between atoms: C_2  and  C_3 
REMARK    2  A    between atoms: C_3  and  C_4 
REMARK    3  A    between atoms: C_4  and  S_5 
REMARK    4  A    between atoms: S_5  and  C_6 
REMARK    5  A    between atoms: C_11  and  N_12 
REMARK       I    between atoms: N_12  and  C_13 
REMARK    6  A    between atoms: C_13  and  C_15 
REMARK    7  A    between atoms: C_15  and  S_16 
REMARK    8  A    between atoms: S_16  and  C_17 
REMARK    9  A    between atoms: C_20  and  N_21 
REMARK   10  A    between atoms: N_21  and  N_22 
REMARK   11  A    between atoms: C_23  and  C_24 
ROOT
ATOM      1  C   UNL d   1      28.320 -14.766  -5.827  0.00  0.00     0.226 C 
ATOM      2  N   UNL d   1      28.497 -13.452  -5.674  0.00  0.00    -0.132 NA
ATOM      3  N   UNL d   1      27.273 -13.088  -5.214  0.00  0.00    -0.103 N 
ATOM      4  C   UNL d   1      26.403 -14.148  -5.146  0.00  0.00     0.739 C 
ATOM      5  N   UNL d   1      27.037 -15.198  -5.612  0.00  0.00    -0.034 NA
ATOM      6  H   UNL d   1      27.133 -12.135  -4.910  0.00  0.00     0.208 HD
ENDROOT
BRANCH   1   7
ATOM      7  S   UNL d   1      29.574 -15.942  -6.007  0.00  0.00    -0.079 SA
BRANCH   7   8
ATOM      8  C   UNL d   1      30.483 -16.178  -4.446  0.00  0.00     0.185 C 
BRANCH   8   9
ATOM      9  C   UNL d   1      29.465 -16.051  -3.272  0.00  0.00     0.231 C 
ATOM     10  N   UNL d   1      29.120 -14.767  -2.853  0.00  0.00    -0.325 N 
ATOM     11  H   UNL d   1      29.001 -14.076  -3.585  0.00  0.00     0.169 HD
ATOM     12  O   UNL d   1      28.982 -17.058  -2.735  0.00  0.00    -0.272 OA
BRANCH  10  13
ATOM     13  C   UNL d   1      28.513 -14.455  -1.580  0.00  0.00     0.051 A 
ATOM     14  C   UNL d   1      28.887 -15.266  -0.475  0.00  0.00     0.031 A 
ATOM     15  C   UNL d   1      28.401 -15.029   0.824  0.00  0.00     0.002 A 
ATOM     16  C   UNL d   1      27.534 -13.974   1.057  0.00  0.00     0.002 A 
ATOM     17  C   UNL d   1      27.097 -13.213  -0.022  0.00  0.00     0.021 A 
ATOM     18  C   UNL d   1      27.551 -13.439  -1.347  0.00  0.00     0.027 A 
BRANCH  18  19
ATOM     19  S   UNL d   1      26.757 -12.300  -2.492  0.00  0.00    -0.128 SA
BRANCH  19  20
ATOM     20  C   UNL d   1      27.775 -10.792  -2.462  0.00  0.00     0.079 C 
BRANCH  20  21
ATOM     21  C   UNL d   1      27.188  -9.784  -3.452  0.00  0.00     0.010 C 
BRANCH  21  22
ATOM     22  C   UNL d   1      25.691 -10.044  -3.649  0.00  0.00    -0.004 C 
ATOM     23  C   UNL d   1      25.223  -9.572  -5.014  0.00  0.00     0.005 C 
ENDBRANCH  21  22
ENDBRANCH  20  21
ENDBRANCH  19  20
ENDBRANCH  18  19
ENDBRANCH  10  13
ENDBRANCH   8   9
ENDBRANCH   7   8
ENDBRANCH   1   7
BRANCH   4  24
ATOM     24  N   UNL d   1      25.146 -14.058  -4.622  0.00  0.00    -0.106 N 
ATOM     25  H   UNL d   1      24.500 -13.340  -4.939  0.00  0.00     0.208 HD
BRANCH  24  26
ATOM     26  N   UNL d   1      24.780 -14.853  -3.562  0.00  0.00    -0.172 NA
ATOM     27  C   UNL d   1      25.687 -15.574  -2.983  0.00  0.00     0.150 C 
BRANCH  27  28
ATOM     28  C   UNL d   1      25.344 -16.443  -1.826  0.00  0.00    -0.015 A 
ATOM     29  C   UNL d   1      26.343 -16.909  -0.961  0.00  0.00     0.013 A 
ATOM     30  C   UNL d   1      26.018 -17.809   0.063  0.00  0.00     0.003 A 
ATOM     31  C   UNL d   1      24.692 -18.203   0.252  0.00  0.00     0.024 A 
ATOM     32  C   UNL d   1      23.702 -17.725  -0.604  0.00  0.00     0.034 A 
ATOM     33 CL   UNL d   1      22.080 -18.271  -0.410  0.00  0.00    -0.084 Cl
ATOM     34  C   UNL d   1      24.018 -16.845  -1.639  0.00  0.00     0.036 A 
ENDBRANCH  27  28
ENDBRANCH  24  26
ENDBRANCH   4  24
TORSDOF 11
ENDMDL
