MODEL 1
REMARK VINA RESULT:    -8.264      0.000      0.000
REMARK INTER + INTRA:         -12.449
REMARK INTER:                 -10.949
REMARK INTRA:                  -1.500
REMARK CONF_INDEPENDENT:        2.685
REMARK UNBOUND:                -1.500
REMARK  9 active torsions:
REMARK  status: ('A' for Active; 'I' for Inactive)
REMARK    1  A    between atoms: C_2  and  C_3 
REMARK    2  A    between atoms: C_3  and  C_4 
REMARK    3  A    between atoms: C_4  and  C_5 
REMARK    4  A    between atoms: C_5  and  N_6 
REMARK       I    between atoms: N_6  and  C_7 
REMARK       I    between atoms: C_7  and  N_9 
REMARK    5  A    between atoms: N_9  and  N_10 
REMARK       I    between atoms: N_10  and  C_11 
REMARK    6  A    between atoms: C_11  and  C_13 
REMARK    7  A    between atoms: C_14  and  C_15 
REMARK    8  A    between atoms: C_17  and  O_18 
REMARK    9  A    between atoms: C_21  and  O_22 
ROOT
ATOM      1  N   UNL d   1      23.383 -17.790  -0.822  0.00  0.00    -0.263 N 
ATOM      2  C   UNL d   1      24.743 -17.642  -0.576  0.00  0.00     0.259 C 
ATOM      3  O   UNL d   1      25.366 -18.389   0.182  0.00  0.00    -0.267 OA
ATOM      4  H   UNL d   1      22.840 -17.190  -1.440  0.00  0.00     0.190 HD
ENDROOT
BRANCH   2   5
ATOM      5  C   UNL d   1      25.424 -16.496  -1.290  0.00  0.00     0.076 C 
ATOM      6  C   UNL d   1      25.136 -16.179  -2.574  0.00  0.00     0.017 C 
BRANCH   6   7
ATOM      7  C   UNL d   1      25.802 -15.132  -3.398  0.00  0.00    -0.031 A 
ATOM      8  C   UNL d   1      25.547 -13.759  -3.204  0.00  0.00     0.048 A 
ATOM      9  C   UNL d   1      25.994 -12.795  -4.130  0.00  0.00     0.071 A 
ATOM     10  C   UNL d   1      26.798 -13.194  -5.197  0.00  0.00     0.073 A 
ATOM     11  C   UNL d   1      27.071 -14.545  -5.401  0.00  0.00     0.071 A 
ATOM     12  C   UNL d   1      26.570 -15.500  -4.509  0.00  0.00     0.048 A 
BRANCH   9  13
ATOM     13  O   UNL d   1      25.556 -11.507  -3.936  0.00  0.00    -0.356 OA
ATOM     14  C   UNL d   1      25.877 -10.570  -4.970  0.00  0.00     0.210 C 
ENDBRANCH   9  13
BRANCH  11  15
ATOM     15  O   UNL d   1      27.795 -14.821  -6.531  0.00  0.00    -0.356 OA
ATOM     16  C   UNL d   1      29.197 -14.980  -6.342  0.00  0.00     0.210 C 
ENDBRANCH  11  15
ENDBRANCH   6   7
ENDBRANCH   2   5
BRANCH   1  17
ATOM     17  N   UNL d   1      22.646 -18.867  -0.204  0.00  0.00    -0.249 N 
ATOM     18  C   UNL d   1      21.291 -19.017  -0.469  0.00  0.00     0.334 C 
ATOM     19  N   UNL d   1      20.681 -20.084   0.169  0.00  0.00    -0.342 N 
ATOM     20  O   UNL d   1      20.683 -18.250  -1.217  0.00  0.00    -0.246 OA
ATOM     21  H   UNL d   1      21.222 -20.687   0.772  0.00  0.00     0.164 HD
ATOM     22  H   UNL d   1      23.181 -19.483   0.401  0.00  0.00     0.192 HD
BRANCH  19  23
ATOM     23  C   UNL d   1      19.250 -20.370  -0.010  0.00  0.00     0.124 C 
BRANCH  23  24
ATOM     24  C   UNL d   1      18.613 -21.171   1.140  0.00  0.00     0.020 C 
BRANCH  24  25
ATOM     25  C   UNL d   1      18.530 -20.351   2.440  0.00  0.00     0.001 C 
BRANCH  25  26
ATOM     26  C   UNL d   1      19.820 -20.452   3.262  0.00  0.00    -0.004 C 
ATOM     27  C   UNL d   1      19.530 -20.838   4.706  0.00  0.00     0.005 C 
ENDBRANCH  25  26
ENDBRANCH  24  25
ENDBRANCH  23  24
ENDBRANCH  19  23
ENDBRANCH   1  17
TORSDOF 9
ENDMDL
MODEL 2
REMARK VINA RESULT:    -8.028      0.486      2.348
REMARK INTER + INTRA:         -12.201
REMARK INTER:                 -10.713
REMARK INTRA:                  -1.488
REMARK CONF_INDEPENDENT:        2.685
REMARK UNBOUND:                -1.488
REMARK  9 active torsions:
REMARK  status: ('A' for Active; 'I' for Inactive)
REMARK    1  A    between atoms: C_2  and  C_3 
REMARK    2  A    between atoms: C_3  and  C_4 
REMARK    3  A    between atoms: C_4  and  C_5 
REMARK    4  A    between atoms: C_5  and  N_6 
REMARK       I    between atoms: N_6  and  C_7 
REMARK       I    between atoms: C_7  and  N_9 
REMARK    5  A    between atoms: N_9  and  N_10 
REMARK       I    between atoms: N_10  and  C_11 
REMARK    6  A    between atoms: C_11  and  C_13 
REMARK    7  A    between atoms: C_14  and  C_15 
REMARK    8  A    between atoms: C_17  and  O_18 
REMARK    9  A    between atoms: C_21  and  O_22 
ROOT
ATOM      1  N   UNL d   1      23.346 -17.578  -0.698  0.00  0.00    -0.263 N 
ATOM      2  C   UNL d   1      24.708 -17.446  -0.457  0.00  0.00     0.259 C 
ATOM      3  O   UNL d   1      25.311 -18.156   0.351  0.00  0.00    -0.267 OA
ATOM      4  H   UNL d   1      22.818 -17.007  -1.356  0.00  0.00     0.190 HD
ENDROOT
BRANCH   2   5
ATOM      5  C   UNL d   1      25.417 -16.366  -1.241  0.00  0.00     0.076 C 
ATOM      6  C   UNL d   1      24.917 -15.873  -2.398  0.00  0.00     0.017 C 
BRANCH   6   7
ATOM      7  C   UNL d   1      25.568 -14.875  -3.292  0.00  0.00    -0.031 A 
ATOM      8  C   UNL d   1      26.236 -15.258  -4.473  0.00  0.00     0.048 A 
ATOM      9  C   UNL d   1      27.043 -14.347  -5.184  0.00  0.00     0.071 A 
ATOM     10  C   UNL d   1      27.093 -13.015  -4.775  0.00  0.00     0.073 A 
ATOM     11  C   UNL d   1      26.431 -12.613  -3.616  0.00  0.00     0.071 A 
ATOM     12  C   UNL d   1      25.683 -13.541  -2.884  0.00  0.00     0.048 A 
BRANCH   9  13
ATOM     13  O   UNL d   1      27.777 -14.860  -6.226  0.00  0.00    -0.356 OA
ATOM     14  C   UNL d   1      28.919 -14.095  -6.628  0.00  0.00     0.210 C 
ENDBRANCH   9  13
BRANCH  11  15
ATOM     15  O   UNL d   1      26.627 -11.303  -3.268  0.00  0.00    -0.356 OA
ATOM     16  C   UNL d   1      25.931 -10.344  -4.057  0.00  0.00     0.210 C 
ENDBRANCH  11  15
ENDBRANCH   6   7
ENDBRANCH   2   5
BRANCH   1  17
ATOM     17  N   UNL d   1      22.582 -18.595  -0.015  0.00  0.00    -0.249 N 
ATOM     18  C   UNL d   1      21.276 -18.857  -0.406  0.00  0.00     0.334 C 
ATOM     19  N   UNL d   1      20.635 -19.854   0.311  0.00  0.00    -0.342 N 
ATOM     20  O   UNL d   1      20.733 -18.240  -1.324  0.00  0.00    -0.246 OA
ATOM     21  H   UNL d   1      21.123 -20.332   1.054  0.00  0.00     0.164 HD
ATOM     22  H   UNL d   1      23.064 -19.087   0.733  0.00  0.00     0.192 HD
BRANCH  19  23
ATOM     23  C   UNL d   1      19.248 -20.242   0.016  0.00  0.00     0.124 C 
BRANCH  23  24
ATOM     24  C   UNL d   1      18.523 -20.943   1.178  0.00  0.00     0.020 C 
BRANCH  24  25
ATOM     25  C   UNL d   1      18.597 -20.129   2.482  0.00  0.00     0.001 C 
BRANCH  25  26
ATOM     26  C   UNL d   1      19.868 -20.444   3.280  0.00  0.00    -0.004 C 
ATOM     27  C   UNL d   1      19.541 -20.827   4.717  0.00  0.00     0.005 C 
ENDBRANCH  25  26
ENDBRANCH  24  25
ENDBRANCH  23  24
ENDBRANCH  19  23
ENDBRANCH   1  17
TORSDOF 9
ENDMDL
MODEL 3
REMARK VINA RESULT:    -7.229      1.271      2.784
REMARK INTER + INTRA:         -11.268
REMARK INTER:                  -9.913
REMARK INTRA:                  -1.355
REMARK CONF_INDEPENDENT:        2.685
REMARK UNBOUND:                -1.355
REMARK  9 active torsions:
REMARK  status: ('A' for Active; 'I' for Inactive)
REMARK    1  A    between atoms: C_2  and  C_3 
REMARK    2  A    between atoms: C_3  and  C_4 
REMARK    3  A    between atoms: C_4  and  C_5 
REMARK    4  A    between atoms: C_5  and  N_6 
REMARK       I    between atoms: N_6  and  C_7 
REMARK       I    between atoms: C_7  and  N_9 
REMARK    5  A    between atoms: N_9  and  N_10 
REMARK       I    between atoms: N_10  and  C_11 
REMARK    6  A    between atoms: C_11  and  C_13 
REMARK    7  A    between atoms: C_14  and  C_15 
REMARK    8  A    between atoms: C_17  and  O_18 
REMARK    9  A    between atoms: C_21  and  O_22 
ROOT
ATOM      1  N   UNL d   1      24.009 -17.182  -1.307  0.00  0.00    -0.263 N 
ATOM      2  C   UNL d   1      25.102 -16.405  -0.944  0.00  0.00     0.259 C 
ATOM      3  O   UNL d   1      25.422 -16.218   0.232  0.00  0.00    -0.267 OA
ATOM      4  H   UNL d   1      23.717 -17.355  -2.268  0.00  0.00     0.190 HD
ENDROOT
BRANCH   2   5
ATOM      5  C   UNL d   1      25.883 -15.788  -2.081  0.00  0.00     0.076 C 
ATOM      6  C   UNL d   1      25.326 -14.894  -2.932  0.00  0.00     0.017 C 
BRANCH   6   7
ATOM      7  C   UNL d   1      25.972 -14.290  -4.130  0.00  0.00    -0.031 A 
ATOM      8  C   UNL d   1      26.820 -15.036  -4.974  0.00  0.00     0.048 A 
ATOM      9  C   UNL d   1      27.606 -14.408  -5.961  0.00  0.00     0.071 A 
ATOM     10  C   UNL d   1      27.460 -13.039  -6.181  0.00  0.00     0.073 A 
ATOM     11  C   UNL d   1      26.618 -12.284  -5.366  0.00  0.00     0.071 A 
ATOM     12  C   UNL d   1      25.889 -12.910  -4.349  0.00  0.00     0.048 A 
BRANCH   9  13
ATOM     13  O   UNL d   1      28.517 -15.200  -6.618  0.00  0.00    -0.356 OA
ATOM     14  C   UNL d   1      29.825 -14.646  -6.790  0.00  0.00     0.210 C 
ENDBRANCH   9  13
BRANCH  11  15
ATOM     15  O   UNL d   1      26.626 -10.938  -5.621  0.00  0.00    -0.356 OA
ATOM     16  C   UNL d   1      26.404 -10.567  -6.977  0.00  0.00     0.210 C 
ENDBRANCH  11  15
ENDBRANCH   6   7
ENDBRANCH   2   5
BRANCH   1  17
ATOM     17  N   UNL d   1      23.211 -17.833  -0.295  0.00  0.00    -0.249 N 
ATOM     18  C   UNL d   1      22.266 -18.781  -0.665  0.00  0.00     0.334 C 
ATOM     19  N   UNL d   1      21.560 -19.348   0.383  0.00  0.00    -0.342 N 
ATOM     20  O   UNL d   1      22.074 -19.088  -1.842  0.00  0.00    -0.246 OA
ATOM     21  H   UNL d   1      21.754 -19.065   1.333  0.00  0.00     0.164 HD
ATOM     22  H   UNL d   1      23.400 -17.560   0.665  0.00  0.00     0.192 HD
BRANCH  19  23
ATOM     23  C   UNL d   1      20.523 -20.365   0.150  0.00  0.00     0.124 C 
BRANCH  23  24
ATOM     24  C   UNL d   1      19.166 -19.798  -0.301  0.00  0.00     0.020 C 
BRANCH  24  25
ATOM     25  C   UNL d   1      18.028 -20.822  -0.139  0.00  0.00     0.001 C 
BRANCH  25  26
ATOM     26  C   UNL d   1      18.028 -21.459   1.255  0.00  0.00    -0.004 C 
ATOM     27  C   UNL d   1      18.400 -20.446   2.330  0.00  0.00     0.005 C 
ENDBRANCH  25  26
ENDBRANCH  24  25
ENDBRANCH  23  24
ENDBRANCH  19  23
ENDBRANCH   1  17
TORSDOF 9
ENDMDL
MODEL 4
REMARK VINA RESULT:    -7.039      7.307      9.294
REMARK INTER + INTRA:         -10.559
REMARK INTER:                  -9.724
REMARK INTRA:                  -0.835
REMARK CONF_INDEPENDENT:        2.685
REMARK UNBOUND:                -0.835
REMARK  9 active torsions:
REMARK  status: ('A' for Active; 'I' for Inactive)
REMARK    1  A    between atoms: C_2  and  C_3 
REMARK    2  A    between atoms: C_3  and  C_4 
REMARK    3  A    between atoms: C_4  and  C_5 
REMARK    4  A    between atoms: C_5  and  N_6 
REMARK       I    between atoms: N_6  and  C_7 
REMARK       I    between atoms: C_7  and  N_9 
REMARK    5  A    between atoms: N_9  and  N_10 
REMARK       I    between atoms: N_10  and  C_11 
REMARK    6  A    between atoms: C_11  and  C_13 
REMARK    7  A    between atoms: C_14  and  C_15 
REMARK    8  A    between atoms: C_17  and  O_18 
REMARK    9  A    between atoms: C_21  and  O_22 
ROOT
ATOM      1  N   UNL d   1      29.291 -14.824   3.755  0.00  0.00    -0.263 N 
ATOM      2  C   UNL d   1      28.835 -14.168   2.618  0.00  0.00     0.259 C 
ATOM      3  O   UNL d   1      29.130 -12.999   2.362  0.00  0.00    -0.267 OA
ATOM      4  H   UNL d   1      29.065 -15.788   3.996  0.00  0.00     0.190 HD
ENDROOT
BRANCH   2   5
ATOM      5  C   UNL d   1      27.939 -14.974   1.704  0.00  0.00     0.076 C 
ATOM      6  C   UNL d   1      27.372 -14.435   0.599  0.00  0.00     0.017 C 
BRANCH   6   7
ATOM      7  C   UNL d   1      26.412 -15.107  -0.320  0.00  0.00    -0.031 A 
ATOM      8  C   UNL d   1      25.860 -16.371  -0.026  0.00  0.00     0.048 A 
ATOM      9  C   UNL d   1      25.143 -17.099  -0.997  0.00  0.00     0.071 A 
ATOM     10  C   UNL d   1      24.880 -16.513  -2.234  0.00  0.00     0.073 A 
ATOM     11  C   UNL d   1      25.406 -15.260  -2.541  0.00  0.00     0.071 A 
ATOM     12  C   UNL d   1      26.169 -14.572  -1.591  0.00  0.00     0.048 A 
BRANCH   9  13
ATOM     13  O   UNL d   1      24.787 -18.384  -0.663  0.00  0.00    -0.356 OA
ATOM     14  C   UNL d   1      23.385 -18.631  -0.518  0.00  0.00     0.210 C 
ENDBRANCH   9  13
BRANCH  11  15
ATOM     15  O   UNL d   1      25.155 -14.827  -3.817  0.00  0.00    -0.356 OA
ATOM     16  C   UNL d   1      25.076 -13.416  -3.985  0.00  0.00     0.210 C 
ENDBRANCH  11  15
ENDBRANCH   6   7
ENDBRANCH   2   5
BRANCH   1  17
ATOM     17  N   UNL d   1      30.170 -14.148   4.680  0.00  0.00    -0.249 N 
ATOM     18  C   UNL d   1      29.650 -13.581   5.837  0.00  0.00     0.334 C 
ATOM     19  N   UNL d   1      30.578 -12.962   6.657  0.00  0.00    -0.342 N 
ATOM     20  O   UNL d   1      28.448 -13.627   6.103  0.00  0.00    -0.246 OA
ATOM     21  H   UNL d   1      31.554 -12.952   6.396  0.00  0.00     0.164 HD
ATOM     22  H   UNL d   1      31.155 -14.135   4.431  0.00  0.00     0.192 HD
BRANCH  19  23
ATOM     23  C   UNL d   1      30.180 -12.313   7.915  0.00  0.00     0.124 C 
BRANCH  23  24
ATOM     24  C   UNL d   1      29.224 -13.146   8.787  0.00  0.00     0.020 C 
BRANCH  24  25
ATOM     25  C   UNL d   1      28.292 -12.260   9.632  0.00  0.00     0.001 C 
BRANCH  25  26
ATOM     26  C   UNL d   1      27.876 -12.951  10.936  0.00  0.00    -0.004 C 
ATOM     27  C   UNL d   1      28.155 -14.448  10.886  0.00  0.00     0.005 C 
ENDBRANCH  25  26
ENDBRANCH  24  25
ENDBRANCH  23  24
ENDBRANCH  19  23
ENDBRANCH   1  17
TORSDOF 9
ENDMDL
MODEL 5
REMARK VINA RESULT:    -7.039      1.103      1.517
REMARK INTER + INTRA:         -11.088
REMARK INTER:                  -9.723
REMARK INTRA:                  -1.364
REMARK CONF_INDEPENDENT:        2.685
REMARK UNBOUND:                -1.364
REMARK  9 active torsions:
REMARK  status: ('A' for Active; 'I' for Inactive)
REMARK    1  A    between atoms: C_2  and  C_3 
REMARK    2  A    between atoms: C_3  and  C_4 
REMARK    3  A    between atoms: C_4  and  C_5 
REMARK    4  A    between atoms: C_5  and  N_6 
REMARK       I    between atoms: N_6  and  C_7 
REMARK       I    between atoms: C_7  and  N_9 
REMARK    5  A    between atoms: N_9  and  N_10 
REMARK       I    between atoms: N_10  and  C_11 
REMARK    6  A    between atoms: C_11  and  C_13 
REMARK    7  A    between atoms: C_14  and  C_15 
REMARK    8  A    between atoms: C_17  and  O_18 
REMARK    9  A    between atoms: C_21  and  O_22 
ROOT
ATOM      1  N   UNL d   1      24.053 -17.561  -0.858  0.00  0.00    -0.263 N 
ATOM      2  C   UNL d   1      25.429 -17.503  -0.670  0.00  0.00     0.259 C 
ATOM      3  O   UNL d   1      26.029 -18.277   0.079  0.00  0.00    -0.267 OA
ATOM      4  H   UNL d   1      23.527 -16.937  -1.467  0.00  0.00     0.190 HD
ENDROOT
BRANCH   2   5
ATOM      5  C   UNL d   1      26.157 -16.422  -1.435  0.00  0.00     0.076 C 
ATOM      6  C   UNL d   1      25.707 -15.959  -2.625  0.00  0.00     0.017 C 
BRANCH   6   7
ATOM      7  C   UNL d   1      26.385 -14.963  -3.501  0.00  0.00    -0.031 A 
ATOM      8  C   UNL d   1      25.746 -13.774  -3.908  0.00  0.00     0.048 A 
ATOM      9  C   UNL d   1      26.298 -12.956  -4.915  0.00  0.00     0.071 A 
ATOM     10  C   UNL d   1      27.551 -13.270  -5.440  0.00  0.00     0.073 A 
ATOM     11  C   UNL d   1      28.204 -14.435  -5.043  0.00  0.00     0.071 A 
ATOM     12  C   UNL d   1      27.618 -15.272  -4.087  0.00  0.00     0.048 A 
BRANCH   9  13
ATOM     13  O   UNL d   1      25.521 -11.910  -5.352  0.00  0.00    -0.356 OA
ATOM     14  C   UNL d   1      26.188 -10.654  -5.510  0.00  0.00     0.210 C 
ENDBRANCH   9  13
BRANCH  11  15
ATOM     15  O   UNL d   1      29.385 -14.681  -5.693  0.00  0.00    -0.356 OA
ATOM     16  C   UNL d   1      29.651 -16.047  -5.992  0.00  0.00     0.210 C 
ENDBRANCH  11  15
ENDBRANCH   6   7
ENDBRANCH   2   5
BRANCH   1  17
ATOM     17  N   UNL d   1      23.270 -18.572  -0.188  0.00  0.00    -0.249 N 
ATOM     18  C   UNL d   1      21.902 -18.652  -0.419  0.00  0.00     0.334 C 
ATOM     19  N   UNL d   1      21.247 -19.660   0.268  0.00  0.00    -0.342 N 
ATOM     20  O   UNL d   1      21.322 -17.876  -1.180  0.00  0.00    -0.246 OA
ATOM     21  H   UNL d   1      21.766 -20.272   0.880  0.00  0.00     0.164 HD
ATOM     22  H   UNL d   1      23.782 -19.198   0.427  0.00  0.00     0.192 HD
BRANCH  19  23
ATOM     23  C   UNL d   1      19.798 -19.868   0.130  0.00  0.00     0.124 C 
BRANCH  23  24
ATOM     24  C   UNL d   1      18.962 -19.324   1.302  0.00  0.00     0.020 C 
BRANCH  24  25
ATOM     25  C   UNL d   1      18.354 -20.453   2.153  0.00  0.00     0.001 C 
BRANCH  25  26
ATOM     26  C   UNL d   1      18.210 -21.754   1.355  0.00  0.00    -0.004 C 
ATOM     27  C   UNL d   1      17.282 -21.574   0.161  0.00  0.00     0.005 C 
ENDBRANCH  25  26
ENDBRANCH  24  25
ENDBRANCH  23  24
ENDBRANCH  19  23
ENDBRANCH   1  17
TORSDOF 9
ENDMDL
MODEL 6
REMARK VINA RESULT:    -6.929      7.341      9.330
REMARK INTER + INTRA:         -10.676
REMARK INTER:                  -9.613
REMARK INTRA:                  -1.063
REMARK CONF_INDEPENDENT:        2.685
REMARK UNBOUND:                -1.063
REMARK  9 active torsions:
REMARK  status: ('A' for Active; 'I' for Inactive)
REMARK    1  A    between atoms: C_2  and  C_3 
REMARK    2  A    between atoms: C_3  and  C_4 
REMARK    3  A    between atoms: C_4  and  C_5 
REMARK    4  A    between atoms: C_5  and  N_6 
REMARK       I    between atoms: N_6  and  C_7 
REMARK       I    between atoms: C_7  and  N_9 
REMARK    5  A    between atoms: N_9  and  N_10 
REMARK       I    between atoms: N_10  and  C_11 
REMARK    6  A    between atoms: C_11  and  C_13 
REMARK    7  A    between atoms: C_14  and  C_15 
REMARK    8  A    between atoms: C_17  and  O_18 
REMARK    9  A    between atoms: C_21  and  O_22 
ROOT
ATOM      1  N   UNL d   1      29.112 -14.824   3.951  0.00  0.00    -0.263 N 
ATOM      2  C   UNL d   1      28.807 -14.246   2.725  0.00  0.00     0.259 C 
ATOM      3  O   UNL d   1      29.330 -13.201   2.335  0.00  0.00    -0.267 OA
ATOM      4  H   UNL d   1      28.698 -15.685   4.303  0.00  0.00     0.190 HD
ENDROOT
BRANCH   2   5
ATOM      5  C   UNL d   1      27.779 -14.974   1.888  0.00  0.00     0.076 C 
ATOM      6  C   UNL d   1      27.899 -15.089   0.545  0.00  0.00     0.017 C 
BRANCH   6   7
ATOM      7  C   UNL d   1      26.911 -15.707  -0.383  0.00  0.00    -0.031 A 
ATOM      8  C   UNL d   1      26.576 -15.113  -1.617  0.00  0.00     0.048 A 
ATOM      9  C   UNL d   1      25.481 -15.572  -2.376  0.00  0.00     0.071 A 
ATOM     10  C   UNL d   1      24.785 -16.704  -1.955  0.00  0.00     0.073 A 
ATOM     11  C   UNL d   1      25.107 -17.314  -0.743  0.00  0.00     0.071 A 
ATOM     12  C   UNL d   1      26.157 -16.811   0.032  0.00  0.00     0.048 A 
BRANCH   9  13
ATOM     13  O   UNL d   1      25.140 -14.826  -3.478  0.00  0.00    -0.356 OA
ATOM     14  C   UNL d   1      25.927 -15.044  -4.654  0.00  0.00     0.210 C 
ENDBRANCH   9  13
BRANCH  11  15
ATOM     15  O   UNL d   1      24.296 -18.362  -0.393  0.00  0.00    -0.356 OA
ATOM     16  C   UNL d   1      23.087 -18.480  -1.135  0.00  0.00     0.210 C 
ENDBRANCH  11  15
ENDBRANCH   6   7
ENDBRANCH   2   5
BRANCH   1  17
ATOM     17  N   UNL d   1      30.098 -14.217   4.815  0.00  0.00    -0.249 N 
ATOM     18  C   UNL d   1      29.759 -13.883   6.120  0.00  0.00     0.334 C 
ATOM     19  N   UNL d   1      30.778 -13.312   6.864  0.00  0.00    -0.342 N 
ATOM     20  O   UNL d   1      28.632 -14.082   6.574  0.00  0.00    -0.246 OA
ATOM     21  H   UNL d   1      31.687 -13.170   6.448  0.00  0.00     0.164 HD
ATOM     22  H   UNL d   1      31.018 -14.073   4.409  0.00  0.00     0.192 HD
BRANCH  19  23
ATOM     23  C   UNL d   1      30.572 -12.902   8.261  0.00  0.00     0.124 C 
BRANCH  23  24
ATOM     24  C   UNL d   1      30.540 -14.065   9.268  0.00  0.00     0.020 C 
BRANCH  24  25
ATOM     25  C   UNL d   1      29.102 -14.500   9.603  0.00  0.00     0.001 C 
BRANCH  25  26
ATOM     26  C   UNL d   1      28.209 -13.303   9.950  0.00  0.00    -0.004 C 
ATOM     27  C   UNL d   1      27.781 -13.334  11.411  0.00  0.00     0.005 C 
ENDBRANCH  25  26
ENDBRANCH  24  25
ENDBRANCH  23  24
ENDBRANCH  19  23
ENDBRANCH   1  17
TORSDOF 9
ENDMDL
MODEL 7
REMARK VINA RESULT:    -6.563      1.983      3.536
REMARK INTER + INTRA:         -10.708
REMARK INTER:                  -9.247
REMARK INTRA:                  -1.461
REMARK CONF_INDEPENDENT:        2.685
REMARK UNBOUND:                -1.461
REMARK  9 active torsions:
REMARK  status: ('A' for Active; 'I' for Inactive)
REMARK    1  A    between atoms: C_2  and  C_3 
REMARK    2  A    between atoms: C_3  and  C_4 
REMARK    3  A    between atoms: C_4  and  C_5 
REMARK    4  A    between atoms: C_5  and  N_6 
REMARK       I    between atoms: N_6  and  C_7 
REMARK       I    between atoms: C_7  and  N_9 
REMARK    5  A    between atoms: N_9  and  N_10 
REMARK       I    between atoms: N_10  and  C_11 
REMARK    6  A    between atoms: C_11  and  C_13 
REMARK    7  A    between atoms: C_14  and  C_15 
REMARK    8  A    between atoms: C_17  and  O_18 
REMARK    9  A    between atoms: C_21  and  O_22 
ROOT
ATOM      1  N   UNL d   1      24.852 -16.795  -1.757  0.00  0.00    -0.263 N 
ATOM      2  C   UNL d   1      25.774 -15.763  -1.630  0.00  0.00     0.259 C 
ATOM      3  O   UNL d   1      25.779 -14.991  -0.669  0.00  0.00    -0.267 OA
ATOM      4  H   UNL d   1      24.819 -17.448  -2.538  0.00  0.00     0.190 HD
ENDROOT
BRANCH   2   5
ATOM      5  C   UNL d   1      26.779 -15.632  -2.752  0.00  0.00     0.076 C 
ATOM      6  C   UNL d   1      26.583 -14.793  -3.796  0.00  0.00     0.017 C 
BRANCH   6   7
ATOM      7  C   UNL d   1      27.459 -14.647  -4.992  0.00  0.00    -0.031 A 
ATOM      8  C   UNL d   1      28.481 -15.573  -5.283  0.00  0.00     0.048 A 
ATOM      9  C   UNL d   1      29.449 -15.307  -6.273  0.00  0.00     0.071 A 
ATOM     10  C   UNL d   1      29.329 -14.158  -7.054  0.00  0.00     0.073 A 
ATOM     11  C   UNL d   1      28.319 -13.234  -6.790  0.00  0.00     0.071 A 
ATOM     12  C   UNL d   1      27.401 -13.480  -5.763  0.00  0.00     0.048 A 
BRANCH   9  13
ATOM     13  O   UNL d   1      30.492 -16.195  -6.368  0.00  0.00    -0.356 OA
ATOM     14  C   UNL d   1      31.493 -15.889  -7.344  0.00  0.00     0.210 C 
ENDBRANCH   9  13
BRANCH  11  15
ATOM     15  O   UNL d   1      28.357 -12.104  -7.563  0.00  0.00    -0.356 OA
ATOM     16  C   UNL d   1      29.038 -12.231  -8.807  0.00  0.00     0.210 C 
ENDBRANCH  11  15
ENDBRANCH   6   7
ENDBRANCH   2   5
BRANCH   1  17
ATOM     17  N   UNL d   1      23.864 -17.017  -0.727  0.00  0.00    -0.249 N 
ATOM     18  C   UNL d   1      23.001 -18.101  -0.821  0.00  0.00     0.334 C 
ATOM     19  N   UNL d   1      22.097 -18.226   0.221  0.00  0.00    -0.342 N 
ATOM     20  O   UNL d   1      23.042 -18.889  -1.767  0.00  0.00    -0.246 OA
ATOM     21  H   UNL d   1      22.103 -17.555   0.976  0.00  0.00     0.164 HD
ATOM     22  H   UNL d   1      23.863 -16.351   0.040  0.00  0.00     0.192 HD
BRANCH  19  23
ATOM     23  C   UNL d   1      21.117 -19.321   0.262  0.00  0.00     0.124 C 
BRANCH  23  24
ATOM     24  C   UNL d   1      20.082 -19.291  -0.876  0.00  0.00     0.020 C 
BRANCH  24  25
ATOM     25  C   UNL d   1      18.801 -20.063  -0.514  0.00  0.00     0.001 C 
BRANCH  25  26
ATOM     26  C   UNL d   1      19.023 -21.017   0.665  0.00  0.00    -0.004 C 
ATOM     27  C   UNL d   1      18.461 -20.443   1.959  0.00  0.00     0.005 C 
ENDBRANCH  25  26
ENDBRANCH  24  25
ENDBRANCH  23  24
ENDBRANCH  19  23
ENDBRANCH   1  17
TORSDOF 9
ENDMDL
MODEL 8
REMARK VINA RESULT:    -6.544      1.966      2.922
REMARK INTER + INTRA:         -10.670
REMARK INTER:                  -9.228
REMARK INTRA:                  -1.442
REMARK CONF_INDEPENDENT:        2.685
REMARK UNBOUND:                -1.442
REMARK  9 active torsions:
REMARK  status: ('A' for Active; 'I' for Inactive)
REMARK    1  A    between atoms: C_2  and  C_3 
REMARK    2  A    between atoms: C_3  and  C_4 
REMARK    3  A    between atoms: C_4  and  C_5 
REMARK    4  A    between atoms: C_5  and  N_6 
REMARK       I    between atoms: N_6  and  C_7 
REMARK       I    between atoms: C_7  and  N_9 
REMARK    5  A    between atoms: N_9  and  N_10 
REMARK       I    between atoms: N_10  and  C_11 
REMARK    6  A    between atoms: C_11  and  C_13 
REMARK    7  A    between atoms: C_14  and  C_15 
REMARK    8  A    between atoms: C_17  and  O_18 
REMARK    9  A    between atoms: C_21  and  O_22 
ROOT
ATOM      1  N   UNL d   1      24.829 -16.807  -1.771  0.00  0.00    -0.263 N 
ATOM      2  C   UNL d   1      25.767 -15.790  -1.641  0.00  0.00     0.259 C 
ATOM      3  O   UNL d   1      25.787 -15.024  -0.675  0.00  0.00    -0.267 OA
ATOM      4  H   UNL d   1      24.784 -17.454  -2.556  0.00  0.00     0.190 HD
ENDROOT
BRANCH   2   5
ATOM      5  C   UNL d   1      26.769 -15.666  -2.766  0.00  0.00     0.076 C 
ATOM      6  C   UNL d   1      26.759 -14.619  -3.624  0.00  0.00     0.017 C 
BRANCH   6   7
ATOM      7  C   UNL d   1      27.639 -14.439  -4.812  0.00  0.00    -0.031 A 
ATOM      8  C   UNL d   1      27.464 -13.369  -5.713  0.00  0.00     0.048 A 
ATOM      9  C   UNL d   1      28.141 -13.335  -6.949  0.00  0.00     0.071 A 
ATOM     10  C   UNL d   1      29.084 -14.320  -7.237  0.00  0.00     0.073 A 
ATOM     11  C   UNL d   1      29.282 -15.381  -6.356  0.00  0.00     0.071 A 
ATOM     12  C   UNL d   1      28.558 -15.436  -5.159  0.00  0.00     0.048 A 
BRANCH   9  13
ATOM     13  O   UNL d   1      27.780 -12.336  -7.820  0.00  0.00    -0.356 OA
ATOM     14  C   UNL d   1      28.524 -12.267  -9.041  0.00  0.00     0.210 C 
ENDBRANCH   9  13
BRANCH  11  15
ATOM     15  O   UNL d   1      30.168 -16.332  -6.789  0.00  0.00    -0.356 OA
ATOM     16  C   UNL d   1      31.355 -15.836  -7.397  0.00  0.00     0.210 C 
ENDBRANCH  11  15
ENDBRANCH   6   7
ENDBRANCH   2   5
BRANCH   1  17
ATOM     17  N   UNL d   1      23.842 -17.021  -0.739  0.00  0.00    -0.249 N 
ATOM     18  C   UNL d   1      22.982 -18.108  -0.821  0.00  0.00     0.334 C 
ATOM     19  N   UNL d   1      22.079 -18.224   0.222  0.00  0.00    -0.342 N 
ATOM     20  O   UNL d   1      23.024 -18.905  -1.760  0.00  0.00    -0.246 OA
ATOM     21  H   UNL d   1      22.083 -17.546   0.970  0.00  0.00     0.164 HD
ATOM     22  H   UNL d   1      23.840 -16.348   0.023  0.00  0.00     0.192 HD
BRANCH  19  23
ATOM     23  C   UNL d   1      21.101 -19.321   0.274  0.00  0.00     0.124 C 
BRANCH  23  24
ATOM     24  C   UNL d   1      20.086 -19.324  -0.882  0.00  0.00     0.020 C 
BRANCH  24  25
ATOM     25  C   UNL d   1      18.793 -20.075  -0.516  0.00  0.00     0.001 C 
BRANCH  25  26
ATOM     26  C   UNL d   1      19.008 -21.046   0.650  0.00  0.00    -0.004 C 
ATOM     27  C   UNL d   1      18.527 -20.450   1.966  0.00  0.00     0.005 C 
ENDBRANCH  25  26
ENDBRANCH  24  25
ENDBRANCH  23  24
ENDBRANCH  19  23
ENDBRANCH   1  17
TORSDOF 9
ENDMDL
MODEL 9
REMARK VINA RESULT:    -6.392      1.757      2.387
REMARK INTER + INTRA:         -10.611
REMARK INTER:                  -9.077
REMARK INTRA:                  -1.534
REMARK CONF_INDEPENDENT:        2.685
REMARK UNBOUND:                -1.534
REMARK  9 active torsions:
REMARK  status: ('A' for Active; 'I' for Inactive)
REMARK    1  A    between atoms: C_2  and  C_3 
REMARK    2  A    between atoms: C_3  and  C_4 
REMARK    3  A    between atoms: C_4  and  C_5 
REMARK    4  A    between atoms: C_5  and  N_6 
REMARK       I    between atoms: N_6  and  C_7 
REMARK       I    between atoms: C_7  and  N_9 
REMARK    5  A    between atoms: N_9  and  N_10 
REMARK       I    between atoms: N_10  and  C_11 
REMARK    6  A    between atoms: C_11  and  C_13 
REMARK    7  A    between atoms: C_14  and  C_15 
REMARK    8  A    between atoms: C_17  and  O_18 
REMARK    9  A    between atoms: C_21  and  O_22 
ROOT
ATOM      1  N   UNL d   1      23.338 -17.761  -0.578  0.00  0.00    -0.263 N 
ATOM      2  C   UNL d   1      24.707 -17.980  -0.476  0.00  0.00     0.259 C 
ATOM      3  O   UNL d   1      25.182 -19.065  -0.132  0.00  0.00    -0.267 OA
ATOM      4  H   UNL d   1      22.914 -16.878  -0.857  0.00  0.00     0.190 HD
ENDROOT
BRANCH   2   5
ATOM      5  C   UNL d   1      25.592 -16.801  -0.806  0.00  0.00     0.076 C 
ATOM      6  C   UNL d   1      25.105 -15.678  -1.385  0.00  0.00     0.017 C 
BRANCH   6   7
ATOM      7  C   UNL d   1      25.895 -14.496  -1.828  0.00  0.00    -0.031 A 
ATOM      8  C   UNL d   1      26.660 -13.730  -0.925  0.00  0.00     0.048 A 
ATOM      9  C   UNL d   1      27.211 -12.489  -1.303  0.00  0.00     0.071 A 
ATOM     10  C   UNL d   1      27.092 -12.063  -2.625  0.00  0.00     0.073 A 
ATOM     11  C   UNL d   1      26.349 -12.810  -3.537  0.00  0.00     0.071 A 
ATOM     12  C   UNL d   1      25.755 -14.011  -3.134  0.00  0.00     0.048 A 
BRANCH   9  13
ATOM     13  O   UNL d   1      27.799 -11.748  -0.306  0.00  0.00    -0.356 OA
ATOM     14  C   UNL d   1      28.461 -12.491   0.723  0.00  0.00     0.210 C 
ENDBRANCH   9  13
BRANCH  11  15
ATOM     15  O   UNL d   1      26.230 -12.246  -4.780  0.00  0.00    -0.356 OA
ATOM     16  C   UNL d   1      27.078 -12.787  -5.787  0.00  0.00     0.210 C 
ENDBRANCH  11  15
ENDBRANCH   6   7
ENDBRANCH   2   5
BRANCH   1  17
ATOM     17  N   UNL d   1      22.409 -18.832  -0.304  0.00  0.00    -0.249 N 
ATOM     18  C   UNL d   1      21.081 -18.710  -0.694  0.00  0.00     0.334 C 
ATOM     19  N   UNL d   1      20.276 -19.795  -0.389  0.00  0.00    -0.342 N 
ATOM     20  O   UNL d   1      20.659 -17.705  -1.267  0.00  0.00    -0.246 OA
ATOM     21  H   UNL d   1      20.669 -20.597   0.081  0.00  0.00     0.164 HD
ATOM     22  H   UNL d   1      22.793 -19.647   0.165  0.00  0.00     0.192 HD
BRANCH  19  23
ATOM     23  C   UNL d   1      18.847 -19.813  -0.735  0.00  0.00     0.124 C 
BRANCH  23  24
ATOM     24  C   UNL d   1      18.008 -20.815   0.077  0.00  0.00     0.020 C 
BRANCH  24  25
ATOM     25  C   UNL d   1      18.788 -21.385   1.275  0.00  0.00     0.001 C 
BRANCH  25  26
ATOM     26  C   UNL d   1      18.845 -20.394   2.443  0.00  0.00    -0.004 C 
ATOM     27  C   UNL d   1      20.283 -20.079   2.835  0.00  0.00     0.005 C 
ENDBRANCH  25  26
ENDBRANCH  24  25
ENDBRANCH  23  24
ENDBRANCH  19  23
ENDBRANCH   1  17
TORSDOF 9
ENDMDL
