MODEL 1
REMARK VINA RESULT:    -8.192      0.000      0.000
REMARK INTER + INTRA:         -13.342
REMARK INTER:                 -10.877
REMARK INTRA:                  -2.465
REMARK CONF_INDEPENDENT:        2.685
REMARK UNBOUND:                -2.465
REMARK  9 active torsions:
REMARK  status: ('A' for Active; 'I' for Inactive)
REMARK    1  A    between atoms: C_4  and  O_5 
REMARK    2  A    between atoms: O_5  and  C_6 
REMARK    3  A    between atoms: C_6  and  C_7 
REMARK       I    between atoms: C_7  and  N_9 
REMARK    4  A    between atoms: N_9  and  N_10 
REMARK    5  A    between atoms: N_10  and  C_11 
REMARK    6  A    between atoms: C_11  and  N_13 
REMARK       I    between atoms: N_13  and  C_14 
REMARK    7  A    between atoms: C_14  and  C_16 
REMARK    8  A    between atoms: C_17  and  C_18 
REMARK    9  A    between atoms: C_21  and  N_22 
ROOT
ATOM      1  N   UNL d   1      26.979 -15.579  -2.617  0.00  0.00    -0.273 N 
ATOM      2  H   UNL d   1      26.101 -15.076  -2.737  0.00  0.00     0.189 HD
ENDROOT
BRANCH   1   3
ATOM      3  N   UNL d   1      27.991 -15.275  -3.637  0.00  0.00    -0.266 N 
ATOM      4  C   UNL d   1      27.682 -15.294  -4.995  0.00  0.00     0.260 C 
ATOM      5  O   UNL d   1      26.544 -15.570  -5.379  0.00  0.00    -0.269 OA
ATOM      6  H   UNL d   1      28.918 -15.053  -3.273  0.00  0.00     0.190 HD
BRANCH   4   7
ATOM      7  C   UNL d   1      28.856 -14.949  -5.970  0.00  0.00     0.280 C 
BRANCH   7   8
ATOM      8  O   UNL d   1      30.133 -15.277  -5.396  0.00  0.00    -0.342 OA
BRANCH   8   9
ATOM      9  C   UNL d   1      30.448 -16.595  -5.171  0.00  0.00     0.070 A 
ATOM     10  C   UNL d   1      30.404 -17.606  -6.127  0.00  0.00     0.045 A 
ATOM     11  C   UNL d   1      30.760 -18.931  -5.807  0.00  0.00    -0.037 A 
ATOM     12  C   UNL d   1      30.711 -19.974  -6.890  0.00  0.00     0.050 C 
ATOM     13  C   UNL d   1      31.157 -19.246  -4.495  0.00  0.00     0.046 A 
ATOM     14  C   UNL d   1      31.200 -18.247  -3.508  0.00  0.00    -0.037 A 
ATOM     15 CL   UNL d   1      31.597 -20.879  -4.098  0.00  0.00    -0.083 Cl
ATOM     16  C   UNL d   1      30.845 -16.927  -3.864  0.00  0.00     0.045 A 
ATOM     17  C   UNL d   1      31.611 -18.565  -2.094  0.00  0.00     0.050 C 
ENDBRANCH   8   9
ENDBRANCH   7   8
ENDBRANCH   4   7
ENDBRANCH   1   3
BRANCH   1  18
ATOM     18  C   UNL d   1      27.293 -16.499  -1.595  0.00  0.00     0.193 C 
ATOM     19  S   UNL d   1      28.871 -16.538  -0.992  0.00  0.00    -0.039 SA
BRANCH  18  20
ATOM     20  N   UNL d   1      26.228 -17.331  -1.152  0.00  0.00    -0.299 N 
ATOM     21  C   UNL d   1      24.857 -17.134  -1.417  0.00  0.00     0.247 C 
ATOM     22  O   UNL d   1      24.404 -16.180  -2.058  0.00  0.00    -0.268 OA
ATOM     23  H   UNL d   1      26.473 -18.144  -0.604  0.00  0.00     0.171 HD
BRANCH  21  24
ATOM     24  C   UNL d   1      23.857 -18.129  -0.884  0.00  0.00     0.075 C 
ATOM     25  C   UNL d   1      22.534 -17.837  -0.972  0.00  0.00     0.017 C 
BRANCH  25  26
ATOM     26  C   UNL d   1      21.418 -18.652  -0.442  0.00  0.00    -0.036 A 
ATOM     27  C   UNL d   1      20.342 -19.054  -1.260  0.00  0.00     0.014 A 
ATOM     28  C   UNL d   1      19.241 -19.746  -0.722  0.00  0.00     0.037 A 
ATOM     29  C   UNL d   1      19.241 -20.092   0.633  0.00  0.00     0.102 A 
ATOM     30  C   UNL d   1      20.287 -19.676   1.464  0.00  0.00     0.037 A 
ATOM     31  C   UNL d   1      21.356 -18.950   0.925  0.00  0.00     0.014 A 
BRANCH  29  32
ATOM     32  N   UNL d   1      18.175 -20.946   1.181  0.00  0.00    -0.116 N 
ATOM     33  O   UNL d   1      17.926 -22.007   0.595  0.00  0.00    -0.532 OA
ATOM     34  O   UNL d   1      17.609 -20.565   2.218  0.00  0.00    -0.532 OA
ENDBRANCH  29  32
ENDBRANCH  25  26
ENDBRANCH  21  24
ENDBRANCH  18  20
ENDBRANCH   1  18
TORSDOF 9
ENDMDL
MODEL 2
REMARK VINA RESULT:    -8.187      2.478      3.400
REMARK INTER + INTRA:         -12.753
REMARK INTER:                 -10.871
REMARK INTRA:                  -1.881
REMARK CONF_INDEPENDENT:        2.685
REMARK UNBOUND:                -1.881
REMARK  9 active torsions:
REMARK  status: ('A' for Active; 'I' for Inactive)
REMARK    1  A    between atoms: C_4  and  O_5 
REMARK    2  A    between atoms: O_5  and  C_6 
REMARK    3  A    between atoms: C_6  and  C_7 
REMARK       I    between atoms: C_7  and  N_9 
REMARK    4  A    between atoms: N_9  and  N_10 
REMARK    5  A    between atoms: N_10  and  C_11 
REMARK    6  A    between atoms: C_11  and  N_13 
REMARK       I    between atoms: N_13  and  C_14 
REMARK    7  A    between atoms: C_14  and  C_16 
REMARK    8  A    between atoms: C_17  and  C_18 
REMARK    9  A    between atoms: C_21  and  N_22 
ROOT
ATOM      1  N   UNL d   1      26.657 -15.299  -1.894  0.00  0.00    -0.273 N 
ATOM      2  H   UNL d   1      26.081 -14.501  -1.629  0.00  0.00     0.189 HD
ENDROOT
BRANCH   1   3
ATOM      3  N   UNL d   1      27.124 -15.266  -3.286  0.00  0.00    -0.266 N 
ATOM      4  C   UNL d   1      26.299 -14.829  -4.320  0.00  0.00     0.260 C 
ATOM      5  O   UNL d   1      25.146 -14.458  -4.092  0.00  0.00    -0.269 OA
ATOM      6  H   UNL d   1      28.084 -15.583  -3.428  0.00  0.00     0.190 HD
BRANCH   4   7
ATOM      7  C   UNL d   1      26.927 -14.845  -5.752  0.00  0.00     0.280 C 
BRANCH   7   8
ATOM      8  O   UNL d   1      28.162 -15.581  -5.779  0.00  0.00    -0.342 OA
BRANCH   8   9
ATOM      9  C   UNL d   1      29.238 -15.059  -6.455  0.00  0.00     0.070 A 
ATOM     10  C   UNL d   1      29.352 -13.741  -6.888  0.00  0.00     0.045 A 
ATOM     11  C   UNL d   1      30.504 -13.291  -7.563  0.00  0.00    -0.037 A 
ATOM     12  C   UNL d   1      30.576 -11.849  -7.987  0.00  0.00     0.050 C 
ATOM     13  C   UNL d   1      31.556 -14.189  -7.819  0.00  0.00     0.046 A 
ATOM     14  C   UNL d   1      31.462 -15.527  -7.403  0.00  0.00    -0.037 A 
ATOM     15 CL   UNL d   1      32.977 -13.636  -8.651  0.00  0.00    -0.083 Cl
ATOM     16  C   UNL d   1      30.297 -15.945  -6.720  0.00  0.00     0.045 A 
ATOM     17  C   UNL d   1      32.572 -16.509  -7.676  0.00  0.00     0.050 C 
ENDBRANCH   8   9
ENDBRANCH   7   8
ENDBRANCH   4   7
ENDBRANCH   1   3
BRANCH   1  18
ATOM     18  C   UNL d   1      27.031 -16.382  -1.073  0.00  0.00     0.193 C 
ATOM     19  S   UNL d   1      28.668 -16.605  -0.716  0.00  0.00    -0.039 SA
BRANCH  18  20
ATOM     20  N   UNL d   1      25.973 -17.209  -0.606  0.00  0.00    -0.299 N 
ATOM     21  C   UNL d   1      24.594 -16.962  -0.769  0.00  0.00     0.247 C 
ATOM     22  O   UNL d   1      24.129 -15.963  -1.327  0.00  0.00    -0.268 OA
ATOM     23  H   UNL d   1      26.228 -18.057  -0.119  0.00  0.00     0.171 HD
BRANCH  21  24
ATOM     24  C   UNL d   1      23.601 -17.958  -0.225  0.00  0.00     0.075 C 
ATOM     25  C   UNL d   1      22.302 -17.864  -0.609  0.00  0.00     0.017 C 
BRANCH  25  26
ATOM     26  C   UNL d   1      21.181 -18.702  -0.127  0.00  0.00    -0.036 A 
ATOM     27  C   UNL d   1      21.067 -19.074   1.228  0.00  0.00     0.014 A 
ATOM     28  C   UNL d   1      20.051 -19.949   1.656  0.00  0.00     0.037 A 
ATOM     29  C   UNL d   1      19.106 -20.411   0.733  0.00  0.00     0.102 A 
ATOM     30  C   UNL d   1      19.223 -20.073  -0.620  0.00  0.00     0.037 A 
ATOM     31  C   UNL d   1      20.264 -19.237  -1.040  0.00  0.00     0.014 A 
BRANCH  29  32
ATOM     32  N   UNL d   1      17.950 -21.201   1.186  0.00  0.00    -0.116 N 
ATOM     33  O   UNL d   1      17.259 -20.740   2.104  0.00  0.00    -0.532 OA
ATOM     34  O   UNL d   1      17.719 -22.270   0.600  0.00  0.00    -0.532 OA
ENDBRANCH  29  32
ENDBRANCH  25  26
ENDBRANCH  21  24
ENDBRANCH  18  20
ENDBRANCH   1  18
TORSDOF 9
ENDMDL
MODEL 3
REMARK VINA RESULT:    -8.141      1.183      1.460
REMARK INTER + INTRA:         -12.800
REMARK INTER:                 -10.826
REMARK INTRA:                  -1.974
REMARK CONF_INDEPENDENT:        2.685
REMARK UNBOUND:                -1.974
REMARK  9 active torsions:
REMARK  status: ('A' for Active; 'I' for Inactive)
REMARK    1  A    between atoms: C_4  and  O_5 
REMARK    2  A    between atoms: O_5  and  C_6 
REMARK    3  A    between atoms: C_6  and  C_7 
REMARK       I    between atoms: C_7  and  N_9 
REMARK    4  A    between atoms: N_9  and  N_10 
REMARK    5  A    between atoms: N_10  and  C_11 
REMARK    6  A    between atoms: C_11  and  N_13 
REMARK       I    between atoms: N_13  and  C_14 
REMARK    7  A    between atoms: C_14  and  C_16 
REMARK    8  A    between atoms: C_17  and  C_18 
REMARK    9  A    between atoms: C_21  and  N_22 
ROOT
ATOM      1  N   UNL d   1      26.855 -15.319  -2.638  0.00  0.00    -0.273 N 
ATOM      2  H   UNL d   1      26.024 -14.731  -2.671  0.00  0.00     0.189 HD
ENDROOT
BRANCH   1   3
ATOM      3  N   UNL d   1      27.865 -14.989  -3.653  0.00  0.00    -0.266 N 
ATOM      4  C   UNL d   1      27.588 -15.091  -5.014  0.00  0.00     0.260 C 
ATOM      5  O   UNL d   1      26.482 -15.467  -5.406  0.00  0.00    -0.269 OA
ATOM      6  H   UNL d   1      28.766 -14.683  -3.283  0.00  0.00     0.190 HD
BRANCH   4   7
ATOM      7  C   UNL d   1      28.755 -14.707  -5.982  0.00  0.00     0.280 C 
BRANCH   7   8
ATOM      8  O   UNL d   1      30.008 -15.263  -5.547  0.00  0.00    -0.342 OA
BRANCH   8   9
ATOM      9  C   UNL d   1      30.432 -16.457  -6.078  0.00  0.00     0.070 A 
ATOM     10  C   UNL d   1      31.175 -16.598  -7.246  0.00  0.00     0.045 A 
ATOM     11  C   UNL d   1      31.578 -17.867  -7.707  0.00  0.00    -0.037 A 
ATOM     12  C   UNL d   1      32.399 -17.951  -8.965  0.00  0.00     0.050 C 
ATOM     13  C   UNL d   1      31.215 -19.017  -6.984  0.00  0.00     0.046 A 
ATOM     14  C   UNL d   1      30.455 -18.904  -5.807  0.00  0.00    -0.037 A 
ATOM     15 CL   UNL d   1      31.712 -20.583  -7.550  0.00  0.00    -0.083 Cl
ATOM     16  C   UNL d   1      30.075 -17.616  -5.367  0.00  0.00     0.045 A 
ATOM     17  C   UNL d   1      30.045 -20.124  -5.023  0.00  0.00     0.050 C 
ENDBRANCH   8   9
ENDBRANCH   7   8
ENDBRANCH   4   7
ENDBRANCH   1   3
BRANCH   1  18
ATOM     18  C   UNL d   1      27.110 -16.374  -1.738  0.00  0.00     0.193 C 
ATOM     19  S   UNL d   1      28.645 -16.496  -1.042  0.00  0.00    -0.039 SA
BRANCH  18  20
ATOM     20  N   UNL d   1      26.027 -17.261  -1.489  0.00  0.00    -0.299 N 
ATOM     21  C   UNL d   1      24.661 -16.984  -1.710  0.00  0.00     0.247 C 
ATOM     22  O   UNL d   1      24.231 -15.906  -2.132  0.00  0.00    -0.268 OA
ATOM     23  H   UNL d   1      26.252 -18.177  -1.128  0.00  0.00     0.171 HD
BRANCH  21  24
ATOM     24  C   UNL d   1      23.640 -18.051  -1.408  0.00  0.00     0.075 C 
ATOM     25  C   UNL d   1      22.475 -17.689  -0.811  0.00  0.00     0.017 C 
BRANCH  25  26
ATOM     26  C   UNL d   1      21.392 -18.601  -0.375  0.00  0.00    -0.036 A 
ATOM     27  C   UNL d   1      20.399 -19.048  -1.269  0.00  0.00     0.014 A 
ATOM     28  C   UNL d   1      19.322 -19.836  -0.821  0.00  0.00     0.037 A 
ATOM     29  C   UNL d   1      19.267 -20.229   0.520  0.00  0.00     0.102 A 
ATOM     30  C   UNL d   1      20.230 -19.769   1.425  0.00  0.00     0.037 A 
ATOM     31  C   UNL d   1      21.273 -18.950   0.976  0.00  0.00     0.014 A 
BRANCH  29  32
ATOM     32  N   UNL d   1      18.237 -21.175   0.975  0.00  0.00    -0.116 N 
ATOM     33  O   UNL d   1      17.281 -21.396   0.220  0.00  0.00    -0.532 OA
ATOM     34  O   UNL d   1      18.403 -21.720   2.077  0.00  0.00    -0.532 OA
ENDBRANCH  29  32
ENDBRANCH  25  26
ENDBRANCH  21  24
ENDBRANCH  18  20
ENDBRANCH   1  18
TORSDOF 9
ENDMDL
MODEL 4
REMARK VINA RESULT:    -7.793      1.433      2.211
REMARK INTER + INTRA:         -12.501
REMARK INTER:                 -10.477
REMARK INTRA:                  -2.024
REMARK CONF_INDEPENDENT:        2.685
REMARK UNBOUND:                -2.024
REMARK  9 active torsions:
REMARK  status: ('A' for Active; 'I' for Inactive)
REMARK    1  A    between atoms: C_4  and  O_5 
REMARK    2  A    between atoms: O_5  and  C_6 
REMARK    3  A    between atoms: C_6  and  C_7 
REMARK       I    between atoms: C_7  and  N_9 
REMARK    4  A    between atoms: N_9  and  N_10 
REMARK    5  A    between atoms: N_10  and  C_11 
REMARK    6  A    between atoms: C_11  and  N_13 
REMARK       I    between atoms: N_13  and  C_14 
REMARK    7  A    between atoms: C_14  and  C_16 
REMARK    8  A    between atoms: C_17  and  C_18 
REMARK    9  A    between atoms: C_21  and  N_22 
ROOT
ATOM      1  N   UNL d   1      26.717 -15.095  -2.178  0.00  0.00    -0.273 N 
ATOM      2  H   UNL d   1      26.011 -14.443  -1.838  0.00  0.00     0.189 HD
ENDROOT
BRANCH   1   3
ATOM      3  N   UNL d   1      27.334 -14.701  -3.452  0.00  0.00    -0.266 N 
ATOM      4  C   UNL d   1      26.569 -14.489  -4.596  0.00  0.00     0.260 C 
ATOM      5  O   UNL d   1      25.344 -14.629  -4.570  0.00  0.00    -0.269 OA
ATOM      6  H   UNL d   1      28.349 -14.597  -3.426  0.00  0.00     0.190 HD
BRANCH   4   7
ATOM      7  C   UNL d   1      27.357 -14.073  -5.881  0.00  0.00     0.280 C 
BRANCH   7   8
ATOM      8  O   UNL d   1      28.011 -15.200  -6.489  0.00  0.00    -0.342 OA
BRANCH   8   9
ATOM      9  C   UNL d   1      29.249 -15.582  -6.033  0.00  0.00     0.070 A 
ATOM     10  C   UNL d   1      29.493 -16.642  -5.164  0.00  0.00     0.045 A 
ATOM     11  C   UNL d   1      30.803 -16.970  -4.762  0.00  0.00    -0.037 A 
ATOM     12  C   UNL d   1      31.004 -18.140  -3.837  0.00  0.00     0.050 C 
ATOM     13  C   UNL d   1      31.887 -16.208  -5.234  0.00  0.00     0.046 A 
ATOM     14  C   UNL d   1      31.668 -15.126  -6.103  0.00  0.00    -0.037 A 
ATOM     15 CL   UNL d   1      33.503 -16.611  -4.740  0.00  0.00    -0.083 Cl
ATOM     16  C   UNL d   1      30.343 -14.830  -6.495  0.00  0.00     0.045 A 
ATOM     17  C   UNL d   1      32.813 -14.290  -6.613  0.00  0.00     0.050 C 
ENDBRANCH   8   9
ENDBRANCH   7   8
ENDBRANCH   4   7
ENDBRANCH   1   3
BRANCH   1  18
ATOM     18  C   UNL d   1      27.137 -16.288  -1.555  0.00  0.00     0.193 C 
ATOM     19  S   UNL d   1      28.788 -16.645  -1.510  0.00  0.00    -0.039 SA
BRANCH  18  20
ATOM     20  N   UNL d   1      26.109 -17.103  -1.006  0.00  0.00    -0.299 N 
ATOM     21  C   UNL d   1      24.739 -16.776  -0.939  0.00  0.00     0.247 C 
ATOM     22  O   UNL d   1      24.259 -15.709  -1.335  0.00  0.00    -0.268 OA
ATOM     23  H   UNL d   1      26.380 -18.003  -0.636  0.00  0.00     0.171 HD
BRANCH  21  24
ATOM     24  C   UNL d   1      23.777 -17.769  -0.338  0.00  0.00     0.075 C 
ATOM     25  C   UNL d   1      22.530 -17.874  -0.866  0.00  0.00     0.017 C 
BRANCH  25  26
ATOM     26  C   UNL d   1      21.435 -18.735  -0.367  0.00  0.00    -0.036 A 
ATOM     27  C   UNL d   1      20.457 -19.265  -1.233  0.00  0.00     0.014 A 
ATOM     28  C   UNL d   1      19.367 -20.002  -0.733  0.00  0.00     0.037 A 
ATOM     29  C   UNL d   1      19.284 -20.262   0.639  0.00  0.00     0.102 A 
ATOM     30  C   UNL d   1      20.231 -19.720   1.515  0.00  0.00     0.037 A 
ATOM     31  C   UNL d   1      21.286 -18.951   1.009  0.00  0.00     0.014 A 
BRANCH  29  32
ATOM     32  N   UNL d   1      18.240 -21.157   1.162  0.00  0.00    -0.116 N 
ATOM     33  O   UNL d   1      17.548 -20.749   2.104  0.00  0.00    -0.532 OA
ATOM     34  O   UNL d   1      18.094 -22.257   0.608  0.00  0.00    -0.532 OA
ENDBRANCH  29  32
ENDBRANCH  25  26
ENDBRANCH  21  24
ENDBRANCH  18  20
ENDBRANCH   1  18
TORSDOF 9
ENDMDL
MODEL 5
REMARK VINA RESULT:    -7.746      6.937      9.315
REMARK INTER + INTRA:         -12.559
REMARK INTER:                 -10.431
REMARK INTRA:                  -2.128
REMARK CONF_INDEPENDENT:        2.685
REMARK UNBOUND:                -2.128
REMARK  9 active torsions:
REMARK  status: ('A' for Active; 'I' for Inactive)
REMARK    1  A    between atoms: C_4  and  O_5 
REMARK    2  A    between atoms: O_5  and  C_6 
REMARK    3  A    between atoms: C_6  and  C_7 
REMARK       I    between atoms: C_7  and  N_9 
REMARK    4  A    between atoms: N_9  and  N_10 
REMARK    5  A    between atoms: N_10  and  C_11 
REMARK    6  A    between atoms: C_11  and  N_13 
REMARK       I    between atoms: N_13  and  C_14 
REMARK    7  A    between atoms: C_14  and  C_16 
REMARK    8  A    between atoms: C_17  and  C_18 
REMARK    9  A    between atoms: C_21  and  N_22 
ROOT
ATOM      1  N   UNL d   1      31.308 -14.882   2.990  0.00  0.00    -0.273 N 
ATOM      2  H   UNL d   1      32.064 -14.628   3.625  0.00  0.00     0.189 HD
ENDROOT
BRANCH   1   3
ATOM      3  N   UNL d   1      29.971 -14.824   3.594  0.00  0.00    -0.266 N 
ATOM      4  C   UNL d   1      28.952 -14.059   3.031  0.00  0.00     0.260 C 
ATOM      5  O   UNL d   1      29.148 -13.404   2.006  0.00  0.00    -0.269 OA
ATOM      6  H   UNL d   1      29.855 -15.381   4.441  0.00  0.00     0.190 HD
BRANCH   4   7
ATOM      7  C   UNL d   1      27.578 -14.091   3.778  0.00  0.00     0.280 C 
BRANCH   7   8
ATOM      8  O   UNL d   1      27.705 -14.657   5.095  0.00  0.00    -0.342 OA
BRANCH   8   9
ATOM      9  C   UNL d   1      28.313 -13.922   6.084  0.00  0.00     0.070 A 
ATOM     10  C   UNL d   1      28.905 -14.450   7.227  0.00  0.00     0.045 A 
ATOM     11  C   UNL d   1      29.520 -13.617   8.183  0.00  0.00    -0.037 A 
ATOM     12  C   UNL d   1      30.161 -14.250   9.388  0.00  0.00     0.050 C 
ATOM     13  C   UNL d   1      29.527 -12.224   7.989  0.00  0.00     0.046 A 
ATOM     14  C   UNL d   1      28.927 -11.664   6.849  0.00  0.00    -0.037 A 
ATOM     15 CL   UNL d   1      30.285 -11.194   9.166  0.00  0.00    -0.083 Cl
ATOM     16  C   UNL d   1      28.327 -12.528   5.905  0.00  0.00     0.045 A 
ATOM     17  C   UNL d   1      28.913 -10.174   6.626  0.00  0.00     0.050 C 
ENDBRANCH   8   9
ENDBRANCH   7   8
ENDBRANCH   4   7
ENDBRANCH   1   3
BRANCH   1  18
ATOM     18  C   UNL d   1      31.432 -15.263   1.638  0.00  0.00     0.193 C 
ATOM     19  S   UNL d   1      32.957 -15.204   0.912  0.00  0.00    -0.039 SA
BRANCH  18  20
ATOM     20  N   UNL d   1      30.235 -15.675   0.991  0.00  0.00    -0.299 N 
ATOM     21  C   UNL d   1      30.145 -16.281  -0.280  0.00  0.00     0.247 C 
ATOM     22  O   UNL d   1      31.114 -16.510  -1.010  0.00  0.00    -0.268 OA
ATOM     23  H   UNL d   1      29.367 -15.529   1.487  0.00  0.00     0.171 HD
BRANCH  21  24
ATOM     24  C   UNL d   1      28.790 -16.674  -0.810  0.00  0.00     0.075 C 
ATOM     25  C   UNL d   1      27.715 -16.592   0.016  0.00  0.00     0.017 C 
BRANCH  25  26
ATOM     26  C   UNL d   1      26.329 -17.000  -0.304  0.00  0.00    -0.036 A 
ATOM     27  C   UNL d   1      25.490 -16.201  -1.106  0.00  0.00     0.014 A 
ATOM     28  C   UNL d   1      24.144 -16.552  -1.323  0.00  0.00     0.037 A 
ATOM     29  C   UNL d   1      23.648 -17.743  -0.781  0.00  0.00     0.102 A 
ATOM     30  C   UNL d   1      24.459 -18.532   0.040  0.00  0.00     0.037 A 
ATOM     31  C   UNL d   1      25.783 -18.149   0.284  0.00  0.00     0.014 A 
BRANCH  29  32
ATOM     32  N   UNL d   1      22.292 -18.204  -1.122  0.00  0.00    -0.116 N 
ATOM     33  O   UNL d   1      21.347 -17.438  -0.895  0.00  0.00    -0.532 OA
ATOM     34  O   UNL d   1      22.181 -19.324  -1.645  0.00  0.00    -0.532 OA
ENDBRANCH  29  32
ENDBRANCH  25  26
ENDBRANCH  21  24
ENDBRANCH  18  20
ENDBRANCH   1  18
TORSDOF 9
ENDMDL
MODEL 6
REMARK VINA RESULT:    -7.741      7.937     10.004
REMARK INTER + INTRA:         -12.548
REMARK INTER:                 -10.426
REMARK INTRA:                  -2.122
REMARK CONF_INDEPENDENT:        2.685
REMARK UNBOUND:                -2.122
REMARK  9 active torsions:
REMARK  status: ('A' for Active; 'I' for Inactive)
REMARK    1  A    between atoms: C_4  and  O_5 
REMARK    2  A    between atoms: O_5  and  C_6 
REMARK    3  A    between atoms: C_6  and  C_7 
REMARK       I    between atoms: C_7  and  N_9 
REMARK    4  A    between atoms: N_9  and  N_10 
REMARK    5  A    between atoms: N_10  and  C_11 
REMARK    6  A    between atoms: C_11  and  N_13 
REMARK       I    between atoms: N_13  and  C_14 
REMARK    7  A    between atoms: C_14  and  C_16 
REMARK    8  A    between atoms: C_17  and  C_18 
REMARK    9  A    between atoms: C_21  and  N_22 
ROOT
ATOM      1  N   UNL d   1      31.137 -14.552   3.502  0.00  0.00    -0.273 N 
ATOM      2  H   UNL d   1      31.826 -15.217   3.852  0.00  0.00     0.189 HD
ENDROOT
BRANCH   1   3
ATOM      3  N   UNL d   1      30.466 -13.775   4.553  0.00  0.00    -0.266 N 
ATOM      4  C   UNL d   1      29.077 -13.736   4.653  0.00  0.00     0.260 C 
ATOM      5  O   UNL d   1      28.370 -14.354   3.855  0.00  0.00    -0.269 OA
ATOM      6  H   UNL d   1      31.091 -13.280   5.190  0.00  0.00     0.190 HD
BRANCH   4   7
ATOM      7  C   UNL d   1      28.498 -12.871   5.820  0.00  0.00     0.280 C 
BRANCH   7   8
ATOM      8  O   UNL d   1      29.535 -12.419   6.709  0.00  0.00    -0.342 OA
BRANCH   8   9
ATOM      9  C   UNL d   1      29.824 -13.157   7.831  0.00  0.00     0.070 A 
ATOM     10  C   UNL d   1      31.066 -13.706   8.133  0.00  0.00     0.045 A 
ATOM     11  C   UNL d   1      31.273 -14.438   9.320  0.00  0.00    -0.037 A 
ATOM     12  C   UNL d   1      32.645 -14.989   9.600  0.00  0.00     0.050 C 
ATOM     13  C   UNL d   1      30.203 -14.631  10.213  0.00  0.00     0.046 A 
ATOM     14  C   UNL d   1      28.936 -14.096   9.926  0.00  0.00    -0.037 A 
ATOM     15 CL   UNL d   1      30.456 -15.532  11.677  0.00  0.00    -0.083 Cl
ATOM     16  C   UNL d   1      28.765 -13.360   8.733  0.00  0.00     0.045 A 
ATOM     17  C   UNL d   1      27.774 -14.300  10.864  0.00  0.00     0.050 C 
ENDBRANCH   8   9
ENDBRANCH   7   8
ENDBRANCH   4   7
ENDBRANCH   1   3
BRANCH   1  18
ATOM     18  C   UNL d   1      30.792 -14.320   2.155  0.00  0.00     0.193 C 
ATOM     19  S   UNL d   1      31.652 -13.155   1.284  0.00  0.00    -0.039 SA
BRANCH  18  20
ATOM     20  N   UNL d   1      29.728 -15.107   1.637  0.00  0.00    -0.299 N 
ATOM     21  C   UNL d   1      29.676 -15.690   0.353  0.00  0.00     0.247 C 
ATOM     22  O   UNL d   1      30.557 -15.563  -0.503  0.00  0.00    -0.268 OA
ATOM     23  H   UNL d   1      28.937 -15.274   2.243  0.00  0.00     0.171 HD
BRANCH  21  24
ATOM     24  C   UNL d   1      28.474 -16.515  -0.030  0.00  0.00     0.075 C 
ATOM     25  C   UNL d   1      27.258 -15.913  -0.083  0.00  0.00     0.017 C 
BRANCH  25  26
ATOM     26  C   UNL d   1      25.963 -16.573  -0.367  0.00  0.00    -0.036 A 
ATOM     27  C   UNL d   1      24.945 -15.922  -1.093  0.00  0.00     0.014 A 
ATOM     28  C   UNL d   1      23.685 -16.522  -1.272  0.00  0.00     0.037 A 
ATOM     29  C   UNL d   1      23.459 -17.809  -0.773  0.00  0.00     0.102 A 
ATOM     30  C   UNL d   1      24.449 -18.457  -0.027  0.00  0.00     0.037 A 
ATOM     31  C   UNL d   1      25.683 -17.831   0.183  0.00  0.00     0.014 A 
BRANCH  29  32
ATOM     32  N   UNL d   1      22.204 -18.515  -1.081  0.00  0.00    -0.116 N 
ATOM     33  O   UNL d   1      22.211 -19.323  -2.019  0.00  0.00    -0.532 OA
ATOM     34  O   UNL d   1      21.221 -18.280  -0.362  0.00  0.00    -0.532 OA
ENDBRANCH  29  32
ENDBRANCH  25  26
ENDBRANCH  21  24
ENDBRANCH  18  20
ENDBRANCH   1  18
TORSDOF 9
ENDMDL
MODEL 7
REMARK VINA RESULT:    -7.409      3.125      4.801
REMARK INTER + INTRA:         -13.178
REMARK INTER:                 -10.094
REMARK INTRA:                  -3.084
REMARK CONF_INDEPENDENT:        2.685
REMARK UNBOUND:                -3.084
REMARK  9 active torsions:
REMARK  status: ('A' for Active; 'I' for Inactive)
REMARK    1  A    between atoms: C_4  and  O_5 
REMARK    2  A    between atoms: O_5  and  C_6 
REMARK    3  A    between atoms: C_6  and  C_7 
REMARK       I    between atoms: C_7  and  N_9 
REMARK    4  A    between atoms: N_9  and  N_10 
REMARK    5  A    between atoms: N_10  and  C_11 
REMARK    6  A    between atoms: C_11  and  N_13 
REMARK       I    between atoms: N_13  and  C_14 
REMARK    7  A    between atoms: C_14  and  C_16 
REMARK    8  A    between atoms: C_17  and  C_18 
REMARK    9  A    between atoms: C_21  and  N_22 
ROOT
ATOM      1  N   UNL d   1      31.343 -16.048  -1.506  0.00  0.00    -0.273 N 
ATOM      2  H   UNL d   1      32.288 -15.705  -1.672  0.00  0.00     0.189 HD
ENDROOT
BRANCH   1   3
ATOM      3  N   UNL d   1      30.593 -16.357  -2.731  0.00  0.00    -0.266 N 
ATOM      4  C   UNL d   1      31.234 -16.496  -3.960  0.00  0.00     0.260 C 
ATOM      5  O   UNL d   1      32.455 -16.360  -4.053  0.00  0.00    -0.269 OA
ATOM      6  H   UNL d   1      29.585 -16.460  -2.606  0.00  0.00     0.190 HD
BRANCH   4   7
ATOM      7  C   UNL d   1      30.313 -16.827  -5.180  0.00  0.00     0.280 C 
BRANCH   7   8
ATOM      8  O   UNL d   1      28.920 -16.702  -4.840  0.00  0.00    -0.342 OA
BRANCH   8   9
ATOM      9  C   UNL d   1      28.278 -15.510  -5.071  0.00  0.00     0.070 A 
ATOM     10  C   UNL d   1      28.697 -14.533  -5.969  0.00  0.00     0.045 A 
ATOM     11  C   UNL d   1      27.963 -13.344  -6.150  0.00  0.00    -0.037 A 
ATOM     12  C   UNL d   1      28.456 -12.335  -7.151  0.00  0.00     0.050 C 
ATOM     13  C   UNL d   1      26.791 -13.129  -5.402  0.00  0.00     0.046 A 
ATOM     14  C   UNL d   1      26.352 -14.095  -4.480  0.00  0.00    -0.037 A 
ATOM     15 CL   UNL d   1      25.884 -11.664  -5.624  0.00  0.00    -0.083 Cl
ATOM     16  C   UNL d   1      27.106 -15.280  -4.330  0.00  0.00     0.045 A 
ATOM     17  C   UNL d   1      25.106 -13.881  -3.660  0.00  0.00     0.050 C 
ENDBRANCH   8   9
ENDBRANCH   7   8
ENDBRANCH   4   7
ENDBRANCH   1   3
BRANCH   1  18
ATOM     18  C   UNL d   1      30.722 -16.247  -0.256  0.00  0.00     0.193 C 
ATOM     19  S   UNL d   1      31.501 -15.693   1.137  0.00  0.00    -0.039 SA
BRANCH  18  20
ATOM     20  N   UNL d   1      29.464 -16.910  -0.280  0.00  0.00    -0.299 N 
ATOM     21  C   UNL d   1      28.283 -16.426  -0.880  0.00  0.00     0.247 C 
ATOM     22  O   UNL d   1      28.190 -15.334  -1.448  0.00  0.00    -0.268 OA
ATOM     23  H   UNL d   1      29.409 -17.815   0.166  0.00  0.00     0.171 HD
BRANCH  21  24
ATOM     24  C   UNL d   1      27.035 -17.271  -0.829  0.00  0.00     0.075 C 
ATOM     25  C   UNL d   1      25.827 -16.660  -0.927  0.00  0.00     0.017 C 
BRANCH  25  26
ATOM     26  C   UNL d   1      24.502 -17.313  -0.825  0.00  0.00    -0.036 A 
ATOM     27  C   UNL d   1      23.310 -16.612  -1.098  0.00  0.00     0.014 A 
ATOM     28  C   UNL d   1      22.053 -17.216  -0.904  0.00  0.00     0.037 A 
ATOM     29  C   UNL d   1      21.987 -18.550  -0.490  0.00  0.00     0.102 A 
ATOM     30  C   UNL d   1      23.160 -19.250  -0.187  0.00  0.00     0.037 A 
ATOM     31  C   UNL d   1      24.403 -18.624  -0.342  0.00  0.00     0.014 A 
BRANCH  29  32
ATOM     32  N   UNL d   1      20.691 -19.245  -0.428  0.00  0.00    -0.116 N 
ATOM     33  O   UNL d   1      20.220 -19.684  -1.486  0.00  0.00    -0.532 OA
ATOM     34  O   UNL d   1      20.162 -19.377   0.686  0.00  0.00    -0.532 OA
ENDBRANCH  29  32
ENDBRANCH  25  26
ENDBRANCH  21  24
ENDBRANCH  18  20
ENDBRANCH   1  18
TORSDOF 9
ENDMDL
MODEL 8
REMARK VINA RESULT:    -7.378      5.684      8.363
REMARK INTER + INTRA:         -12.446
REMARK INTER:                 -10.062
REMARK INTRA:                  -2.383
REMARK CONF_INDEPENDENT:        2.685
REMARK UNBOUND:                -2.383
REMARK  9 active torsions:
REMARK  status: ('A' for Active; 'I' for Inactive)
REMARK    1  A    between atoms: C_4  and  O_5 
REMARK    2  A    between atoms: O_5  and  C_6 
REMARK    3  A    between atoms: C_6  and  C_7 
REMARK       I    between atoms: C_7  and  N_9 
REMARK    4  A    between atoms: N_9  and  N_10 
REMARK    5  A    between atoms: N_10  and  C_11 
REMARK    6  A    between atoms: C_11  and  N_13 
REMARK       I    between atoms: N_13  and  C_14 
REMARK    7  A    between atoms: C_14  and  C_16 
REMARK    8  A    between atoms: C_17  and  C_18 
REMARK    9  A    between atoms: C_21  and  N_22 
ROOT
ATOM      1  N   UNL d   1      31.452 -14.647   3.119  0.00  0.00    -0.273 N 
ATOM      2  H   UNL d   1      32.180 -14.290   3.738  0.00  0.00     0.189 HD
ENDROOT
BRANCH   1   3
ATOM      3  N   UNL d   1      30.146 -14.823   3.767  0.00  0.00    -0.266 N 
ATOM      4  C   UNL d   1      29.828 -14.167   4.954  0.00  0.00     0.260 C 
ATOM      5  O   UNL d   1      30.642 -13.417   5.496  0.00  0.00    -0.269 OA
ATOM      6  H   UNL d   1      29.506 -15.453   3.282  0.00  0.00     0.190 HD
BRANCH   4   7
ATOM      7  C   UNL d   1      28.402 -14.447   5.531  0.00  0.00     0.280 C 
BRANCH   7   8
ATOM      8  O   UNL d   1      27.395 -14.387   4.505  0.00  0.00    -0.342 OA
BRANCH   8   9
ATOM      9  C   UNL d   1      27.400 -13.335   3.621  0.00  0.00     0.070 A 
ATOM     10  C   UNL d   1      27.558 -11.997   3.967  0.00  0.00     0.045 A 
ATOM     11  C   UNL d   1      27.565 -10.984   2.987  0.00  0.00    -0.037 A 
ATOM     12  C   UNL d   1      27.760  -9.558   3.423  0.00  0.00     0.050 C 
ATOM     13  C   UNL d   1      27.397 -11.326   1.633  0.00  0.00     0.046 A 
ATOM     14  C   UNL d   1      27.225 -12.669   1.258  0.00  0.00    -0.037 A 
ATOM     15 CL   UNL d   1      27.406 -10.080   0.423  0.00  0.00    -0.083 Cl
ATOM     16  C   UNL d   1      27.232 -13.661   2.264  0.00  0.00     0.045 A 
ATOM     17  C   UNL d   1      27.033 -13.057  -0.186  0.00  0.00     0.050 C 
ENDBRANCH   8   9
ENDBRANCH   7   8
ENDBRANCH   4   7
ENDBRANCH   1   3
BRANCH   1  18
ATOM     18  C   UNL d   1      31.587 -14.966   1.752  0.00  0.00     0.193 C 
ATOM     19  S   UNL d   1      33.059 -14.653   0.984  0.00  0.00    -0.039 SA
BRANCH  18  20
ATOM     20  N   UNL d   1      30.444 -15.538   1.127  0.00  0.00    -0.299 N 
ATOM     21  C   UNL d   1      30.201 -15.596  -0.261  0.00  0.00     0.247 C 
ATOM     22  O   UNL d   1      30.954 -15.125  -1.118  0.00  0.00    -0.268 OA
ATOM     23  H   UNL d   1      29.744 -15.949   1.729  0.00  0.00     0.171 HD
BRANCH  21  24
ATOM     24  C   UNL d   1      28.941 -16.259  -0.756  0.00  0.00     0.075 C 
ATOM     25  C   UNL d   1      27.789 -16.078  -0.060  0.00  0.00     0.017 C 
BRANCH  25  26
ATOM     26  C   UNL d   1      26.479 -16.703  -0.351  0.00  0.00    -0.036 A 
ATOM     27  C   UNL d   1      25.666 -16.255  -1.411  0.00  0.00     0.014 A 
ATOM     28  C   UNL d   1      24.382 -16.793  -1.618  0.00  0.00     0.037 A 
ATOM     29  C   UNL d   1      23.929 -17.829  -0.794  0.00  0.00     0.102 A 
ATOM     30  C   UNL d   1      24.713 -18.265   0.280  0.00  0.00     0.037 A 
ATOM     31  C   UNL d   1      25.970 -17.692   0.501  0.00  0.00     0.014 A 
BRANCH  29  32
ATOM     32  N   UNL d   1      22.657 -18.508  -1.086  0.00  0.00    -0.116 N 
ATOM     33  O   UNL d   1      21.669 -18.204  -0.405  0.00  0.00    -0.532 OA
ATOM     34  O   UNL d   1      22.642 -19.325  -2.020  0.00  0.00    -0.532 OA
ENDBRANCH  29  32
ENDBRANCH  25  26
ENDBRANCH  21  24
ENDBRANCH  18  20
ENDBRANCH   1  18
TORSDOF 9
ENDMDL
MODEL 9
REMARK VINA RESULT:    -6.814      5.165      8.709
REMARK INTER + INTRA:         -12.475
REMARK INTER:                  -9.498
REMARK INTRA:                  -2.977
REMARK CONF_INDEPENDENT:        2.685
REMARK UNBOUND:                -2.977
REMARK  9 active torsions:
REMARK  status: ('A' for Active; 'I' for Inactive)
REMARK    1  A    between atoms: C_4  and  O_5 
REMARK    2  A    between atoms: O_5  and  C_6 
REMARK    3  A    between atoms: C_6  and  C_7 
REMARK       I    between atoms: C_7  and  N_9 
REMARK    4  A    between atoms: N_9  and  N_10 
REMARK    5  A    between atoms: N_10  and  C_11 
REMARK    6  A    between atoms: C_11  and  N_13 
REMARK       I    between atoms: N_13  and  C_14 
REMARK    7  A    between atoms: C_14  and  C_16 
REMARK    8  A    between atoms: C_17  and  C_18 
REMARK    9  A    between atoms: C_21  and  N_22 
ROOT
ATOM      1  N   UNL d   1      28.260 -14.466  -5.926  0.00  0.00    -0.273 N 
ATOM      2  H   UNL d   1      28.198 -14.931  -6.831  0.00  0.00     0.189 HD
ENDROOT
BRANCH   1   3
ATOM      3  N   UNL d   1      27.026 -14.530  -5.132  0.00  0.00    -0.266 N 
ATOM      4  C   UNL d   1      26.410 -13.376  -4.652  0.00  0.00     0.260 C 
ATOM      5  O   UNL d   1      26.889 -12.264  -4.881  0.00  0.00    -0.269 OA
ATOM      6  H   UNL d   1      26.667 -15.471  -4.968  0.00  0.00     0.190 HD
BRANCH   4   7
ATOM      7  C   UNL d   1      25.101 -13.593  -3.823  0.00  0.00     0.280 C 
BRANCH   7   8
ATOM      8  O   UNL d   1      24.780 -14.989  -3.697  0.00  0.00    -0.342 OA
BRANCH   8   9
ATOM      9  C   UNL d   1      25.287 -15.700  -2.636  0.00  0.00     0.070 A 
ATOM     10  C   UNL d   1      26.581 -15.586  -2.139  0.00  0.00     0.045 A 
ATOM     11  C   UNL d   1      27.009 -16.349  -1.034  0.00  0.00    -0.037 A 
ATOM     12  C   UNL d   1      28.415 -16.165  -0.529  0.00  0.00     0.050 C 
ATOM     13  C   UNL d   1      26.119 -17.252  -0.425  0.00  0.00     0.046 A 
ATOM     14  C   UNL d   1      24.809 -17.394  -0.915  0.00  0.00    -0.037 A 
ATOM     15 CL   UNL d   1      26.643 -18.192   0.938  0.00  0.00    -0.083 Cl
ATOM     16  C   UNL d   1      24.409 -16.608  -2.019  0.00  0.00     0.045 A 
ATOM     17  C   UNL d   1      23.842 -18.364  -0.286  0.00  0.00     0.050 C 
ENDBRANCH   8   9
ENDBRANCH   7   8
ENDBRANCH   4   7
ENDBRANCH   1   3
BRANCH   1  18
ATOM     18  C   UNL d   1      29.383 -13.800  -5.393  0.00  0.00     0.193 C 
ATOM     19  S   UNL d   1      30.856 -13.904  -6.214  0.00  0.00    -0.039 SA
BRANCH  18  20
ATOM     20  N   UNL d   1      29.169 -13.083  -4.183  0.00  0.00    -0.299 N 
ATOM     21  C   UNL d   1      29.506 -13.525  -2.887  0.00  0.00     0.247 C 
ATOM     22  O   UNL d   1      30.015 -14.622  -2.638  0.00  0.00    -0.268 OA
ATOM     23  H   UNL d   1      28.745 -12.169  -4.256  0.00  0.00     0.171 HD
BRANCH  21  24
ATOM     24  C   UNL d   1      29.226 -12.625  -1.710  0.00  0.00     0.075 C 
ATOM     25  C   UNL d   1      27.994 -12.066  -1.593  0.00  0.00     0.017 C 
BRANCH  25  26
ATOM     26  C   UNL d   1      27.560 -11.106  -0.553  0.00  0.00    -0.036 A 
ATOM     27  C   UNL d   1      27.476 -11.477   0.805  0.00  0.00     0.014 A 
ATOM     28  C   UNL d   1      26.970 -10.585   1.769  0.00  0.00     0.037 A 
ATOM     29  C   UNL d   1      26.601  -9.291   1.384  0.00  0.00     0.102 A 
ATOM     30  C   UNL d   1      26.653  -8.919   0.037  0.00  0.00     0.037 A 
ATOM     31  C   UNL d   1      27.116  -9.829  -0.920  0.00  0.00     0.014 A 
BRANCH  29  32
ATOM     32  N   UNL d   1      26.216  -8.297   2.399  0.00  0.00    -0.116 N 
ATOM     33  O   UNL d   1      26.616  -8.469   3.557  0.00  0.00    -0.532 OA
ATOM     34  O   UNL d   1      25.538  -7.328   2.025  0.00  0.00    -0.532 OA
ENDBRANCH  29  32
ENDBRANCH  25  26
ENDBRANCH  21  24
ENDBRANCH  18  20
ENDBRANCH   1  18
TORSDOF 9
ENDMDL
