MODEL 1
REMARK VINA RESULT:    -9.863      0.000      0.000
REMARK INTER + INTRA:         -12.783
REMARK INTER:                 -12.250
REMARK INTRA:                  -0.533
REMARK CONF_INDEPENDENT:        2.386
REMARK UNBOUND:                -0.533
REMARK  8 active torsions:
REMARK  status: ('A' for Active; 'I' for Inactive)
REMARK    1  A    between atoms: C_2  and  C_3 
REMARK       I    between atoms: C_2  and  N_21 
REMARK    2  A    between atoms: C_3  and  S_4 
REMARK    3  A    between atoms: S_4  and  C_5 
REMARK    4  A    between atoms: C_8  and  N_9 
REMARK    5  A    between atoms: N_9  and  N_10 
REMARK    6  A    between atoms: C_11  and  C_12 
REMARK    7  A    between atoms: N_21  and  C_22 
REMARK    8  A    between atoms: C_22  and  C_23 
ROOT
ATOM      1  C   UNL d   1      25.329 -15.112  -2.786  0.00  0.00     0.226 A 
ATOM      2  N   UNL d   1      24.391 -14.291  -3.272  0.00  0.00    -0.132 NA
ATOM      3  N   UNL d   1      24.947 -13.943  -4.463  0.00  0.00    -0.103 N 
ATOM      4  C   UNL d   1      26.166 -14.545  -4.663  0.00  0.00     0.739 A 
ATOM      5  N   UNL d   1      26.413 -15.283  -3.605  0.00  0.00    -0.034 NA
ATOM      6  H   UNL d   1      24.445 -13.313  -5.075  0.00  0.00     0.208 HD
ENDROOT
BRANCH   1   7
ATOM      7  S   UNL d   1      25.252 -15.979  -1.279  0.00  0.00    -0.079 SA
BRANCH   7   8
ATOM      8  C   UNL d   1      23.683 -16.883  -1.266  0.00  0.00     0.185 C 
BRANCH   8   9
ATOM      9  C   UNL d   1      23.799 -18.121  -0.367  0.00  0.00     0.227 C 
ATOM     10  O   UNL d   1      24.850 -18.539   0.133  0.00  0.00    -0.273 OA
ATOM     11  N   UNL d   1      22.674 -18.834  -0.072  0.00  0.00    -0.356 N 
ATOM     12  H   UNL d   1      22.878 -19.590   0.566  0.00  0.00     0.162 HD
BRANCH  11  13
ATOM     13  C   UNL d   1      21.315 -18.609  -0.520  0.00  0.00     0.161 C 
BRANCH  13  14
ATOM     14  C   UNL d   1      20.272 -19.477   0.157  0.00  0.00    -0.039 A 
ATOM     15  C   UNL d   1      19.178 -20.037  -0.524  0.00  0.00     0.009 A 
ATOM     16  C   UNL d   1      18.244 -20.842   0.133  0.00  0.00     0.002 A 
ATOM     17  C   UNL d   1      18.360 -21.071   1.498  0.00  0.00     0.024 A 
ATOM     18  C   UNL d   1      19.415 -20.495   2.202  0.00  0.00     0.034 A 
ATOM     19 CL   UNL d   1      19.534 -20.751   3.900  0.00  0.00    -0.084 Cl
ATOM     20  C   UNL d   1      20.369 -19.711   1.543  0.00  0.00     0.032 A 
ENDBRANCH  13  14
ENDBRANCH  11  13
ENDBRANCH   8   9
ENDBRANCH   7   8
ENDBRANCH   1   7
BRANCH   4  21
ATOM     21  N   UNL d   1      26.923 -14.368  -5.787  0.00  0.00    -0.106 N 
ATOM     22  H   UNL d   1      26.728 -13.610  -6.437  0.00  0.00     0.208 HD
BRANCH  21  23
ATOM     23  N   UNL d   1      27.985 -15.206  -6.043  0.00  0.00    -0.172 NA
ATOM     24  C   UNL d   1      28.757 -15.551  -5.060  0.00  0.00     0.152 C 
BRANCH  24  25
ATOM     25  C   UNL d   1      29.890 -16.496  -5.279  0.00  0.00     0.006 A 
ATOM     26  C   UNL d   1      30.465 -16.576  -6.558  0.00  0.00     0.015 A 
ATOM     27  C   UNL d   1      31.511 -17.469  -6.813  0.00  0.00     0.003 A 
ATOM     28  C   UNL d   1      31.993 -18.288  -5.794  0.00  0.00     0.026 A 
ATOM     29  C   UNL d   1      31.436 -18.207  -4.512  0.00  0.00     0.056 A 
ATOM     30 CL   UNL d   1      32.108 -19.246  -3.300  0.00  0.00    -0.083 Cl
ATOM     31  C   UNL d   1      30.381 -17.312  -4.245  0.00  0.00     0.067 A 
ATOM     32 CL   UNL d   1      29.665 -17.253  -2.666  0.00  0.00    -0.082 Cl
ENDBRANCH  24  25
ENDBRANCH  21  23
ENDBRANCH   4  21
TORSDOF 8
ENDMDL
MODEL 2
REMARK VINA RESULT:    -9.857      1.944      2.178
REMARK INTER + INTRA:         -12.697
REMARK INTER:                 -12.243
REMARK INTRA:                  -0.454
REMARK CONF_INDEPENDENT:        2.386
REMARK UNBOUND:                -0.454
REMARK  8 active torsions:
REMARK  status: ('A' for Active; 'I' for Inactive)
REMARK    1  A    between atoms: C_2  and  C_3 
REMARK       I    between atoms: C_2  and  N_21 
REMARK    2  A    between atoms: C_3  and  S_4 
REMARK    3  A    between atoms: S_4  and  C_5 
REMARK    4  A    between atoms: C_8  and  N_9 
REMARK    5  A    between atoms: N_9  and  N_10 
REMARK    6  A    between atoms: C_11  and  C_12 
REMARK    7  A    between atoms: N_21  and  C_22 
REMARK    8  A    between atoms: C_22  and  C_23 
ROOT
ATOM      1  C   UNL d   1      25.332 -15.219  -2.752  0.00  0.00     0.226 A 
ATOM      2  N   UNL d   1      24.401 -14.424  -3.293  0.00  0.00    -0.132 NA
ATOM      3  N   UNL d   1      24.999 -14.093  -4.469  0.00  0.00    -0.103 N 
ATOM      4  C   UNL d   1      26.235 -14.679  -4.606  0.00  0.00     0.739 A 
ATOM      5  N   UNL d   1      26.451 -15.390  -3.523  0.00  0.00    -0.034 NA
ATOM      6  H   UNL d   1      24.512 -13.484  -5.113  0.00  0.00     0.208 HD
ENDROOT
BRANCH   1   7
ATOM      7  S   UNL d   1      25.207 -16.055  -1.231  0.00  0.00    -0.079 SA
BRANCH   7   8
ATOM      8  C   UNL d   1      23.616 -16.919  -1.227  0.00  0.00     0.185 C 
BRANCH   8   9
ATOM      9  C   UNL d   1      23.734 -18.233  -0.444  0.00  0.00     0.227 C 
ATOM     10  O   UNL d   1      24.791 -18.711  -0.017  0.00  0.00    -0.273 OA
ATOM     11  N   UNL d   1      22.604 -18.949  -0.176  0.00  0.00    -0.356 N 
ATOM     12  H   UNL d   1      22.812 -19.760   0.388  0.00  0.00     0.162 HD
BRANCH  11  13
ATOM     13  C   UNL d   1      21.237 -18.661  -0.557  0.00  0.00     0.161 C 
BRANCH  13  14
ATOM     14  C   UNL d   1      20.192 -19.512   0.138  0.00  0.00    -0.039 A 
ATOM     15  C   UNL d   1      19.065 -20.034  -0.519  0.00  0.00     0.009 A 
ATOM     16  C   UNL d   1      18.130 -20.824   0.154  0.00  0.00     0.002 A 
ATOM     17  C   UNL d   1      18.279 -21.077   1.511  0.00  0.00     0.024 A 
ATOM     18  C   UNL d   1      19.368 -20.539   2.192  0.00  0.00     0.034 A 
ATOM     19 CL   UNL d   1      19.530 -20.824   3.882  0.00  0.00    -0.084 Cl
ATOM     20  C   UNL d   1      20.323 -19.769   1.517  0.00  0.00     0.032 A 
ENDBRANCH  13  14
ENDBRANCH  11  13
ENDBRANCH   8   9
ENDBRANCH   7   8
ENDBRANCH   1   7
BRANCH   4  21
ATOM     21  N   UNL d   1      27.034 -14.513  -5.702  0.00  0.00    -0.106 N 
ATOM     22  H   UNL d   1      26.775 -13.871  -6.448  0.00  0.00     0.208 HD
BRANCH  21  23
ATOM     23  N   UNL d   1      28.222 -15.202  -5.801  0.00  0.00    -0.172 NA
ATOM     24  C   UNL d   1      28.980 -14.992  -6.832  0.00  0.00     0.152 C 
BRANCH  24  25
ATOM     25  C   UNL d   1      30.298 -15.678  -6.959  0.00  0.00     0.006 A 
ATOM     26  C   UNL d   1      30.407 -17.013  -6.540  0.00  0.00     0.015 A 
ATOM     27  C   UNL d   1      31.632 -17.685  -6.616  0.00  0.00     0.003 A 
ATOM     28  C   UNL d   1      32.756 -17.029  -7.113  0.00  0.00     0.026 A 
ATOM     29  C   UNL d   1      32.655 -15.703  -7.547  0.00  0.00     0.056 A 
ATOM     30 CL   UNL d   1      34.097 -14.971  -8.169  0.00  0.00    -0.083 Cl
ATOM     31  C   UNL d   1      31.427 -15.016  -7.473  0.00  0.00     0.067 A 
ATOM     32 CL   UNL d   1      31.322 -13.357  -7.967  0.00  0.00    -0.082 Cl
ENDBRANCH  24  25
ENDBRANCH  21  23
ENDBRANCH   4  21
TORSDOF 8
ENDMDL
MODEL 3
REMARK VINA RESULT:    -9.799      2.374      2.940
REMARK INTER + INTRA:         -12.769
REMARK INTER:                 -12.185
REMARK INTRA:                  -0.584
REMARK CONF_INDEPENDENT:        2.386
REMARK UNBOUND:                -0.584
REMARK  8 active torsions:
REMARK  status: ('A' for Active; 'I' for Inactive)
REMARK    1  A    between atoms: C_2  and  C_3 
REMARK       I    between atoms: C_2  and  N_21 
REMARK    2  A    between atoms: C_3  and  S_4 
REMARK    3  A    between atoms: S_4  and  C_5 
REMARK    4  A    between atoms: C_8  and  N_9 
REMARK    5  A    between atoms: N_9  and  N_10 
REMARK    6  A    between atoms: C_11  and  C_12 
REMARK    7  A    between atoms: N_21  and  C_22 
REMARK    8  A    between atoms: C_22  and  C_23 
ROOT
ATOM      1  C   UNL d   1      26.839 -16.256  -0.750  0.00  0.00     0.226 A 
ATOM      2  N   UNL d   1      27.176 -15.884   0.490  0.00  0.00    -0.132 NA
ATOM      3  N   UNL d   1      28.406 -16.452   0.603  0.00  0.00    -0.103 N 
ATOM      4  C   UNL d   1      28.772 -17.128  -0.536  0.00  0.00     0.739 A 
ATOM      5  N   UNL d   1      27.784 -17.010  -1.393  0.00  0.00    -0.034 NA
ATOM      6  H   UNL d   1      28.926 -16.331   1.462  0.00  0.00     0.208 HD
ENDROOT
BRANCH   1   7
ATOM      7  S   UNL d   1      25.374 -15.827  -1.587  0.00  0.00    -0.079 SA
BRANCH   7   8
ATOM      8  C   UNL d   1      23.992 -16.353  -0.542  0.00  0.00     0.185 C 
BRANCH   8   9
ATOM      9  C   UNL d   1      24.200 -17.802  -0.087  0.00  0.00     0.227 C 
ATOM     10  O   UNL d   1      25.199 -18.222   0.508  0.00  0.00    -0.273 OA
ATOM     11  N   UNL d   1      23.224 -18.722  -0.337  0.00  0.00    -0.356 N 
ATOM     12  H   UNL d   1      23.461 -19.622   0.058  0.00  0.00     0.162 HD
BRANCH  11  13
ATOM     13  C   UNL d   1      21.963 -18.542  -1.025  0.00  0.00     0.161 C 
BRANCH  13  14
ATOM     14  C   UNL d   1      20.780 -19.231  -0.373  0.00  0.00    -0.039 A 
ATOM     15  C   UNL d   1      19.609 -19.572  -1.070  0.00  0.00     0.009 A 
ATOM     16  C   UNL d   1      18.544 -20.217  -0.436  0.00  0.00     0.002 A 
ATOM     17  C   UNL d   1      18.610 -20.498   0.922  0.00  0.00     0.024 A 
ATOM     18  C   UNL d   1      19.744 -20.135   1.642  0.00  0.00     0.034 A 
ATOM     19 CL   UNL d   1      19.807 -20.451   3.334  0.00  0.00    -0.084 Cl
ATOM     20  C   UNL d   1      20.825 -19.513   1.007  0.00  0.00     0.032 A 
ENDBRANCH  13  14
ENDBRANCH  11  13
ENDBRANCH   8   9
ENDBRANCH   7   8
ENDBRANCH   1   7
BRANCH   4  21
ATOM     21  N   UNL d   1      29.966 -17.777  -0.681  0.00  0.00    -0.106 N 
ATOM     22  H   UNL d   1      30.408 -18.245   0.107  0.00  0.00     0.208 HD
BRANCH  21  23
ATOM     23  N   UNL d   1      30.581 -17.824  -1.912  0.00  0.00    -0.172 NA
ATOM     24  C   UNL d   1      29.872 -17.584  -2.971  0.00  0.00     0.152 C 
BRANCH  24  25
ATOM     25  C   UNL d   1      30.503 -17.576  -4.323  0.00  0.00     0.006 A 
ATOM     26  C   UNL d   1      30.391 -16.421  -5.113  0.00  0.00     0.015 A 
ATOM     27  C   UNL d   1      30.946 -16.381  -6.397  0.00  0.00     0.003 A 
ATOM     28  C   UNL d   1      31.617 -17.493  -6.901  0.00  0.00     0.026 A 
ATOM     29  C   UNL d   1      31.746 -18.645  -6.116  0.00  0.00     0.056 A 
ATOM     30 CL   UNL d   1      32.613 -19.973  -6.813  0.00  0.00    -0.083 Cl
ATOM     31  C   UNL d   1      31.190 -18.696  -4.822  0.00  0.00     0.067 A 
ATOM     32 CL   UNL d   1      31.314 -20.145  -3.876  0.00  0.00    -0.082 Cl
ENDBRANCH  24  25
ENDBRANCH  21  23
ENDBRANCH   4  21
TORSDOF 8
ENDMDL
MODEL 4
REMARK VINA RESULT:    -9.198      5.468      7.952
REMARK INTER + INTRA:         -12.837
REMARK INTER:                 -11.585
REMARK INTRA:                  -1.252
REMARK CONF_INDEPENDENT:        2.386
REMARK UNBOUND:                -1.252
REMARK  8 active torsions:
REMARK  status: ('A' for Active; 'I' for Inactive)
REMARK    1  A    between atoms: C_2  and  C_3 
REMARK       I    between atoms: C_2  and  N_21 
REMARK    2  A    between atoms: C_3  and  S_4 
REMARK    3  A    between atoms: S_4  and  C_5 
REMARK    4  A    between atoms: C_8  and  N_9 
REMARK    5  A    between atoms: N_9  and  N_10 
REMARK    6  A    between atoms: C_11  and  C_12 
REMARK    7  A    between atoms: N_21  and  C_22 
REMARK    8  A    between atoms: C_22  and  C_23 
ROOT
ATOM      1  C   UNL d   1      29.225 -15.264  -2.605  0.00  0.00     0.226 A 
ATOM      2  N   UNL d   1      29.619 -16.543  -2.598  0.00  0.00    -0.132 NA
ATOM      3  N   UNL d   1      29.532 -16.832  -1.273  0.00  0.00    -0.103 N 
ATOM      4  C   UNL d   1      29.097 -15.757  -0.534  0.00  0.00     0.739 A 
ATOM      5  N   UNL d   1      28.904 -14.763  -1.371  0.00  0.00    -0.034 NA
ATOM      6  H   UNL d   1      29.771 -17.762  -0.955  0.00  0.00     0.208 HD
ENDROOT
BRANCH   1   7
ATOM      7  S   UNL d   1      29.049 -14.253  -4.010  0.00  0.00    -0.079 SA
BRANCH   7   8
ATOM      8  C   UNL d   1      27.297 -13.812  -4.132  0.00  0.00     0.185 C 
BRANCH   8   9
ATOM      9  C   UNL d   1      26.487 -15.016  -4.630  0.00  0.00     0.227 C 
ATOM     10  O   UNL d   1      26.589 -15.524  -5.752  0.00  0.00    -0.273 OA
ATOM     11  N   UNL d   1      25.582 -15.599  -3.791  0.00  0.00    -0.356 N 
ATOM     12  H   UNL d   1      25.157 -16.409  -4.219  0.00  0.00     0.162 HD
BRANCH  11  13
ATOM     13  C   UNL d   1      25.227 -15.222  -2.438  0.00  0.00     0.161 C 
BRANCH  13  14
ATOM     14  C   UNL d   1      25.002 -16.387  -1.494  0.00  0.00    -0.039 A 
ATOM     15  C   UNL d   1      26.037 -16.995  -0.763  0.00  0.00     0.009 A 
ATOM     16  C   UNL d   1      25.788 -18.060   0.106  0.00  0.00     0.002 A 
ATOM     17  C   UNL d   1      24.502 -18.570   0.233  0.00  0.00     0.024 A 
ATOM     18  C   UNL d   1      23.467 -18.009  -0.510  0.00  0.00     0.034 A 
ATOM     19 CL   UNL d   1      21.881 -18.667  -0.379  0.00  0.00    -0.084 Cl
ATOM     20  C   UNL d   1      23.706 -16.924  -1.362  0.00  0.00     0.032 A 
ENDBRANCH  13  14
ENDBRANCH  11  13
ENDBRANCH   8   9
ENDBRANCH   7   8
ENDBRANCH   1   7
BRANCH   4  21
ATOM     21  N   UNL d   1      28.915 -15.792   0.819  0.00  0.00    -0.106 N 
ATOM     22  H   UNL d   1      28.860 -16.677   1.319  0.00  0.00     0.208 HD
BRANCH  21  23
ATOM     23  N   UNL d   1      28.824 -14.619   1.534  0.00  0.00    -0.172 NA
ATOM     24  C   UNL d   1      28.027 -14.572   2.556  0.00  0.00     0.152 C 
BRANCH  24  25
ATOM     25  C   UNL d   1      27.931 -13.340   3.390  0.00  0.00     0.006 A 
ATOM     26  C   UNL d   1      27.551 -12.137   2.775  0.00  0.00     0.015 A 
ATOM     27  C   UNL d   1      27.475 -10.952   3.516  0.00  0.00     0.003 A 
ATOM     28  C   UNL d   1      27.778 -10.960   4.876  0.00  0.00     0.026 A 
ATOM     29  C   UNL d   1      28.145 -12.157   5.502  0.00  0.00     0.056 A 
ATOM     30 CL   UNL d   1      28.484 -12.080   7.199  0.00  0.00    -0.083 Cl
ATOM     31  C   UNL d   1      28.225 -13.355   4.764  0.00  0.00     0.067 A 
ATOM     32 CL   UNL d   1      28.728 -14.824   5.538  0.00  0.00    -0.082 Cl
ENDBRANCH  24  25
ENDBRANCH  21  23
ENDBRANCH   4  21
TORSDOF 8
ENDMDL
MODEL 5
REMARK VINA RESULT:    -8.978      9.205     10.985
REMARK INTER + INTRA:         -12.782
REMARK INTER:                 -11.364
REMARK INTRA:                  -1.418
REMARK CONF_INDEPENDENT:        2.386
REMARK UNBOUND:                -1.418
REMARK  8 active torsions:
REMARK  status: ('A' for Active; 'I' for Inactive)
REMARK    1  A    between atoms: C_2  and  C_3 
REMARK       I    between atoms: C_2  and  N_21 
REMARK    2  A    between atoms: C_3  and  S_4 
REMARK    3  A    between atoms: S_4  and  C_5 
REMARK    4  A    between atoms: C_8  and  N_9 
REMARK    5  A    between atoms: N_9  and  N_10 
REMARK    6  A    between atoms: C_11  and  C_12 
REMARK    7  A    between atoms: N_21  and  C_22 
REMARK    8  A    between atoms: C_22  and  C_23 
ROOT
ATOM      1  C   UNL d   1      28.543 -13.388   5.551  0.00  0.00     0.226 A 
ATOM      2  N   UNL d   1      28.881 -14.606   5.991  0.00  0.00    -0.132 NA
ATOM      3  N   UNL d   1      29.119 -15.246   4.815  0.00  0.00    -0.103 N 
ATOM      4  C   UNL d   1      28.930 -14.425   3.729  0.00  0.00     0.739 A 
ATOM      5  N   UNL d   1      28.563 -13.251   4.188  0.00  0.00    -0.034 NA
ATOM      6  H   UNL d   1      29.409 -16.215   4.833  0.00  0.00     0.208 HD
ENDROOT
BRANCH   1   7
ATOM      7  S   UNL d   1      28.147 -12.013   6.542  0.00  0.00    -0.079 SA
BRANCH   7   8
ATOM      8  C   UNL d   1      29.643 -11.000   6.668  0.00  0.00     0.185 C 
BRANCH   8   9
ATOM      9  C   UNL d   1      30.829 -11.736   6.033  0.00  0.00     0.227 C 
ATOM     10  O   UNL d   1      30.970 -11.942   4.822  0.00  0.00    -0.273 OA
ATOM     11  N   UNL d   1      31.826 -12.206   6.838  0.00  0.00    -0.356 N 
ATOM     12  H   UNL d   1      32.568 -12.622   6.294  0.00  0.00     0.162 HD
BRANCH  11  13
ATOM     13  C   UNL d   1      31.933 -12.138   8.281  0.00  0.00     0.161 C 
BRANCH  13  14
ATOM     14  C   UNL d   1      31.134 -13.189   9.027  0.00  0.00    -0.039 A 
ATOM     15  C   UNL d   1      31.539 -14.530   9.132  0.00  0.00     0.009 A 
ATOM     16  C   UNL d   1      30.780 -15.467   9.838  0.00  0.00     0.002 A 
ATOM     17  C   UNL d   1      29.576 -15.093  10.421  0.00  0.00     0.024 A 
ATOM     18  C   UNL d   1      29.136 -13.778  10.296  0.00  0.00     0.034 A 
ATOM     19 CL   UNL d   1      27.625 -13.325  10.987  0.00  0.00    -0.084 Cl
ATOM     20  C   UNL d   1      29.905 -12.828   9.613  0.00  0.00     0.032 A 
ENDBRANCH  13  14
ENDBRANCH  11  13
ENDBRANCH   8   9
ENDBRANCH   7   8
ENDBRANCH   1   7
BRANCH   4  21
ATOM     21  N   UNL d   1      29.116 -14.825   2.436  0.00  0.00    -0.106 N 
ATOM     22  H   UNL d   1      30.019 -15.171   2.119  0.00  0.00     0.208 HD
BRANCH  21  23
ATOM     23  N   UNL d   1      28.069 -14.785   1.543  0.00  0.00    -0.172 NA
ATOM     24  C   UNL d   1      27.936 -15.757   0.695  0.00  0.00     0.152 C 
BRANCH  24  25
ATOM     25  C   UNL d   1      26.790 -15.783  -0.259  0.00  0.00     0.006 A 
ATOM     26  C   UNL d   1      26.610 -14.695  -1.127  0.00  0.00     0.015 A 
ATOM     27  C   UNL d   1      25.531 -14.666  -2.018  0.00  0.00     0.003 A 
ATOM     28  C   UNL d   1      24.625 -15.725  -2.050  0.00  0.00     0.026 A 
ATOM     29  C   UNL d   1      24.804 -16.821  -1.198  0.00  0.00     0.056 A 
ATOM     30 CL   UNL d   1      23.644 -18.102  -1.318  0.00  0.00    -0.083 Cl
ATOM     31  C   UNL d   1      25.886 -16.859  -0.296  0.00  0.00     0.067 A 
ATOM     32 CL   UNL d   1      26.071 -18.199   0.789  0.00  0.00    -0.082 Cl
ENDBRANCH  24  25
ENDBRANCH  21  23
ENDBRANCH   4  21
TORSDOF 8
ENDMDL
MODEL 6
REMARK VINA RESULT:    -8.801      4.832      7.746
REMARK INTER + INTRA:         -13.035
REMARK INTER:                 -11.187
REMARK INTRA:                  -1.848
REMARK CONF_INDEPENDENT:        2.386
REMARK UNBOUND:                -1.848
REMARK  8 active torsions:
REMARK  status: ('A' for Active; 'I' for Inactive)
REMARK    1  A    between atoms: C_2  and  C_3 
REMARK       I    between atoms: C_2  and  N_21 
REMARK    2  A    between atoms: C_3  and  S_4 
REMARK    3  A    between atoms: S_4  and  C_5 
REMARK    4  A    between atoms: C_8  and  N_9 
REMARK    5  A    between atoms: N_9  and  N_10 
REMARK    6  A    between atoms: C_11  and  C_12 
REMARK    7  A    between atoms: N_21  and  C_22 
REMARK    8  A    between atoms: C_22  and  C_23 
ROOT
ATOM      1  C   UNL d   1      29.621 -16.464  -2.027  0.00  0.00     0.226 A 
ATOM      2  N   UNL d   1      30.002 -17.604  -1.437  0.00  0.00    -0.132 NA
ATOM      3  N   UNL d   1      30.078 -17.208  -0.139  0.00  0.00    -0.103 N 
ATOM      4  C   UNL d   1      29.748 -15.883   0.021  0.00  0.00     0.739 A 
ATOM      5  N   UNL d   1      29.461 -15.408  -1.170  0.00  0.00    -0.034 NA
ATOM      6  H   UNL d   1      30.347 -17.882   0.566  0.00  0.00     0.208 HD
ENDROOT
BRANCH   1   7
ATOM      7  S   UNL d   1      29.279 -16.251  -3.720  0.00  0.00    -0.079 SA
BRANCH   7   8
ATOM      8  C   UNL d   1      28.237 -14.777  -3.870  0.00  0.00     0.185 C 
BRANCH   8   9
ATOM      9  C   UNL d   1      26.906 -15.143  -4.539  0.00  0.00     0.227 C 
ATOM     10  O   UNL d   1      26.773 -15.460  -5.727  0.00  0.00    -0.273 OA
ATOM     11  N   UNL d   1      25.765 -15.133  -3.792  0.00  0.00    -0.356 N 
ATOM     12  H   UNL d   1      24.971 -15.442  -4.336  0.00  0.00     0.162 HD
BRANCH  11  13
ATOM     13  C   UNL d   1      25.598 -14.788  -2.396  0.00  0.00     0.161 C 
BRANCH  13  14
ATOM     14  C   UNL d   1      25.422 -15.973  -1.466  0.00  0.00    -0.039 A 
ATOM     15  C   UNL d   1      26.460 -16.487  -0.670  0.00  0.00     0.009 A 
ATOM     16  C   UNL d   1      26.255 -17.574   0.182  0.00  0.00     0.002 A 
ATOM     17  C   UNL d   1      25.016 -18.200   0.229  0.00  0.00     0.024 A 
ATOM     18  C   UNL d   1      23.983 -17.733  -0.579  0.00  0.00     0.034 A 
ATOM     19 CL   UNL d   1      22.459 -18.534  -0.548  0.00  0.00    -0.084 Cl
ATOM     20  C   UNL d   1      24.175 -16.627  -1.416  0.00  0.00     0.032 A 
ENDBRANCH  13  14
ENDBRANCH  11  13
ENDBRANCH   8   9
ENDBRANCH   7   8
ENDBRANCH   1   7
BRANCH   4  21
ATOM     21  N   UNL d   1      29.736 -15.245   1.229  0.00  0.00    -0.106 N 
ATOM     22  H   UNL d   1      30.030 -15.724   2.077  0.00  0.00     0.208 HD
BRANCH  21  23
ATOM     23  N   UNL d   1      29.343 -13.928   1.311  0.00  0.00    -0.172 NA
ATOM     24  C   UNL d   1      28.077 -13.652   1.255  0.00  0.00     0.152 C 
BRANCH  24  25
ATOM     25  C   UNL d   1      27.600 -12.245   1.389  0.00  0.00     0.006 A 
ATOM     26  C   UNL d   1      27.219 -11.779   2.656  0.00  0.00     0.015 A 
ATOM     27  C   UNL d   1      26.740 -10.475   2.820  0.00  0.00     0.003 A 
ATOM     28  C   UNL d   1      26.639  -9.625   1.720  0.00  0.00     0.026 A 
ATOM     29  C   UNL d   1      27.030 -10.076   0.454  0.00  0.00     0.056 A 
ATOM     30 CL   UNL d   1      26.892  -8.948  -0.854  0.00  0.00    -0.083 Cl
ATOM     31  C   UNL d   1      27.512 -11.388   0.278  0.00  0.00     0.067 A 
ATOM     32 CL   UNL d   1      27.949 -11.953  -1.303  0.00  0.00    -0.082 Cl
ENDBRANCH  24  25
ENDBRANCH  21  23
ENDBRANCH   4  21
TORSDOF 8
ENDMDL
MODEL 7
REMARK VINA RESULT:    -8.754      3.774      5.154
REMARK INTER + INTRA:         -12.407
REMARK INTER:                 -11.141
REMARK INTRA:                  -1.267
REMARK CONF_INDEPENDENT:        2.386
REMARK UNBOUND:                -1.267
REMARK  8 active torsions:
REMARK  status: ('A' for Active; 'I' for Inactive)
REMARK    1  A    between atoms: C_2  and  C_3 
REMARK       I    between atoms: C_2  and  N_21 
REMARK    2  A    between atoms: C_3  and  S_4 
REMARK    3  A    between atoms: S_4  and  C_5 
REMARK    4  A    between atoms: C_8  and  N_9 
REMARK    5  A    between atoms: N_9  and  N_10 
REMARK    6  A    between atoms: C_11  and  C_12 
REMARK    7  A    between atoms: N_21  and  C_22 
REMARK    8  A    between atoms: C_22  and  C_23 
ROOT
ATOM      1  C   UNL d   1      27.985 -12.760  -6.328  0.00  0.00     0.226 A 
ATOM      2  N   UNL d   1      27.795 -12.543  -7.635  0.00  0.00    -0.132 NA
ATOM      3  N   UNL d   1      28.800 -13.290  -8.167  0.00  0.00    -0.103 N 
ATOM      4  C   UNL d   1      29.545 -13.922  -7.200  0.00  0.00     0.739 A 
ATOM      5  N   UNL d   1      29.036 -13.589  -6.036  0.00  0.00    -0.034 NA
ATOM      6  H   UNL d   1      28.906 -13.325  -9.172  0.00  0.00     0.208 HD
ENDROOT
BRANCH   1   7
ATOM      7  S   UNL d   1      27.005 -12.135  -5.032  0.00  0.00    -0.079 SA
BRANCH   7   8
ATOM      8  C   UNL d   1      25.747 -13.384  -4.666  0.00  0.00     0.185 C 
BRANCH   8   9
ATOM      9  C   UNL d   1      26.375 -14.783  -4.690  0.00  0.00     0.227 C 
ATOM     10  O   UNL d   1      26.810 -15.348  -5.701  0.00  0.00    -0.273 OA
ATOM     11  N   UNL d   1      26.484 -15.482  -3.523  0.00  0.00    -0.356 N 
ATOM     12  H   UNL d   1      26.959 -16.361  -3.668  0.00  0.00     0.162 HD
BRANCH  11  13
ATOM     13  C   UNL d   1      26.052 -15.100  -2.195  0.00  0.00     0.161 C 
BRANCH  13  14
ATOM     14  C   UNL d   1      25.564 -16.247  -1.332  0.00  0.00    -0.039 A 
ATOM     15  C   UNL d   1      26.402 -16.966  -0.463  0.00  0.00     0.009 A 
ATOM     16  C   UNL d   1      25.912 -18.010   0.325  0.00  0.00     0.002 A 
ATOM     17  C   UNL d   1      24.579 -18.389   0.230  0.00  0.00     0.024 A 
ATOM     18  C   UNL d   1      23.738 -17.716  -0.652  0.00  0.00     0.034 A 
ATOM     19 CL   UNL d   1      22.096 -18.212  -0.795  0.00  0.00    -0.084 Cl
ATOM     20  C   UNL d   1      24.217 -16.651  -1.424  0.00  0.00     0.032 A 
ENDBRANCH  13  14
ENDBRANCH  11  13
ENDBRANCH   8   9
ENDBRANCH   7   8
ENDBRANCH   1   7
BRANCH   4  21
ATOM     21  N   UNL d   1      30.604 -14.740  -7.475  0.00  0.00    -0.106 N 
ATOM     22  H   UNL d   1      31.143 -14.631  -8.331  0.00  0.00     0.208 HD
BRANCH  21  23
ATOM     23  N   UNL d   1      30.972 -15.718  -6.578  0.00  0.00    -0.172 NA
ATOM     24  C   UNL d   1      30.073 -16.558  -6.169  0.00  0.00     0.152 C 
BRANCH  24  25
ATOM     25  C   UNL d   1      30.434 -17.664  -5.236  0.00  0.00     0.006 A 
ATOM     26  C   UNL d   1      30.453 -17.404  -3.857  0.00  0.00     0.015 A 
ATOM     27  C   UNL d   1      30.813 -18.406  -2.949  0.00  0.00     0.003 A 
ATOM     28  C   UNL d   1      31.155 -19.675  -3.411  0.00  0.00     0.026 A 
ATOM     29  C   UNL d   1      31.126 -19.949  -4.783  0.00  0.00     0.056 A 
ATOM     30 CL   UNL d   1      31.546 -21.557  -5.269  0.00  0.00    -0.083 Cl
ATOM     31  C   UNL d   1      30.767 -18.946  -5.706  0.00  0.00     0.067 A 
ATOM     32 CL   UNL d   1      30.780 -19.281  -7.408  0.00  0.00    -0.082 Cl
ENDBRANCH  24  25
ENDBRANCH  21  23
ENDBRANCH   4  21
TORSDOF 8
ENDMDL
MODEL 8
REMARK VINA RESULT:    -8.601      7.744      9.771
REMARK INTER + INTRA:         -12.396
REMARK INTER:                 -10.987
REMARK INTRA:                  -1.409
REMARK CONF_INDEPENDENT:        2.386
REMARK UNBOUND:                -1.409
REMARK  8 active torsions:
REMARK  status: ('A' for Active; 'I' for Inactive)
REMARK    1  A    between atoms: C_2  and  C_3 
REMARK       I    between atoms: C_2  and  N_21 
REMARK    2  A    between atoms: C_3  and  S_4 
REMARK    3  A    between atoms: S_4  and  C_5 
REMARK    4  A    between atoms: C_8  and  N_9 
REMARK    5  A    between atoms: N_9  and  N_10 
REMARK    6  A    between atoms: C_11  and  C_12 
REMARK    7  A    between atoms: N_21  and  C_22 
REMARK    8  A    between atoms: C_22  and  C_23 
ROOT
ATOM      1  C   UNL d   1      30.461 -11.492   3.086  0.00  0.00     0.226 A 
ATOM      2  N   UNL d   1      31.292 -12.157   3.897  0.00  0.00    -0.132 NA
ATOM      3  N   UNL d   1      31.029 -13.442   3.537  0.00  0.00    -0.103 N 
ATOM      4  C   UNL d   1      30.079 -13.519   2.547  0.00  0.00     0.739 A 
ATOM      5  N   UNL d   1      29.715 -12.290   2.260  0.00  0.00    -0.034 NA
ATOM      6  H   UNL d   1      31.530 -14.193   3.993  0.00  0.00     0.208 HD
ENDROOT
BRANCH   1   7
ATOM      7  S   UNL d   1      30.303  -9.762   2.975  0.00  0.00    -0.079 SA
BRANCH   7   8
ATOM      8  C   UNL d   1      28.599  -9.414   2.472  0.00  0.00     0.185 C 
BRANCH   8   9
ATOM      9  C   UNL d   1      27.716  -9.224   3.711  0.00  0.00     0.227 C 
ATOM     10  O   UNL d   1      27.408  -8.131   4.202  0.00  0.00    -0.273 OA
ATOM     11  N   UNL d   1      27.209 -10.324   4.339  0.00  0.00    -0.356 N 
ATOM     12  H   UNL d   1      26.605 -10.060   5.105  0.00  0.00     0.162 HD
BRANCH  11  13
ATOM     13  C   UNL d   1      27.405 -11.722   4.018  0.00  0.00     0.161 C 
BRANCH  13  14
ATOM     14  C   UNL d   1      27.932 -12.567   5.161  0.00  0.00    -0.039 A 
ATOM     15  C   UNL d   1      28.077 -13.963   5.082  0.00  0.00     0.009 A 
ATOM     16  C   UNL d   1      28.578 -14.706   6.154  0.00  0.00     0.002 A 
ATOM     17  C   UNL d   1      28.907 -14.075   7.346  0.00  0.00     0.024 A 
ATOM     18  C   UNL d   1      28.736 -12.698   7.461  0.00  0.00     0.034 A 
ATOM     19 CL   UNL d   1      29.109 -11.923   8.953  0.00  0.00    -0.084 Cl
ATOM     20  C   UNL d   1      28.260 -11.944   6.381  0.00  0.00     0.032 A 
ENDBRANCH  13  14
ENDBRANCH  11  13
ENDBRANCH   8   9
ENDBRANCH   7   8
ENDBRANCH   1   7
BRANCH   4  21
ATOM     21  N   UNL d   1      29.647 -14.695   2.002  0.00  0.00    -0.106 N 
ATOM     22  H   UNL d   1      30.133 -15.569   2.187  0.00  0.00     0.208 HD
BRANCH  21  23
ATOM     23  N   UNL d   1      28.524 -14.715   1.206  0.00  0.00    -0.172 NA
ATOM     24  C   UNL d   1      28.261 -15.789   0.527  0.00  0.00     0.152 C 
BRANCH  24  25
ATOM     25  C   UNL d   1      27.030 -15.877  -0.311  0.00  0.00     0.006 A 
ATOM     26  C   UNL d   1      26.771 -14.855  -1.238  0.00  0.00     0.015 A 
ATOM     27  C   UNL d   1      25.614 -14.885  -2.024  0.00  0.00     0.003 A 
ATOM     28  C   UNL d   1      24.708 -15.935  -1.892  0.00  0.00     0.026 A 
ATOM     29  C   UNL d   1      24.964 -16.966  -0.980  0.00  0.00     0.056 A 
ATOM     30 CL   UNL d   1      23.795 -18.241  -0.894  0.00  0.00    -0.083 Cl
ATOM     31  C   UNL d   1      26.125 -16.944  -0.182  0.00  0.00     0.067 A 
ATOM     32 CL   UNL d   1      26.409 -18.201   0.980  0.00  0.00    -0.082 Cl
ENDBRANCH  24  25
ENDBRANCH  21  23
ENDBRANCH   4  21
TORSDOF 8
ENDMDL
MODEL 9
REMARK VINA RESULT:    -7.894      7.698      9.837
REMARK INTER + INTRA:         -12.449
REMARK INTER:                 -10.280
REMARK INTRA:                  -2.169
REMARK CONF_INDEPENDENT:        2.386
REMARK UNBOUND:                -2.169
REMARK  8 active torsions:
REMARK  status: ('A' for Active; 'I' for Inactive)
REMARK    1  A    between atoms: C_2  and  C_3 
REMARK       I    between atoms: C_2  and  N_21 
REMARK    2  A    between atoms: C_3  and  S_4 
REMARK    3  A    between atoms: S_4  and  C_5 
REMARK    4  A    between atoms: C_8  and  N_9 
REMARK    5  A    between atoms: N_9  and  N_10 
REMARK    6  A    between atoms: C_11  and  C_12 
REMARK    7  A    between atoms: N_21  and  C_22 
REMARK    8  A    between atoms: C_22  and  C_23 
ROOT
ATOM      1  C   UNL d   1      30.925 -11.702   3.092  0.00  0.00     0.226 A 
ATOM      2  N   UNL d   1      31.681 -12.425   3.926  0.00  0.00    -0.132 NA
ATOM      3  N   UNL d   1      31.370 -13.687   3.525  0.00  0.00    -0.103 N 
ATOM      4  C   UNL d   1      30.467 -13.694   2.489  0.00  0.00     0.739 A 
ATOM      5  N   UNL d   1      30.181 -12.443   2.213  0.00  0.00    -0.034 NA
ATOM      6  H   UNL d   1      31.808 -14.472   3.988  0.00  0.00     0.208 HD
ENDROOT
BRANCH   1   7
ATOM      7  S   UNL d   1      30.863  -9.964   3.011  0.00  0.00    -0.079 SA
BRANCH   7   8
ATOM      8  C   UNL d   1      30.746  -9.357   4.713  0.00  0.00     0.185 C 
BRANCH   8   9
ATOM      9  C   UNL d   1      29.320  -8.872   5.000  0.00  0.00     0.227 C 
ATOM     10  O   UNL d   1      28.821  -7.832   4.553  0.00  0.00    -0.273 OA
ATOM     11  N   UNL d   1      28.512  -9.625   5.800  0.00  0.00    -0.356 N 
ATOM     12  H   UNL d   1      27.587  -9.223   5.866  0.00  0.00     0.162 HD
BRANCH  11  13
ATOM     13  C   UNL d   1      28.813 -10.868   6.480  0.00  0.00     0.161 C 
BRANCH  13  14
ATOM     14  C   UNL d   1      28.424 -12.119   5.717  0.00  0.00    -0.039 A 
ATOM     15  C   UNL d   1      28.711 -13.417   6.173  0.00  0.00     0.009 A 
ATOM     16  C   UNL d   1      28.326 -14.546   5.446  0.00  0.00     0.002 A 
ATOM     17  C   UNL d   1      27.680 -14.402   4.224  0.00  0.00     0.024 A 
ATOM     18  C   UNL d   1      27.420 -13.126   3.735  0.00  0.00     0.034 A 
ATOM     19 CL   UNL d   1      26.654 -12.950   2.203  0.00  0.00    -0.084 Cl
ATOM     20  C   UNL d   1      27.779 -11.991   4.471  0.00  0.00     0.032 A 
ENDBRANCH  13  14
ENDBRANCH  11  13
ENDBRANCH   8   9
ENDBRANCH   7   8
ENDBRANCH   1   7
BRANCH   4  21
ATOM     21  N   UNL d   1      30.001 -14.835   1.898  0.00  0.00    -0.106 N 
ATOM     22  H   UNL d   1      30.457 -15.731   2.056  0.00  0.00     0.208 HD
BRANCH  21  23
ATOM     23  N   UNL d   1      28.886 -14.789   1.092  0.00  0.00    -0.172 NA
ATOM     24  C   UNL d   1      28.459 -15.891   0.557  0.00  0.00     0.152 C 
BRANCH  24  25
ATOM     25  C   UNL d   1      27.227 -15.901  -0.284  0.00  0.00     0.006 A 
ATOM     26  C   UNL d   1      27.028 -14.856  -1.200  0.00  0.00     0.015 A 
ATOM     27  C   UNL d   1      25.874 -14.812  -1.989  0.00  0.00     0.003 A 
ATOM     28  C   UNL d   1      24.909 -15.811  -1.870  0.00  0.00     0.026 A 
ATOM     29  C   UNL d   1      25.104 -16.864  -0.969  0.00  0.00     0.056 A 
ATOM     30 CL   UNL d   1      23.866 -18.073  -0.899  0.00  0.00    -0.083 Cl
ATOM     31  C   UNL d   1      26.263 -16.917  -0.169  0.00  0.00     0.067 A 
ATOM     32 CL   UNL d   1      26.473 -18.200   0.980  0.00  0.00    -0.082 Cl
ENDBRANCH  24  25
ENDBRANCH  21  23
ENDBRANCH   4  21
TORSDOF 8
ENDMDL
