MODEL 1
REMARK VINA RESULT:    -8.073      0.000      0.000
REMARK INTER + INTRA:          -9.770
REMARK INTER:                  -9.266
REMARK INTRA:                  -0.504
REMARK CONF_INDEPENDENT:        1.193
REMARK UNBOUND:                -0.504
REMARK  4 active torsions:
REMARK  status: ('A' for Active; 'I' for Inactive)
REMARK    1  A    between atoms: C_8  and  O_9 
REMARK    2  A    between atoms: N_16  and  C_17 
REMARK    3  A    between atoms: C_17  and  C_18 
REMARK    4  A    between atoms: C_18  and  C_19 
ROOT
ATOM      1  O   UNL d   1      27.723 -15.617   1.750  0.00  0.00    -0.267 OA
ATOM      2  C   UNL d   1      27.440 -14.880   0.809  0.00  0.00     0.261 A 
ATOM      3  C   UNL d   1      26.594 -15.375  -0.302  0.00  0.00     0.044 A 
ATOM      4  C   UNL d   1      26.120 -16.686  -0.258  0.00  0.00     0.018 A 
ATOM      5  C   UNL d   1      25.327 -17.162  -1.294  0.00  0.00     0.002 A 
ATOM      6  C   UNL d   1      25.006 -16.334  -2.371  0.00  0.00     0.015 A 
ATOM      7  C   UNL d   1      25.469 -15.005  -2.443  0.00  0.00     0.009 A 
ATOM      8  C   UNL d   1      25.177 -14.118  -3.510  0.00  0.00     0.076 A 
ATOM      9  C   UNL d   1      25.660 -12.815  -3.531  0.00  0.00     0.038 A 
ATOM     10  C   UNL d   1      26.447 -12.364  -2.488  0.00  0.00     0.021 A 
ATOM     11  C   UNL d   1      26.748 -13.224  -1.423  0.00  0.00     0.044 A 
ATOM     12  C   UNL d   1      26.277 -14.533  -1.379  0.00  0.00     0.008 A 
ATOM     13  C   UNL d   1      27.584 -12.701  -0.338  0.00  0.00     0.261 A 
ATOM     14  O   UNL d   1      27.949 -11.542  -0.456  0.00  0.00    -0.267 OA
ATOM     15  N   UNL d   1      27.886 -13.562   0.727  0.00  0.00    -0.280 N 
ENDROOT
BRANCH  15  16
ATOM     16  C   UNL d   1      28.719 -13.128   1.856  0.00  0.00     0.140 C 
BRANCH  16  17
ATOM     17  C   UNL d   1      27.949 -12.901   3.127  0.00  0.00     0.057 C 
BRANCH  17  18
ATOM     18  C   UNL d   1      28.254 -13.647   4.357  0.00  0.00    -0.048 A 
ATOM     19  C   UNL d   1      28.562 -12.951   5.450  0.00  0.00    -0.006 A 
ATOM     20  C   UNL d   1      28.566 -11.547   5.683  0.00  0.00     0.014 C 
ATOM     21  C   UNL d   1      28.686 -13.940   6.515  0.00  0.00     0.038 A 
ATOM     22  C   UNL d   1      28.529 -11.142   6.956  0.00  0.00     0.001 C 
ATOM     23  C   UNL d   1      28.846 -12.073   8.030  0.00  0.00     0.002 C 
ATOM     24  C   UNL d   1      28.970 -13.408   7.860  0.00  0.00     0.030 C 
ATOM     25  N   UNL d   1      28.493 -15.130   6.080  0.00  0.00    -0.385 N 
ATOM     26  C   UNL d   1      28.143 -15.105   4.629  0.00  0.00     0.155 A 
ATOM     27  H   UNL d   1      28.530 -15.950   6.684  0.00  0.00     0.160 HD
ENDBRANCH  17  18
ENDBRANCH  16  17
ENDBRANCH  15  16
BRANCH   8  28
ATOM     28  O   UNL d   1      24.411 -14.450  -4.592  0.00  0.00    -0.360 OA
ATOM     29  H   UNL d   1      23.981 -13.667  -4.962  0.00  0.00     0.217 HD
ENDBRANCH   8  28
TORSDOF 4
ENDMDL
MODEL 2
REMARK VINA RESULT:    -7.798      5.460      7.295
REMARK INTER + INTRA:          -9.480
REMARK INTER:                  -8.991
REMARK INTRA:                  -0.489
REMARK CONF_INDEPENDENT:        1.193
REMARK UNBOUND:                -0.489
REMARK  4 active torsions:
REMARK  status: ('A' for Active; 'I' for Inactive)
REMARK    1  A    between atoms: C_8  and  O_9 
REMARK    2  A    between atoms: N_16  and  C_17 
REMARK    3  A    between atoms: C_17  and  C_18 
REMARK    4  A    between atoms: C_18  and  C_19 
ROOT
ATOM      1  O   UNL d   1      27.795 -15.574  -5.565  0.00  0.00    -0.267 OA
ATOM      2  C   UNL d   1      27.311 -14.452  -5.449  0.00  0.00     0.261 A 
ATOM      3  C   UNL d   1      27.780 -13.341  -6.310  0.00  0.00     0.044 A 
ATOM      4  C   UNL d   1      28.774 -13.592  -7.256  0.00  0.00     0.018 A 
ATOM      5  C   UNL d   1      29.223 -12.559  -8.068  0.00  0.00     0.002 A 
ATOM      6  C   UNL d   1      28.684 -11.278  -7.939  0.00  0.00     0.015 A 
ATOM      7  C   UNL d   1      27.679 -10.994  -6.992  0.00  0.00     0.009 A 
ATOM      8  C   UNL d   1      27.094  -9.714  -6.814  0.00  0.00     0.076 A 
ATOM      9  C   UNL d   1      26.105  -9.488  -5.865  0.00  0.00     0.038 A 
ATOM     10  C   UNL d   1      25.674 -10.533  -5.069  0.00  0.00     0.021 A 
ATOM     11  C   UNL d   1      26.238 -11.805  -5.228  0.00  0.00     0.044 A 
ATOM     12  C   UNL d   1      27.231 -12.058  -6.171  0.00  0.00     0.008 A 
ATOM     13  C   UNL d   1      25.747 -12.883  -4.363  0.00  0.00     0.261 A 
ATOM     14  O   UNL d   1      24.874 -12.574  -3.568  0.00  0.00    -0.267 OA
ATOM     15  N   UNL d   1      26.313 -14.157  -4.522  0.00  0.00    -0.280 N 
ENDROOT
BRANCH  15  16
ATOM     16  C   UNL d   1      25.888 -15.296  -3.699  0.00  0.00     0.140 C 
BRANCH  16  17
ATOM     17  C   UNL d   1      26.091 -15.088  -2.223  0.00  0.00     0.057 C 
BRANCH  17  18
ATOM     18  C   UNL d   1      26.100 -16.215  -1.280  0.00  0.00    -0.048 A 
ATOM     19  C   UNL d   1      24.929 -16.670  -0.837  0.00  0.00    -0.006 A 
ATOM     20  C   UNL d   1      23.600 -16.303  -1.191  0.00  0.00     0.014 C 
ATOM     21  C   UNL d   1      25.249 -17.845  -0.036  0.00  0.00     0.038 A 
ATOM     22  C   UNL d   1      22.630 -17.174  -0.895  0.00  0.00     0.001 C 
ATOM     23  C   UNL d   1      22.875 -18.245   0.060  0.00  0.00     0.002 C 
ATOM     24  C   UNL d   1      24.099 -18.575   0.528  0.00  0.00     0.030 C 
ATOM     25  N   UNL d   1      26.512 -18.056   0.013  0.00  0.00    -0.385 N 
ATOM     26  C   UNL d   1      27.240 -17.054  -0.822  0.00  0.00     0.155 A 
ATOM     27  H   UNL d   1      26.921 -18.839   0.519  0.00  0.00     0.160 HD
ENDBRANCH  17  18
ENDBRANCH  16  17
ENDBRANCH  15  16
BRANCH   8  28
ATOM     28  O   UNL d   1      27.438  -8.609  -7.541  0.00  0.00    -0.360 OA
ATOM     29  H   UNL d   1      27.077  -8.662  -8.437  0.00  0.00     0.217 HD
ENDBRANCH   8  28
TORSDOF 4
ENDMDL
MODEL 3
REMARK VINA RESULT:    -7.781      5.456      7.431
REMARK INTER + INTRA:          -9.470
REMARK INTER:                  -8.974
REMARK INTRA:                  -0.496
REMARK CONF_INDEPENDENT:        1.193
REMARK UNBOUND:                -0.496
REMARK  4 active torsions:
REMARK  status: ('A' for Active; 'I' for Inactive)
REMARK    1  A    between atoms: C_8  and  O_9 
REMARK    2  A    between atoms: N_16  and  C_17 
REMARK    3  A    between atoms: C_17  and  C_18 
REMARK    4  A    between atoms: C_18  and  C_19 
ROOT
ATOM      1  O   UNL d   1      24.844 -12.672  -3.542  0.00  0.00    -0.267 OA
ATOM      2  C   UNL d   1      25.729 -12.912  -4.360  0.00  0.00     0.261 A 
ATOM      3  C   UNL d   1      26.248 -11.838  -5.238  0.00  0.00     0.044 A 
ATOM      4  C   UNL d   1      25.722 -10.552  -5.116  0.00  0.00     0.018 A 
ATOM      5  C   UNL d   1      26.199  -9.537  -5.935  0.00  0.00     0.002 A 
ATOM      6  C   UNL d   1      27.199  -9.801  -6.872  0.00  0.00     0.015 A 
ATOM      7  C   UNL d   1      27.751 -11.090  -7.018  0.00  0.00     0.009 A 
ATOM      8  C   UNL d   1      28.766 -11.419  -7.951  0.00  0.00     0.076 A 
ATOM      9  C   UNL d   1      29.275 -12.708  -8.054  0.00  0.00     0.038 A 
ATOM     10  C   UNL d   1      28.784 -13.701  -7.227  0.00  0.00     0.021 A 
ATOM     11  C   UNL d   1      27.781 -13.399  -6.298  0.00  0.00     0.044 A 
ATOM     12  C   UNL d   1      27.254 -12.115  -6.176  0.00  0.00     0.008 A 
ATOM     13  C   UNL d   1      27.293 -14.484  -5.441  0.00  0.00     0.261 A 
ATOM     14  O   UNL d   1      27.812 -15.574  -5.612  0.00  0.00    -0.267 OA
ATOM     15  N   UNL d   1      26.287 -14.180  -4.511  0.00  0.00    -0.280 N 
ENDROOT
BRANCH  15  16
ATOM     16  C   UNL d   1      25.734 -15.202  -3.615  0.00  0.00     0.140 C 
BRANCH  16  17
ATOM     17  C   UNL d   1      26.188 -15.068  -2.187  0.00  0.00     0.057 C 
BRANCH  17  18
ATOM     18  C   UNL d   1      26.180 -16.213  -1.265  0.00  0.00    -0.048 A 
ATOM     19  C   UNL d   1      25.002 -16.658  -0.830  0.00  0.00    -0.006 A 
ATOM     20  C   UNL d   1      23.679 -16.264  -1.177  0.00  0.00     0.014 C 
ATOM     21  C   UNL d   1      25.304 -17.853  -0.051  0.00  0.00     0.038 A 
ATOM     22  C   UNL d   1      22.696 -17.126  -0.897  0.00  0.00     0.001 C 
ATOM     23  C   UNL d   1      22.924 -18.218   0.039  0.00  0.00     0.002 C 
ATOM     24  C   UNL d   1      24.143 -18.575   0.499  0.00  0.00     0.030 C 
ATOM     25  N   UNL d   1      26.564 -18.083  -0.006  0.00  0.00    -0.385 N 
ATOM     26  C   UNL d   1      27.307 -17.077  -0.823  0.00  0.00     0.155 A 
ATOM     27  H   UNL d   1      26.961 -18.881   0.485  0.00  0.00     0.160 HD
ENDBRANCH  17  18
ENDBRANCH  16  17
ENDBRANCH  15  16
BRANCH   8  28
ATOM     28  O   UNL d   1      29.328 -10.523  -8.816  0.00  0.00    -0.360 OA
ATOM     29  H   UNL d   1      29.319 -10.866  -9.721  0.00  0.00     0.217 HD
ENDBRANCH   8  28
TORSDOF 4
ENDMDL
MODEL 4
REMARK VINA RESULT:    -7.692      5.383      8.544
REMARK INTER + INTRA:          -9.663
REMARK INTER:                  -8.885
REMARK INTRA:                  -0.777
REMARK CONF_INDEPENDENT:        1.193
REMARK UNBOUND:                -0.777
REMARK  4 active torsions:
REMARK  status: ('A' for Active; 'I' for Inactive)
REMARK    1  A    between atoms: C_8  and  O_9 
REMARK    2  A    between atoms: N_16  and  C_17 
REMARK    3  A    between atoms: C_17  and  C_18 
REMARK    4  A    between atoms: C_18  and  C_19 
ROOT
ATOM      1  O   UNL d   1      28.758 -15.433  -2.395  0.00  0.00    -0.267 OA
ATOM      2  C   UNL d   1      27.545 -15.525  -2.231  0.00  0.00     0.261 A 
ATOM      3  C   UNL d   1      26.990 -16.538  -1.303  0.00  0.00     0.044 A 
ATOM      4  C   UNL d   1      27.865 -17.378  -0.616  0.00  0.00     0.018 A 
ATOM      5  C   UNL d   1      27.357 -18.332   0.255  0.00  0.00     0.002 A 
ATOM      6  C   UNL d   1      25.978 -18.450   0.443  0.00  0.00     0.015 A 
ATOM      7  C   UNL d   1      25.069 -17.615  -0.237  0.00  0.00     0.009 A 
ATOM      8  C   UNL d   1      23.661 -17.688  -0.088  0.00  0.00     0.076 A 
ATOM      9  C   UNL d   1      22.807 -16.839  -0.784  0.00  0.00     0.038 A 
ATOM     10  C   UNL d   1      23.338 -15.897  -1.645  0.00  0.00     0.021 A 
ATOM     11  C   UNL d   1      24.726 -15.808  -1.807  0.00  0.00     0.044 A 
ATOM     12  C   UNL d   1      25.602 -16.647  -1.122  0.00  0.00     0.008 A 
ATOM     13  C   UNL d   1      25.243 -14.791  -2.729  0.00  0.00     0.261 A 
ATOM     14  O   UNL d   1      24.406 -14.098  -3.283  0.00  0.00    -0.267 OA
ATOM     15  N   UNL d   1      26.634 -14.704  -2.892  0.00  0.00    -0.280 N 
ENDROOT
BRANCH  15  16
ATOM     16  C   UNL d   1      27.242 -13.720  -3.796  0.00  0.00     0.140 C 
BRANCH  16  17
ATOM     17  C   UNL d   1      27.102 -14.066  -5.253  0.00  0.00     0.057 C 
BRANCH  17  18
ATOM     18  C   UNL d   1      28.248 -14.010  -6.172  0.00  0.00    -0.048 A 
ATOM     19  C   UNL d   1      29.197 -14.936  -6.045  0.00  0.00    -0.006 A 
ATOM     20  C   UNL d   1      29.269 -16.078  -5.198  0.00  0.00     0.014 C 
ATOM     21  C   UNL d   1      30.116 -14.701  -7.152  0.00  0.00     0.038 A 
ATOM     22  C   UNL d   1      30.129 -17.040  -5.547  0.00  0.00     0.001 C 
ATOM     23  C   UNL d   1      31.184 -16.764  -6.512  0.00  0.00     0.002 C 
ATOM     24  C   UNL d   1      31.241 -15.647  -7.270  0.00  0.00     0.030 C 
ATOM     25  N   UNL d   1      29.754 -13.699  -7.864  0.00  0.00    -0.385 N 
ATOM     26  C   UNL d   1      28.468 -13.136  -7.355  0.00  0.00     0.155 A 
ATOM     27  H   UNL d   1      30.269 -13.392  -8.687  0.00  0.00     0.160 HD
ENDBRANCH  17  18
ENDBRANCH  16  17
ENDBRANCH  15  16
BRANCH   8  28
ATOM     28  O   UNL d   1      23.023 -18.575   0.732  0.00  0.00    -0.360 OA
ATOM     29  H   UNL d   1      23.366 -19.470   0.603  0.00  0.00     0.217 HD
ENDBRANCH   8  28
TORSDOF 4
ENDMDL
MODEL 5
REMARK VINA RESULT:    -7.566      4.422      6.651
REMARK INTER + INTRA:          -9.480
REMARK INTER:                  -8.759
REMARK INTRA:                  -0.721
REMARK CONF_INDEPENDENT:        1.193
REMARK UNBOUND:                -0.721
REMARK  4 active torsions:
REMARK  status: ('A' for Active; 'I' for Inactive)
REMARK    1  A    between atoms: C_8  and  O_9 
REMARK    2  A    between atoms: N_16  and  C_17 
REMARK    3  A    between atoms: C_17  and  C_18 
REMARK    4  A    between atoms: C_18  and  C_19 
ROOT
ATOM      1  O   UNL d   1      27.335 -15.951  -3.296  0.00  0.00    -0.267 OA
ATOM      2  C   UNL d   1      27.337 -15.027  -4.105  0.00  0.00     0.261 A 
ATOM      3  C   UNL d   1      28.370 -14.963  -5.165  0.00  0.00     0.044 A 
ATOM      4  C   UNL d   1      29.334 -15.970  -5.232  0.00  0.00     0.018 A 
ATOM      5  C   UNL d   1      30.308 -15.920  -6.220  0.00  0.00     0.002 A 
ATOM      6  C   UNL d   1      30.323 -14.870  -7.141  0.00  0.00     0.015 A 
ATOM      7  C   UNL d   1      29.363 -13.840  -7.099  0.00  0.00     0.009 A 
ATOM      8  C   UNL d   1      29.328 -12.749  -8.004  0.00  0.00     0.076 A 
ATOM      9  C   UNL d   1      28.357 -11.758  -7.918  0.00  0.00     0.038 A 
ATOM     10  C   UNL d   1      27.397 -11.830  -6.926  0.00  0.00     0.021 A 
ATOM     11  C   UNL d   1      27.413 -12.899  -6.020  0.00  0.00     0.044 A 
ATOM     12  C   UNL d   1      28.375 -13.904  -6.085  0.00  0.00     0.008 A 
ATOM     13  C   UNL d   1      26.373 -12.935  -4.987  0.00  0.00     0.261 A 
ATOM     14  O   UNL d   1      25.570 -12.017  -5.007  0.00  0.00    -0.267 OA
ATOM     15  N   UNL d   1      26.391 -14.005  -4.080  0.00  0.00    -0.280 N 
ENDROOT
BRANCH  15  16
ATOM     16  C   UNL d   1      25.393 -14.122  -3.010  0.00  0.00     0.140 C 
BRANCH  16  17
ATOM     17  C   UNL d   1      25.928 -13.799  -1.642  0.00  0.00     0.057 C 
BRANCH  17  18
ATOM     18  C   UNL d   1      26.505 -14.837  -0.775  0.00  0.00    -0.048 A 
ATOM     19  C   UNL d   1      25.785 -15.935  -0.551  0.00  0.00    -0.006 A 
ATOM     20  C   UNL d   1      24.536 -16.349  -1.092  0.00  0.00     0.014 C 
ATOM     21  C   UNL d   1      26.654 -16.814   0.223  0.00  0.00     0.038 A 
ATOM     22  C   UNL d   1      24.237 -17.650  -1.004  0.00  0.00     0.001 C 
ATOM     23  C   UNL d   1      24.969 -18.509  -0.085  0.00  0.00     0.002 C 
ATOM     24  C   UNL d   1      26.102 -18.141   0.553  0.00  0.00     0.030 C 
ATOM     25  N   UNL d   1      27.789 -16.269   0.461  0.00  0.00    -0.385 N 
ATOM     26  C   UNL d   1      27.869 -14.927  -0.189  0.00  0.00     0.155 A 
ATOM     27  H   UNL d   1      28.528 -16.738   0.980  0.00  0.00     0.160 HD
ENDBRANCH  17  18
ENDBRANCH  16  17
ENDBRANCH  15  16
BRANCH   8  28
ATOM     28  O   UNL d   1      30.221 -12.573  -9.024  0.00  0.00    -0.360 OA
ATOM     29  H   UNL d   1      30.204 -13.327  -9.629  0.00  0.00     0.217 HD
ENDBRANCH   8  28
TORSDOF 4
ENDMDL
MODEL 6
REMARK VINA RESULT:    -7.545      5.347      8.643
REMARK INTER + INTRA:          -9.547
REMARK INTER:                  -8.738
REMARK INTRA:                  -0.808
REMARK CONF_INDEPENDENT:        1.193
REMARK UNBOUND:                -0.808
REMARK  4 active torsions:
REMARK  status: ('A' for Active; 'I' for Inactive)
REMARK    1  A    between atoms: C_8  and  O_9 
REMARK    2  A    between atoms: N_16  and  C_17 
REMARK    3  A    between atoms: C_17  and  C_18 
REMARK    4  A    between atoms: C_18  and  C_19 
ROOT
ATOM      1  O   UNL d   1      23.864 -14.393  -3.102  0.00  0.00    -0.267 OA
ATOM      2  C   UNL d   1      24.872 -14.934  -2.657  0.00  0.00     0.261 A 
ATOM      3  C   UNL d   1      24.758 -16.036  -1.673  0.00  0.00     0.044 A 
ATOM      4  C   UNL d   1      23.489 -16.453  -1.269  0.00  0.00     0.018 A 
ATOM      5  C   UNL d   1      23.369 -17.484  -0.347  0.00  0.00     0.002 A 
ATOM      6  C   UNL d   1      24.510 -18.100   0.172  0.00  0.00     0.015 A 
ATOM      7  C   UNL d   1      25.804 -17.702  -0.218  0.00  0.00     0.009 A 
ATOM      8  C   UNL d   1      26.998 -18.288   0.273  0.00  0.00     0.076 A 
ATOM      9  C   UNL d   1      28.251 -17.856  -0.145  0.00  0.00     0.038 A 
ATOM     10  C   UNL d   1      28.344 -16.829  -1.064  0.00  0.00     0.021 A 
ATOM     11  C   UNL d   1      27.178 -16.234  -1.563  0.00  0.00     0.044 A 
ATOM     12  C   UNL d   1      25.911 -16.649  -1.160  0.00  0.00     0.008 A 
ATOM     13  C   UNL d   1      27.326 -15.150  -2.539  0.00  0.00     0.261 A 
ATOM     14  O   UNL d   1      28.472 -14.854  -2.838  0.00  0.00    -0.267 OA
ATOM     15  N   UNL d   1      26.158 -14.554  -3.036  0.00  0.00    -0.280 N 
ENDROOT
BRANCH  15  16
ATOM     16  C   UNL d   1      26.208 -13.459  -4.013  0.00  0.00     0.140 C 
BRANCH  16  17
ATOM     17  C   UNL d   1      26.609 -13.896  -5.395  0.00  0.00     0.057 C 
BRANCH  17  18
ATOM     18  C   UNL d   1      27.831 -13.393  -6.038  0.00  0.00    -0.048 A 
ATOM     19  C   UNL d   1      28.879 -14.212  -6.117  0.00  0.00    -0.006 A 
ATOM     20  C   UNL d   1      29.013 -15.581  -5.751  0.00  0.00     0.014 C 
ATOM     21  C   UNL d   1      29.874 -13.492  -6.902  0.00  0.00     0.038 A 
ATOM     22  C   UNL d   1      30.030 -16.258  -6.293  0.00  0.00     0.001 C 
ATOM     23  C   UNL d   1      31.138 -15.544  -6.911  0.00  0.00     0.002 C 
ATOM     24  C   UNL d   1      31.125 -14.220  -7.184  0.00  0.00     0.030 C 
ATOM     25  N   UNL d   1      29.459 -12.327  -7.240  0.00  0.00    -0.385 N 
ATOM     26  C   UNL d   1      28.059 -12.115  -6.765  0.00  0.00     0.155 A 
ATOM     27  H   UNL d   1      30.016 -11.685  -7.800  0.00  0.00     0.160 HD
ENDBRANCH  17  18
ENDBRANCH  16  17
ENDBRANCH  15  16
BRANCH   8  28
ATOM     28  O   UNL d   1      27.030 -19.309   1.181  0.00  0.00    -0.360 OA
ATOM     29  H   UNL d   1      27.917 -19.692   1.237  0.00  0.00     0.217 HD
ENDBRANCH   8  28
TORSDOF 4
ENDMDL
MODEL 7
REMARK VINA RESULT:    -7.404      5.541      8.736
REMARK INTER + INTRA:          -9.417
REMARK INTER:                  -8.597
REMARK INTRA:                  -0.820
REMARK CONF_INDEPENDENT:        1.193
REMARK UNBOUND:                -0.820
REMARK  4 active torsions:
REMARK  status: ('A' for Active; 'I' for Inactive)
REMARK    1  A    between atoms: C_8  and  O_9 
REMARK    2  A    between atoms: N_16  and  C_17 
REMARK    3  A    between atoms: C_17  and  C_18 
REMARK    4  A    between atoms: C_18  and  C_19 
ROOT
ATOM      1  O   UNL d   1      28.833 -17.790  -0.517  0.00  0.00    -0.267 OA
ATOM      2  C   UNL d   1      28.541 -17.080  -1.475  0.00  0.00     0.261 A 
ATOM      3  C   UNL d   1      27.160 -16.568  -1.634  0.00  0.00     0.044 A 
ATOM      4  C   UNL d   1      26.201 -16.900  -0.677  0.00  0.00     0.018 A 
ATOM      5  C   UNL d   1      24.903 -16.428  -0.816  0.00  0.00     0.002 A 
ATOM      6  C   UNL d   1      24.559 -15.626  -1.905  0.00  0.00     0.015 A 
ATOM      7  C   UNL d   1      25.506 -15.273  -2.888  0.00  0.00     0.009 A 
ATOM      8  C   UNL d   1      25.216 -14.464  -4.015  0.00  0.00     0.076 A 
ATOM      9  C   UNL d   1      26.188 -14.146  -4.956  0.00  0.00     0.038 A 
ATOM     10  C   UNL d   1      27.474 -14.627  -4.795  0.00  0.00     0.021 A 
ATOM     11  C   UNL d   1      27.782 -15.429  -3.689  0.00  0.00     0.044 A 
ATOM     12  C   UNL d   1      26.826 -15.762  -2.733  0.00  0.00     0.008 A 
ATOM     13  C   UNL d   1      29.160 -15.914  -3.559  0.00  0.00     0.261 A 
ATOM     14  O   UNL d   1      29.932 -15.571  -4.439  0.00  0.00    -0.267 OA
ATOM     15  N   UNL d   1      29.467 -16.718  -2.451  0.00  0.00    -0.280 N 
ENDROOT
BRANCH  15  16
ATOM     16  C   UNL d   1      30.818 -17.253  -2.240  0.00  0.00     0.140 C 
BRANCH  16  17
ATOM     17  C   UNL d   1      31.520 -17.648  -3.510  0.00  0.00     0.057 C 
BRANCH  17  18
ATOM     18  C   UNL d   1      31.087 -18.809  -4.301  0.00  0.00    -0.048 A 
ATOM     19  C   UNL d   1      30.906 -18.642  -5.610  0.00  0.00    -0.006 A 
ATOM     20  C   UNL d   1      31.148 -17.513  -6.441  0.00  0.00     0.014 C 
ATOM     21  C   UNL d   1      30.609 -19.971  -6.131  0.00  0.00     0.038 A 
ATOM     22  C   UNL d   1      31.254 -17.736  -7.755  0.00  0.00     0.001 C 
ATOM     23  C   UNL d   1      30.778 -18.988  -8.325  0.00  0.00     0.002 C 
ATOM     24  C   UNL d   1      30.422 -20.065  -7.590  0.00  0.00     0.030 C 
ATOM     25  N   UNL d   1      30.590 -20.852  -5.200  0.00  0.00    -0.385 N 
ATOM     26  C   UNL d   1      30.940 -20.231  -3.888  0.00  0.00     0.155 A 
ATOM     27  H   UNL d   1      30.409 -21.838  -5.378  0.00  0.00     0.160 HD
ENDBRANCH  17  18
ENDBRANCH  16  17
ENDBRANCH  15  16
BRANCH   8  28
ATOM     28  O   UNL d   1      23.985 -13.931  -4.278  0.00  0.00    -0.360 OA
ATOM     29  H   UNL d   1      24.039 -13.276  -4.988  0.00  0.00     0.217 HD
ENDBRANCH   8  28
TORSDOF 4
ENDMDL
MODEL 8
REMARK VINA RESULT:    -7.382      3.805      8.285
REMARK INTER + INTRA:          -9.762
REMARK INTER:                  -8.575
REMARK INTRA:                  -1.187
REMARK CONF_INDEPENDENT:        1.193
REMARK UNBOUND:                -1.187
REMARK  4 active torsions:
REMARK  status: ('A' for Active; 'I' for Inactive)
REMARK    1  A    between atoms: C_8  and  O_9 
REMARK    2  A    between atoms: N_16  and  C_17 
REMARK    3  A    between atoms: C_17  and  C_18 
REMARK    4  A    between atoms: C_18  and  C_19 
ROOT
ATOM      1  O   UNL d   1      24.782 -14.586  -4.449  0.00  0.00    -0.267 OA
ATOM      2  C   UNL d   1      25.453 -14.176  -3.505  0.00  0.00     0.261 A 
ATOM      3  C   UNL d   1      25.703 -15.044  -2.332  0.00  0.00     0.044 A 
ATOM      4  C   UNL d   1      25.172 -16.334  -2.319  0.00  0.00     0.018 A 
ATOM      5  C   UNL d   1      25.398 -17.157  -1.224  0.00  0.00     0.002 A 
ATOM      6  C   UNL d   1      26.154 -16.698  -0.143  0.00  0.00     0.015 A 
ATOM      7  C   UNL d   1      26.704 -15.400  -0.128  0.00  0.00     0.009 A 
ATOM      8  C   UNL d   1      27.478 -14.879   0.940  0.00  0.00     0.076 A 
ATOM      9  C   UNL d   1      27.997 -13.590   0.904  0.00  0.00     0.038 A 
ATOM     10  C   UNL d   1      27.759 -12.790  -0.197  0.00  0.00     0.021 A 
ATOM     11  C   UNL d   1      26.996 -13.285  -1.263  0.00  0.00     0.044 A 
ATOM     12  C   UNL d   1      26.464 -14.572  -1.252  0.00  0.00     0.008 A 
ATOM     13  C   UNL d   1      26.772 -12.402  -2.412  0.00  0.00     0.261 A 
ATOM     14  O   UNL d   1      27.277 -11.294  -2.339  0.00  0.00    -0.267 OA
ATOM     15  N   UNL d   1      26.007 -12.898  -3.478  0.00  0.00    -0.280 N 
ENDROOT
BRANCH  15  16
ATOM     16  C   UNL d   1      25.727 -12.084  -4.667  0.00  0.00     0.140 C 
BRANCH  16  17
ATOM     17  C   UNL d   1      26.958 -11.527  -5.326  0.00  0.00     0.057 C 
BRANCH  17  18
ATOM     18  C   UNL d   1      27.722 -12.303  -6.314  0.00  0.00    -0.048 A 
ATOM     19  C   UNL d   1      28.378 -13.382  -5.890  0.00  0.00    -0.006 A 
ATOM     20  C   UNL d   1      28.408 -14.003  -4.610  0.00  0.00     0.014 C 
ATOM     21  C   UNL d   1      28.923 -13.999  -7.093  0.00  0.00     0.038 A 
ATOM     22  C   UNL d   1      28.820 -15.274  -4.561  0.00  0.00     0.001 C 
ATOM     23  C   UNL d   1      29.546 -15.852  -5.683  0.00  0.00     0.002 C 
ATOM     24  C   UNL d   1      29.655 -15.264  -6.895  0.00  0.00     0.030 C 
ATOM     25  N   UNL d   1      28.636 -13.325  -8.144  0.00  0.00    -0.385 N 
ATOM     26  C   UNL d   1      27.780 -12.153  -7.793  0.00  0.00     0.155 A 
ATOM     27  H   UNL d   1      28.924 -13.609  -9.078  0.00  0.00     0.160 HD
ENDBRANCH  17  18
ENDBRANCH  16  17
ENDBRANCH  15  16
BRANCH   8  28
ATOM     28  O   UNL d   1      27.780 -15.574   2.076  0.00  0.00    -0.360 OA
ATOM     29  H   UNL d   1      28.698 -15.878   2.059  0.00  0.00     0.217 HD
ENDBRANCH   8  28
TORSDOF 4
ENDMDL
MODEL 9
REMARK VINA RESULT:    -7.169      3.793      8.259
REMARK INTER + INTRA:          -9.599
REMARK INTER:                  -8.362
REMARK INTRA:                  -1.237
REMARK CONF_INDEPENDENT:        1.193
REMARK UNBOUND:                -1.237
REMARK  4 active torsions:
REMARK  status: ('A' for Active; 'I' for Inactive)
REMARK    1  A    between atoms: C_8  and  O_9 
REMARK    2  A    between atoms: N_16  and  C_17 
REMARK    3  A    between atoms: C_17  and  C_18 
REMARK    4  A    between atoms: C_18  and  C_19 
ROOT
ATOM      1  O   UNL d   1      27.235 -11.473  -2.120  0.00  0.00    -0.267 OA
ATOM      2  C   UNL d   1      26.758 -12.603  -2.176  0.00  0.00     0.261 A 
ATOM      3  C   UNL d   1      26.976 -13.563  -1.069  0.00  0.00     0.044 A 
ATOM      4  C   UNL d   1      27.724 -13.162   0.038  0.00  0.00     0.018 A 
ATOM      5  C   UNL d   1      27.937 -14.053   1.081  0.00  0.00     0.002 A 
ATOM      6  C   UNL d   1      27.405 -15.343   1.023  0.00  0.00     0.015 A 
ATOM      7  C   UNL d   1      26.644 -15.777  -0.081  0.00  0.00     0.009 A 
ATOM      8  C   UNL d   1      26.080 -17.073  -0.196  0.00  0.00     0.076 A 
ATOM      9  C   UNL d   1      25.337 -17.450  -1.309  0.00  0.00     0.038 A 
ATOM     10  C   UNL d   1      25.139 -16.544  -2.334  0.00  0.00     0.021 A 
ATOM     11  C   UNL d   1      25.688 -15.259  -2.241  0.00  0.00     0.044 A 
ATOM     12  C   UNL d   1      26.436 -14.856  -1.137  0.00  0.00     0.008 A 
ATOM     13  C   UNL d   1      25.449 -14.331  -3.351  0.00  0.00     0.261 A 
ATOM     14  O   UNL d   1      24.780 -14.766  -4.275  0.00  0.00    -0.267 OA
ATOM     15  N   UNL d   1      26.000 -13.045  -3.258  0.00  0.00    -0.280 N 
ENDROOT
BRANCH  15  16
ATOM     16  C   UNL d   1      25.817 -12.051  -4.323  0.00  0.00     0.140 C 
BRANCH  16  17
ATOM     17  C   UNL d   1      27.103 -11.584  -4.946  0.00  0.00     0.057 C 
BRANCH  17  18
ATOM     18  C   UNL d   1      27.793 -12.376  -5.975  0.00  0.00    -0.048 A 
ATOM     19  C   UNL d   1      28.437 -13.477  -5.589  0.00  0.00    -0.006 A 
ATOM     20  C   UNL d   1      28.512 -14.106  -4.315  0.00  0.00     0.014 C 
ATOM     21  C   UNL d   1      28.902 -14.102  -6.822  0.00  0.00     0.038 A 
ATOM     22  C   UNL d   1      28.889 -15.389  -4.293  0.00  0.00     0.001 C 
ATOM     23  C   UNL d   1      29.540 -15.981  -5.453  0.00  0.00     0.002 C 
ATOM     24  C   UNL d   1      29.605 -15.389  -6.666  0.00  0.00     0.030 C 
ATOM     25  N   UNL d   1      28.582 -13.413  -7.853  0.00  0.00    -0.385 N 
ATOM     26  C   UNL d   1      27.780 -12.219  -7.454  0.00  0.00     0.155 A 
ATOM     27  H   UNL d   1      28.814 -13.700  -8.802  0.00  0.00     0.160 HD
ENDBRANCH  17  18
ENDBRANCH  16  17
ENDBRANCH  15  16
BRANCH   8  28
ATOM     28  O   UNL d   1      26.207 -18.049   0.751  0.00  0.00    -0.360 OA
ATOM     29  H   UNL d   1      27.140 -18.227   0.937  0.00  0.00     0.217 HD
ENDBRANCH   8  28
TORSDOF 4
ENDMDL
