MODEL 1
REMARK VINA RESULT:    -8.783      0.000      0.000
REMARK INTER + INTRA:         -12.073
REMARK INTER:                 -10.573
REMARK INTRA:                  -1.500
REMARK CONF_INDEPENDENT:        1.790
REMARK UNBOUND:                -1.500
REMARK  6 active torsions:
REMARK  status: ('A' for Active; 'I' for Inactive)
REMARK    1  A    between atoms: C_3  and  N_4 
REMARK       I    between atoms: N_4  and  C_5 
REMARK    2  A    between atoms: C_5  and  C_7 
REMARK       I    between atoms: C_7  and  N_9 
REMARK    3  A    between atoms: N_9  and  C_10 
REMARK    4  A    between atoms: C_10  and  C_11 
REMARK    5  A    between atoms: C_11  and  C_12 
REMARK    6  A    between atoms: C_24  and  N_25 
ROOT
ATOM      1  C   UNL d   1      23.864 -16.570  -1.256  0.00  0.00     0.309 C 
ATOM      2  O   UNL d   1      22.802 -16.106  -0.954  0.00  0.00    -0.262 OA
ATOM      3  N   UNL d   1      24.386 -17.848  -0.994  0.00  0.00    -0.353 N 
ATOM      4  H   UNL d   1      25.361 -17.992  -1.258  0.00  0.00     0.162 HD
ENDROOT
BRANCH   1   5
ATOM      5  C   UNL d   1      24.949 -15.776  -1.966  0.00  0.00     0.313 C 
ATOM      6  N   UNL d   1      24.644 -14.589  -2.665  0.00  0.00    -0.318 N 
ATOM      7  H   UNL d   1      23.693 -14.256  -2.509  0.00  0.00     0.169 HD
ATOM      8  O   UNL d   1      26.017 -16.355  -1.754  0.00  0.00    -0.262 OA
BRANCH   6   9
ATOM      9  C   UNL d   1      25.495 -13.739  -3.510  0.00  0.00     0.043 A 
ATOM     10  C   UNL d   1      26.281 -14.174  -4.625  0.00  0.00    -0.002 A 
ATOM     11  C   UNL d   1      26.262 -15.575  -5.086  0.00  0.00     0.053 C 
ATOM     12  C   UNL d   1      27.082 -13.288  -5.393  0.00  0.00     0.111 A 
ATOM     13  C   UNL d   1      27.092 -11.931  -5.089  0.00  0.00     0.037 A 
ATOM     14  C   UNL d   1      26.313 -11.465  -4.026  0.00  0.00     0.005 A 
ATOM     15  C   UNL d   1      25.527 -12.349  -3.246  0.00  0.00     0.030 A 
BRANCH  12  16
ATOM     16  N   UNL d   1      27.907 -13.770  -6.547  0.00  0.00    -0.115 N 
ATOM     17  O   UNL d   1      28.156 -12.957  -7.445  0.00  0.00    -0.532 OA
ATOM     18  O   UNL d   1      28.316 -14.939  -6.574  0.00  0.00    -0.532 OA
ENDBRANCH  12  16
ENDBRANCH   6   9
ENDBRANCH   1   5
BRANCH   3  19
ATOM     19  C   UNL d   1      23.739 -18.763  -0.143  0.00  0.00     0.128 C 
BRANCH  19  20
ATOM     20  C   UNL d   1      22.493 -18.302   0.603  0.00  0.00     0.060 C 
BRANCH  20  21
ATOM     21  C   UNL d   1      21.266 -18.950   0.021  0.00  0.00    -0.029 A 
ATOM     22  C   UNL d   1      20.868 -18.906  -1.301  0.00  0.00     0.096 A 
ATOM     23  N   UNL d   1      19.706 -19.625  -1.424  0.00  0.00    -0.365 N 
ATOM     24  C   UNL d   1      19.298 -20.095  -0.196  0.00  0.00     0.042 A 
ATOM     25  H   UNL d   1      19.202 -19.767  -2.289  0.00  0.00     0.165 HD
ATOM     26  C   UNL d   1      18.160 -20.826   0.182  0.00  0.00     0.030 A 
ATOM     27  C   UNL d   1      20.260 -19.704   0.731  0.00  0.00    -0.002 A 
ATOM     28  C   UNL d   1      17.990 -21.140   1.539  0.00  0.00     0.002 A 
ATOM     29  C   UNL d   1      18.928 -20.773   2.482  0.00  0.00     0.001 A 
ATOM     30  C   UNL d   1      20.055 -20.078   2.081  0.00  0.00     0.014 A 
ENDBRANCH  20  21
ENDBRANCH  19  20
ENDBRANCH   3  19
TORSDOF 6
ENDMDL
MODEL 2
REMARK VINA RESULT:    -8.199      1.637      2.214
REMARK INTER + INTRA:         -11.585
REMARK INTER:                  -9.989
REMARK INTRA:                  -1.596
REMARK CONF_INDEPENDENT:        1.790
REMARK UNBOUND:                -1.596
REMARK  6 active torsions:
REMARK  status: ('A' for Active; 'I' for Inactive)
REMARK    1  A    between atoms: C_3  and  N_4 
REMARK       I    between atoms: N_4  and  C_5 
REMARK    2  A    between atoms: C_5  and  C_7 
REMARK       I    between atoms: C_7  and  N_9 
REMARK    3  A    between atoms: N_9  and  C_10 
REMARK    4  A    between atoms: C_10  and  C_11 
REMARK    5  A    between atoms: C_11  and  C_12 
REMARK    6  A    between atoms: C_24  and  N_25 
ROOT
ATOM      1  C   UNL d   1      25.498 -16.748  -1.341  0.00  0.00     0.309 C 
ATOM      2  O   UNL d   1      26.433 -16.969  -0.626  0.00  0.00    -0.262 OA
ATOM      3  N   UNL d   1      24.206 -17.299  -1.314  0.00  0.00    -0.353 N 
ATOM      4  H   UNL d   1      23.596 -17.039  -2.090  0.00  0.00     0.162 HD
ENDROOT
BRANCH   1   5
ATOM      5  C   UNL d   1      25.568 -15.819  -2.541  0.00  0.00     0.313 C 
ATOM      6  N   UNL d   1      26.777 -15.623  -3.242  0.00  0.00    -0.318 N 
ATOM      7  H   UNL d   1      27.518 -16.267  -2.967  0.00  0.00     0.169 HD
ATOM      8  O   UNL d   1      24.430 -15.382  -2.727  0.00  0.00    -0.262 OA
BRANCH   6   9
ATOM      9  C   UNL d   1      27.101 -14.697  -4.337  0.00  0.00     0.043 A 
ATOM     10  C   UNL d   1      26.525 -13.403  -4.547  0.00  0.00    -0.002 A 
ATOM     11  C   UNL d   1      25.546 -12.829  -3.604  0.00  0.00     0.053 C 
ATOM     12  C   UNL d   1      26.891 -12.565  -5.633  0.00  0.00     0.111 A 
ATOM     13  C   UNL d   1      27.873 -12.985  -6.524  0.00  0.00     0.037 A 
ATOM     14  C   UNL d   1      28.480 -14.229  -6.333  0.00  0.00     0.005 A 
ATOM     15  C   UNL d   1      28.103 -15.075  -5.261  0.00  0.00     0.030 A 
BRANCH  12  16
ATOM     16  N   UNL d   1      26.262 -11.221  -5.840  0.00  0.00    -0.115 N 
ATOM     17  O   UNL d   1      26.718 -10.275  -5.187  0.00  0.00    -0.532 OA
ATOM     18  O   UNL d   1      25.327 -11.088  -6.642  0.00  0.00    -0.532 OA
ENDBRANCH  12  16
ENDBRANCH   6   9
ENDBRANCH   1   5
BRANCH   3  19
ATOM     19  C   UNL d   1      23.867 -18.377  -0.476  0.00  0.00     0.128 C 
BRANCH  19  20
ATOM     20  C   UNL d   1      22.686 -18.213   0.473  0.00  0.00     0.060 C 
BRANCH  20  21
ATOM     21  C   UNL d   1      21.466 -18.894  -0.087  0.00  0.00    -0.029 A 
ATOM     22  C   UNL d   1      21.108 -18.962  -1.420  0.00  0.00     0.096 A 
ATOM     23  N   UNL d   1      19.939 -19.676  -1.514  0.00  0.00    -0.365 N 
ATOM     24  C   UNL d   1      19.489 -20.031  -0.262  0.00  0.00     0.042 A 
ATOM     25  H   UNL d   1      19.459 -19.887  -2.378  0.00  0.00     0.165 HD
ATOM     26  C   UNL d   1      18.330 -20.711   0.144  0.00  0.00     0.030 A 
ATOM     27  C   UNL d   1      20.429 -19.571   0.655  0.00  0.00    -0.002 A 
ATOM     28  C   UNL d   1      18.115 -20.903   1.517  0.00  0.00     0.002 A 
ATOM     29  C   UNL d   1      19.031 -20.466   2.452  0.00  0.00     0.001 A 
ATOM     30  C   UNL d   1      20.180 -19.823   2.026  0.00  0.00     0.014 A 
ENDBRANCH  20  21
ENDBRANCH  19  20
ENDBRANCH   3  19
TORSDOF 6
ENDMDL
MODEL 3
REMARK VINA RESULT:    -8.053      2.061      2.367
REMARK INTER + INTRA:         -10.620
REMARK INTER:                  -9.843
REMARK INTRA:                  -0.777
REMARK CONF_INDEPENDENT:        1.790
REMARK UNBOUND:                -0.777
REMARK  6 active torsions:
REMARK  status: ('A' for Active; 'I' for Inactive)
REMARK    1  A    between atoms: C_3  and  N_4 
REMARK       I    between atoms: N_4  and  C_5 
REMARK    2  A    between atoms: C_5  and  C_7 
REMARK       I    between atoms: C_7  and  N_9 
REMARK    3  A    between atoms: N_9  and  C_10 
REMARK    4  A    between atoms: C_10  and  C_11 
REMARK    5  A    between atoms: C_11  and  C_12 
REMARK    6  A    between atoms: C_24  and  N_25 
ROOT
ATOM      1  C   UNL d   1      25.296 -17.532   0.077  0.00  0.00     0.309 C 
ATOM      2  O   UNL d   1      25.233 -18.233   1.046  0.00  0.00    -0.262 OA
ATOM      3  N   UNL d   1      24.265 -16.878  -0.619  0.00  0.00    -0.353 N 
ATOM      4  H   UNL d   1      24.538 -16.413  -1.485  0.00  0.00     0.162 HD
ENDROOT
BRANCH   1   5
ATOM      5  C   UNL d   1      26.589 -17.263  -0.675  0.00  0.00     0.313 C 
ATOM      6  N   UNL d   1      26.678 -16.222  -1.623  0.00  0.00    -0.318 N 
ATOM      7  H   UNL d   1      25.869 -15.600  -1.625  0.00  0.00     0.169 HD
ATOM      8  O   UNL d   1      27.425 -18.066  -0.254  0.00  0.00    -0.262 OA
BRANCH   6   9
ATOM      9  C   UNL d   1      27.770 -15.862  -2.539  0.00  0.00     0.043 A 
ATOM     10  C   UNL d   1      27.625 -15.387  -3.882  0.00  0.00    -0.002 A 
ATOM     11  C   UNL d   1      26.297 -15.149  -4.479  0.00  0.00     0.053 C 
ATOM     12  C   UNL d   1      28.733 -15.061  -4.706  0.00  0.00     0.111 A 
ATOM     13  C   UNL d   1      30.023 -15.167  -4.198  0.00  0.00     0.037 A 
ATOM     14  C   UNL d   1      30.203 -15.598  -2.881  0.00  0.00     0.005 A 
ATOM     15  C   UNL d   1      29.100 -15.942  -2.061  0.00  0.00     0.030 A 
BRANCH  12  16
ATOM     16  N   UNL d   1      28.555 -14.580  -6.114  0.00  0.00    -0.115 N 
ATOM     17  O   UNL d   1      29.168 -13.559  -6.446  0.00  0.00    -0.532 OA
ATOM     18  O   UNL d   1      27.821 -15.200  -6.895  0.00  0.00    -0.532 OA
ENDBRANCH  12  16
ENDBRANCH   6   9
ENDBRANCH   1   5
BRANCH   3  19
ATOM     19  C   UNL d   1      22.905 -17.107  -0.335  0.00  0.00     0.128 C 
BRANCH  19  20
ATOM     20  C   UNL d   1      22.534 -18.332   0.492  0.00  0.00     0.060 C 
BRANCH  20  21
ATOM     21  C   UNL d   1      21.293 -18.979  -0.060  0.00  0.00    -0.029 A 
ATOM     22  C   UNL d   1      20.875 -18.955  -1.377  0.00  0.00     0.096 A 
ATOM     23  N   UNL d   1      19.705 -19.667  -1.469  0.00  0.00    -0.365 N 
ATOM     24  C   UNL d   1      19.313 -20.111  -0.227  0.00  0.00     0.042 A 
ATOM     25  H   UNL d   1      19.187 -19.820  -2.323  0.00  0.00     0.165 HD
ATOM     26  C   UNL d   1      18.174 -20.825   0.182  0.00  0.00     0.030 A 
ATOM     27  C   UNL d   1      20.292 -19.711   0.678  0.00  0.00    -0.002 A 
ATOM     28  C   UNL d   1      18.022 -21.113   1.546  0.00  0.00     0.002 A 
ATOM     29  C   UNL d   1      18.978 -20.738   2.469  0.00  0.00     0.001 A 
ATOM     30  C   UNL d   1      20.104 -20.060   2.038  0.00  0.00     0.014 A 
ENDBRANCH  20  21
ENDBRANCH  19  20
ENDBRANCH   3  19
TORSDOF 6
ENDMDL
MODEL 4
REMARK VINA RESULT:    -7.655      8.068      9.903
REMARK INTER + INTRA:         -11.127
REMARK INTER:                  -9.445
REMARK INTRA:                  -1.682
REMARK CONF_INDEPENDENT:        1.790
REMARK UNBOUND:                -1.682
REMARK  6 active torsions:
REMARK  status: ('A' for Active; 'I' for Inactive)
REMARK    1  A    between atoms: C_3  and  N_4 
REMARK       I    between atoms: N_4  and  C_5 
REMARK    2  A    between atoms: C_5  and  C_7 
REMARK       I    between atoms: C_7  and  N_9 
REMARK    3  A    between atoms: N_9  and  C_10 
REMARK    4  A    between atoms: C_10  and  C_11 
REMARK    5  A    between atoms: C_11  and  C_12 
REMARK    6  A    between atoms: C_24  and  N_25 
ROOT
ATOM      1  C   UNL d   1      28.864 -14.105   2.902  0.00  0.00     0.309 C 
ATOM      2  O   UNL d   1      29.989 -14.447   2.677  0.00  0.00    -0.262 OA
ATOM      3  N   UNL d   1      28.348 -13.401   4.003  0.00  0.00    -0.353 N 
ATOM      4  H   UNL d   1      27.333 -13.309   4.035  0.00  0.00     0.162 HD
ENDROOT
BRANCH   1   5
ATOM      5  C   UNL d   1      27.690 -14.462   2.005  0.00  0.00     0.313 C 
ATOM      6  N   UNL d   1      27.731 -15.597   1.168  0.00  0.00    -0.318 N 
ATOM      7  H   UNL d   1      28.527 -16.208   1.347  0.00  0.00     0.169 HD
ATOM      8  O   UNL d   1      26.808 -13.626   2.215  0.00  0.00    -0.262 OA
BRANCH   6   9
ATOM      9  C   UNL d   1      26.779 -16.060   0.147  0.00  0.00     0.043 A 
ATOM     10  C   UNL d   1      26.439 -15.374  -1.063  0.00  0.00    -0.002 A 
ATOM     11  C   UNL d   1      27.088 -14.105  -1.443  0.00  0.00     0.053 C 
ATOM     12  C   UNL d   1      25.505 -15.888  -2.001  0.00  0.00     0.111 A 
ATOM     13  C   UNL d   1      24.909 -17.123  -1.772  0.00  0.00     0.037 A 
ATOM     14  C   UNL d   1      25.240 -17.836  -0.616  0.00  0.00     0.005 A 
ATOM     15  C   UNL d   1      26.157 -17.317   0.331  0.00  0.00     0.030 A 
BRANCH  12  16
ATOM     16  N   UNL d   1      25.155 -15.144  -3.254  0.00  0.00    -0.115 N 
ATOM     17  O   UNL d   1      24.419 -14.157  -3.141  0.00  0.00    -0.532 OA
ATOM     18  O   UNL d   1      25.601 -15.521  -4.346  0.00  0.00    -0.532 OA
ENDBRANCH  12  16
ENDBRANCH   6   9
ENDBRANCH   1   5
BRANCH   3  19
ATOM     19  C   UNL d   1      29.122 -13.123   5.145  0.00  0.00     0.128 C 
BRANCH  19  20
ATOM     20  C   UNL d   1      28.941 -14.003   6.375  0.00  0.00     0.060 C 
BRANCH  20  21
ATOM     21  C   UNL d   1      28.729 -13.155   7.599  0.00  0.00    -0.029 A 
ATOM     22  C   UNL d   1      28.530 -11.787   7.621  0.00  0.00     0.096 A 
ATOM     23  N   UNL d   1      28.369 -11.397   8.927  0.00  0.00    -0.365 N 
ATOM     24  C   UNL d   1      28.515 -12.474   9.772  0.00  0.00     0.042 A 
ATOM     25  H   UNL d   1      28.196 -10.449   9.230  0.00  0.00     0.165 HD
ATOM     26  C   UNL d   1      28.487 -12.558  11.174  0.00  0.00     0.030 A 
ATOM     27  C   UNL d   1      28.726 -13.594   8.974  0.00  0.00    -0.002 A 
ATOM     28  C   UNL d   1      28.705 -13.808  11.771  0.00  0.00     0.002 A 
ATOM     29  C   UNL d   1      28.911 -14.940  11.009  0.00  0.00     0.001 A 
ATOM     30  C   UNL d   1      28.905 -14.837   9.629  0.00  0.00     0.014 A 
ENDBRANCH  20  21
ENDBRANCH  19  20
ENDBRANCH   3  19
TORSDOF 6
ENDMDL
MODEL 5
REMARK VINA RESULT:    -7.393      2.601      3.123
REMARK INTER + INTRA:         -10.785
REMARK INTER:                  -9.183
REMARK INTRA:                  -1.602
REMARK CONF_INDEPENDENT:        1.790
REMARK UNBOUND:                -1.602
REMARK  6 active torsions:
REMARK  status: ('A' for Active; 'I' for Inactive)
REMARK    1  A    between atoms: C_3  and  N_4 
REMARK       I    between atoms: N_4  and  C_5 
REMARK    2  A    between atoms: C_5  and  C_7 
REMARK       I    between atoms: C_7  and  N_9 
REMARK    3  A    between atoms: N_9  and  C_10 
REMARK    4  A    between atoms: C_10  and  C_11 
REMARK    5  A    between atoms: C_11  and  C_12 
REMARK    6  A    between atoms: C_24  and  N_25 
ROOT
ATOM      1  C   UNL d   1      25.462 -16.359  -1.379  0.00  0.00     0.309 C 
ATOM      2  O   UNL d   1      26.435 -16.812  -0.849  0.00  0.00    -0.262 OA
ATOM      3  N   UNL d   1      24.143 -16.845  -1.388  0.00  0.00    -0.353 N 
ATOM      4  H   UNL d   1      23.491 -16.349  -1.996  0.00  0.00     0.162 HD
ENDROOT
BRANCH   1   5
ATOM      5  C   UNL d   1      25.495 -15.126  -2.267  0.00  0.00     0.313 C 
ATOM      6  N   UNL d   1      26.280 -14.004  -1.928  0.00  0.00    -0.318 N 
ATOM      7  H   UNL d   1      26.915 -14.170  -1.148  0.00  0.00     0.169 HD
ATOM      8  O   UNL d   1      24.780 -15.365  -3.244  0.00  0.00    -0.262 OA
BRANCH   6   9
ATOM      9  C   UNL d   1      26.370 -12.681  -2.562  0.00  0.00     0.043 A 
ATOM     10  C   UNL d   1      26.987 -11.516  -2.003  0.00  0.00    -0.002 A 
ATOM     11  C   UNL d   1      27.673 -11.555  -0.697  0.00  0.00     0.053 C 
ATOM     12  C   UNL d   1      27.032 -10.270  -2.680  0.00  0.00     0.111 A 
ATOM     13  C   UNL d   1      26.491 -10.161  -3.957  0.00  0.00     0.037 A 
ATOM     14  C   UNL d   1      25.908 -11.285  -4.548  0.00  0.00     0.005 A 
ATOM     15  C   UNL d   1      25.844 -12.526  -3.867  0.00  0.00     0.030 A 
BRANCH  12  16
ATOM     16  N   UNL d   1      27.671  -9.061  -2.067  0.00  0.00    -0.115 N 
ATOM     17  O   UNL d   1      28.667  -8.596  -2.634  0.00  0.00    -0.532 OA
ATOM     18  O   UNL d   1      27.199  -8.564  -1.036  0.00  0.00    -0.532 OA
ENDBRANCH  12  16
ENDBRANCH   6   9
ENDBRANCH   1   5
BRANCH   3  19
ATOM     19  C   UNL d   1      23.804 -18.105  -0.862  0.00  0.00     0.128 C 
BRANCH  19  20
ATOM     20  C   UNL d   1      22.747 -18.173   0.232  0.00  0.00     0.060 C 
BRANCH  20  21
ATOM     21  C   UNL d   1      21.509 -18.860  -0.278  0.00  0.00    -0.029 A 
ATOM     22  C   UNL d   1      21.110 -18.950  -1.599  0.00  0.00     0.096 A 
ATOM     23  N   UNL d   1      19.937 -19.661  -1.645  0.00  0.00    -0.365 N 
ATOM     24  C   UNL d   1      19.524 -19.991  -0.374  0.00  0.00     0.042 A 
ATOM     25  H   UNL d   1      19.430 -19.885  -2.490  0.00  0.00     0.165 HD
ATOM     26  C   UNL d   1      18.375 -20.660   0.079  0.00  0.00     0.030 A 
ATOM     27  C   UNL d   1      20.492 -19.519   0.506  0.00  0.00    -0.002 A 
ATOM     28  C   UNL d   1      18.201 -20.827   1.461  0.00  0.00     0.002 A 
ATOM     29  C   UNL d   1      19.146 -20.376   2.360  0.00  0.00     0.001 A 
ATOM     30  C   UNL d   1      20.283 -19.746   1.889  0.00  0.00     0.014 A 
ENDBRANCH  20  21
ENDBRANCH  19  20
ENDBRANCH   3  19
TORSDOF 6
ENDMDL
MODEL 6
REMARK VINA RESULT:    -7.269      8.102      9.592
REMARK INTER + INTRA:         -10.606
REMARK INTER:                  -9.059
REMARK INTRA:                  -1.547
REMARK CONF_INDEPENDENT:        1.790
REMARK UNBOUND:                -1.547
REMARK  6 active torsions:
REMARK  status: ('A' for Active; 'I' for Inactive)
REMARK    1  A    between atoms: C_3  and  N_4 
REMARK       I    between atoms: N_4  and  C_5 
REMARK    2  A    between atoms: C_5  and  C_7 
REMARK       I    between atoms: C_7  and  N_9 
REMARK    3  A    between atoms: N_9  and  C_10 
REMARK    4  A    between atoms: C_10  and  C_11 
REMARK    5  A    between atoms: C_11  and  C_12 
REMARK    6  A    between atoms: C_24  and  N_25 
ROOT
ATOM      1  C   UNL d   1      27.537 -13.942   3.073  0.00  0.00     0.309 C 
ATOM      2  O   UNL d   1      26.686 -13.099   3.095  0.00  0.00    -0.262 OA
ATOM      3  N   UNL d   1      28.176 -14.592   4.142  0.00  0.00    -0.353 N 
ATOM      4  H   UNL d   1      28.951 -15.206   3.890  0.00  0.00     0.162 HD
ENDROOT
BRANCH   1   5
ATOM      5  C   UNL d   1      28.180 -14.443   1.791  0.00  0.00     0.313 C 
ATOM      6  N   UNL d   1      27.428 -14.587   0.606  0.00  0.00    -0.318 N 
ATOM      7  H   UNL d   1      26.494 -14.182   0.663  0.00  0.00     0.169 HD
ATOM      8  O   UNL d   1      29.376 -14.622   2.033  0.00  0.00    -0.262 OA
BRANCH   6   9
ATOM      9  C   UNL d   1      27.806 -15.157  -0.696  0.00  0.00     0.043 A 
ATOM     10  C   UNL d   1      27.099 -14.986  -1.930  0.00  0.00    -0.002 A 
ATOM     11  C   UNL d   1      25.899 -14.134  -2.023  0.00  0.00     0.053 C 
ATOM     12  C   UNL d   1      27.529 -15.573  -3.149  0.00  0.00     0.111 A 
ATOM     13  C   UNL d   1      28.702 -16.320  -3.177  0.00  0.00     0.037 A 
ATOM     14  C   UNL d   1      29.435 -16.482  -1.998  0.00  0.00     0.005 A 
ATOM     15  C   UNL d   1      28.998 -15.914  -0.775  0.00  0.00     0.030 A 
BRANCH  12  16
ATOM     16  N   UNL d   1      26.764 -15.392  -4.424  0.00  0.00    -0.115 N 
ATOM     17  O   UNL d   1      27.418 -15.200  -5.456  0.00  0.00    -0.532 OA
ATOM     18  O   UNL d   1      25.526 -15.441  -4.419  0.00  0.00    -0.532 OA
ENDBRANCH  12  16
ENDBRANCH   6   9
ENDBRANCH   1   5
BRANCH   3  19
ATOM     19  C   UNL d   1      27.993 -14.194   5.480  0.00  0.00     0.128 C 
BRANCH  19  20
ATOM     20  C   UNL d   1      29.224 -14.033   6.362  0.00  0.00     0.060 C 
BRANCH  20  21
ATOM     21  C   UNL d   1      28.900 -13.186   7.563  0.00  0.00    -0.029 A 
ATOM     22  C   UNL d   1      28.636 -11.829   7.559  0.00  0.00     0.096 A 
ATOM     23  N   UNL d   1      28.379 -11.438   8.849  0.00  0.00    -0.365 N 
ATOM     24  C   UNL d   1      28.527 -12.500   9.713  0.00  0.00     0.042 A 
ATOM     25  H   UNL d   1      28.145 -10.497   9.132  0.00  0.00     0.165 HD
ATOM     26  C   UNL d   1      28.421 -12.575  11.111  0.00  0.00     0.030 A 
ATOM     27  C   UNL d   1      28.838 -13.615   8.940  0.00  0.00    -0.002 A 
ATOM     28  C   UNL d   1      28.662 -13.809  11.733  0.00  0.00     0.002 A 
ATOM     29  C   UNL d   1      28.966 -14.935  10.995  0.00  0.00     0.001 A 
ATOM     30  C   UNL d   1      29.037 -14.843   9.617  0.00  0.00     0.014 A 
ENDBRANCH  20  21
ENDBRANCH  19  20
ENDBRANCH   3  19
TORSDOF 6
ENDMDL
MODEL 7
REMARK VINA RESULT:    -7.139      5.494      7.329
REMARK INTER + INTRA:         -10.685
REMARK INTER:                  -8.929
REMARK INTRA:                  -1.756
REMARK CONF_INDEPENDENT:        1.790
REMARK UNBOUND:                -1.756
REMARK  6 active torsions:
REMARK  status: ('A' for Active; 'I' for Inactive)
REMARK    1  A    between atoms: C_3  and  N_4 
REMARK       I    between atoms: N_4  and  C_5 
REMARK    2  A    between atoms: C_5  and  C_7 
REMARK       I    between atoms: C_7  and  N_9 
REMARK    3  A    between atoms: N_9  and  C_10 
REMARK    4  A    between atoms: C_10  and  C_11 
REMARK    5  A    between atoms: C_11  and  C_12 
REMARK    6  A    between atoms: C_24  and  N_25 
ROOT
ATOM      1  C   UNL d   1      28.701 -14.475   0.207  0.00  0.00     0.309 C 
ATOM      2  O   UNL d   1      28.953 -14.046  -0.882  0.00  0.00    -0.262 OA
ATOM      3  N   UNL d   1      28.700 -15.803   0.665  0.00  0.00    -0.353 N 
ATOM      4  H   UNL d   1      28.349 -15.946   1.612  0.00  0.00     0.162 HD
ENDROOT
BRANCH   1   5
ATOM      5  C   UNL d   1      28.230 -13.601   1.358  0.00  0.00     0.313 C 
ATOM      6  N   UNL d   1      28.022 -12.216   1.184  0.00  0.00    -0.318 N 
ATOM      7  H   UNL d   1      28.063 -11.916   0.210  0.00  0.00     0.169 HD
ATOM      8  O   UNL d   1      28.065 -14.342   2.330  0.00  0.00    -0.262 OA
BRANCH   6   9
ATOM      9  C   UNL d   1      27.690 -11.174   2.167  0.00  0.00     0.043 A 
ATOM     10  C   UNL d   1      27.130  -9.888   1.878  0.00  0.00    -0.002 A 
ATOM     11  C   UNL d   1      26.764  -9.494   0.505  0.00  0.00     0.053 C 
ATOM     12  C   UNL d   1      26.838  -8.933   2.887  0.00  0.00     0.111 A 
ATOM     13  C   UNL d   1      27.066  -9.251   4.222  0.00  0.00     0.037 A 
ATOM     14  C   UNL d   1      27.583 -10.509   4.544  0.00  0.00     0.005 A 
ATOM     15  C   UNL d   1      27.893 -11.458   3.538  0.00  0.00     0.030 A 
BRANCH  12  16
ATOM     16  N   UNL d   1      26.266  -7.588   2.558  0.00  0.00    -0.115 N 
ATOM     17  O   UNL d   1      26.653  -6.627   3.233  0.00  0.00    -0.532 OA
ATOM     18  O   UNL d   1      25.443  -7.470   1.641  0.00  0.00    -0.532 OA
ENDBRANCH  12  16
ENDBRANCH   6   9
ENDBRANCH   1   5
BRANCH   3  19
ATOM     19  C   UNL d   1      28.855 -16.897  -0.207  0.00  0.00     0.128 C 
BRANCH  19  20
ATOM     20  C   UNL d   1      27.669 -17.830  -0.417  0.00  0.00     0.060 C 
BRANCH  20  21
ATOM     21  C   UNL d   1      26.438 -17.041  -0.768  0.00  0.00    -0.029 A 
ATOM     22  C   UNL d   1      26.409 -15.782  -1.337  0.00  0.00     0.096 A 
ATOM     23  N   UNL d   1      25.096 -15.416  -1.505  0.00  0.00    -0.365 N 
ATOM     24  C   UNL d   1      24.259 -16.386  -1.003  0.00  0.00     0.042 A 
ATOM     25  H   UNL d   1      24.786 -14.545  -1.911  0.00  0.00     0.165 HD
ATOM     26  C   UNL d   1      22.859 -16.436  -0.903  0.00  0.00     0.030 A 
ATOM     27  C   UNL d   1      25.064 -17.426  -0.546  0.00  0.00    -0.002 A 
ATOM     28  C   UNL d   1      22.273 -17.560  -0.302  0.00  0.00     0.002 A 
ATOM     29  C   UNL d   1      23.043 -18.612   0.154  0.00  0.00     0.001 A 
ATOM     30  C   UNL d   1      24.418 -18.552   0.019  0.00  0.00     0.014 A 
ENDBRANCH  20  21
ENDBRANCH  19  20
ENDBRANCH   3  19
TORSDOF 6
ENDMDL
MODEL 8
REMARK VINA RESULT:    -6.874      7.302      9.260
REMARK INTER + INTRA:         -10.594
REMARK INTER:                  -8.663
REMARK INTRA:                  -1.931
REMARK CONF_INDEPENDENT:        1.790
REMARK UNBOUND:                -1.931
REMARK  6 active torsions:
REMARK  status: ('A' for Active; 'I' for Inactive)
REMARK    1  A    between atoms: C_3  and  N_4 
REMARK       I    between atoms: N_4  and  C_5 
REMARK    2  A    between atoms: C_5  and  C_7 
REMARK       I    between atoms: C_7  and  N_9 
REMARK    3  A    between atoms: N_9  and  C_10 
REMARK    4  A    between atoms: C_10  and  C_11 
REMARK    5  A    between atoms: C_11  and  C_12 
REMARK    6  A    between atoms: C_24  and  N_25 
ROOT
ATOM      1  C   UNL d   1      28.383 -12.997   2.291  0.00  0.00     0.309 C 
ATOM      2  O   UNL d   1      29.464 -13.489   2.442  0.00  0.00    -0.262 OA
ATOM      3  N   UNL d   1      27.820 -11.872   2.918  0.00  0.00    -0.353 N 
ATOM      4  H   UNL d   1      26.837 -11.693   2.710  0.00  0.00     0.162 HD
ENDROOT
BRANCH   1   5
ATOM      5  C   UNL d   1      27.317 -13.588   1.382  0.00  0.00     0.313 C 
ATOM      6  N   UNL d   1      27.609 -14.670   0.526  0.00  0.00    -0.318 N 
ATOM      7  H   UNL d   1      28.520 -15.094   0.698  0.00  0.00     0.169 HD
ATOM      8  O   UNL d   1      26.272 -12.971   1.603  0.00  0.00    -0.262 OA
BRANCH   6   9
ATOM      9  C   UNL d   1      26.783 -15.313  -0.507  0.00  0.00     0.043 A 
ATOM     10  C   UNL d   1      26.694 -14.921  -1.882  0.00  0.00    -0.002 A 
ATOM     11  C   UNL d   1      27.507 -13.817  -2.426  0.00  0.00     0.053 C 
ATOM     12  C   UNL d   1      25.869 -15.594  -2.821  0.00  0.00     0.111 A 
ATOM     13  C   UNL d   1      25.135 -16.705  -2.420  0.00  0.00     0.037 A 
ATOM     14  C   UNL d   1      25.220 -17.135  -1.093  0.00  0.00     0.005 A 
ATOM     15  C   UNL d   1      26.028 -16.454  -0.149  0.00  0.00     0.030 A 
BRANCH  12  16
ATOM     16  N   UNL d   1      25.782 -15.155  -4.251  0.00  0.00    -0.115 N 
ATOM     17  O   UNL d   1      26.648 -15.575  -5.028  0.00  0.00    -0.532 OA
ATOM     18  O   UNL d   1      24.866 -14.405  -4.616  0.00  0.00    -0.532 OA
ENDBRANCH  12  16
ENDBRANCH   6   9
ENDBRANCH   1   5
BRANCH   3  19
ATOM     19  C   UNL d   1      28.446 -11.224   3.998  0.00  0.00     0.128 C 
BRANCH  19  20
ATOM     20  C   UNL d   1      27.788 -11.303   5.370  0.00  0.00     0.060 C 
BRANCH  20  21
ATOM     21  C   UNL d   1      28.243 -12.538   6.099  0.00  0.00    -0.029 A 
ATOM     22  C   UNL d   1      28.421 -13.793   5.547  0.00  0.00     0.096 A 
ATOM     23  N   UNL d   1      28.851 -14.640   6.537  0.00  0.00    -0.365 N 
ATOM     24  C   UNL d   1      28.904 -13.982   7.745  0.00  0.00     0.042 A 
ATOM     25  H   UNL d   1      29.069 -15.619   6.407  0.00  0.00     0.165 HD
ATOM     26  C   UNL d   1      29.231 -14.438   9.032  0.00  0.00     0.030 A 
ATOM     27  C   UNL d   1      28.545 -12.658   7.505  0.00  0.00    -0.002 A 
ATOM     28  C   UNL d   1      29.165 -13.529  10.099  0.00  0.00     0.002 A 
ATOM     29  C   UNL d   1      28.819 -12.208   9.894  0.00  0.00     0.001 A 
ATOM     30  C   UNL d   1      28.529 -11.776   8.612  0.00  0.00     0.014 A 
ENDBRANCH  20  21
ENDBRANCH  19  20
ENDBRANCH   3  19
TORSDOF 6
ENDMDL
MODEL 9
REMARK VINA RESULT:    -6.420      5.637      8.072
REMARK INTER + INTRA:         -10.479
REMARK INTER:                  -8.210
REMARK INTRA:                  -2.269
REMARK CONF_INDEPENDENT:        1.790
REMARK UNBOUND:                -2.269
REMARK  6 active torsions:
REMARK  status: ('A' for Active; 'I' for Inactive)
REMARK    1  A    between atoms: C_3  and  N_4 
REMARK       I    between atoms: N_4  and  C_5 
REMARK    2  A    between atoms: C_5  and  C_7 
REMARK       I    between atoms: C_7  and  N_9 
REMARK    3  A    between atoms: N_9  and  C_10 
REMARK    4  A    between atoms: C_10  and  C_11 
REMARK    5  A    between atoms: C_11  and  C_12 
REMARK    6  A    between atoms: C_24  and  N_25 
ROOT
ATOM      1  C   UNL d   1      29.586 -14.434   0.109  0.00  0.00     0.309 C 
ATOM      2  O   UNL d   1      29.958 -13.961  -0.926  0.00  0.00    -0.262 OA
ATOM      3  N   UNL d   1      29.754 -15.738   0.604  0.00  0.00    -0.353 N 
ATOM      4  H   UNL d   1      29.261 -15.951   1.471  0.00  0.00     0.162 HD
ENDROOT
BRANCH   1   5
ATOM      5  C   UNL d   1      28.739 -13.674   1.116  0.00  0.00     0.313 C 
ATOM      6  N   UNL d   1      28.803 -12.268   1.209  0.00  0.00    -0.318 N 
ATOM      7  H   UNL d   1      29.331 -11.832   0.453  0.00  0.00     0.169 HD
ATOM      8  O   UNL d   1      28.052 -14.508   1.711  0.00  0.00    -0.262 OA
BRANCH   6   9
ATOM      9  C   UNL d   1      28.176 -11.350   2.171  0.00  0.00     0.043 A 
ATOM     10  C   UNL d   1      27.434 -10.168   1.851  0.00  0.00    -0.002 A 
ATOM     11  C   UNL d   1      27.170  -9.775   0.453  0.00  0.00     0.053 C 
ATOM     12  C   UNL d   1      26.858  -9.330   2.841  0.00  0.00     0.111 A 
ATOM     13  C   UNL d   1      26.977  -9.670   4.184  0.00  0.00     0.037 A 
ATOM     14  C   UNL d   1      27.668 -10.834   4.534  0.00  0.00     0.005 A 
ATOM     15  C   UNL d   1      28.260 -11.662   3.548  0.00  0.00     0.030 A 
BRANCH  12  16
ATOM     16  N   UNL d   1      26.098  -8.090   2.480  0.00  0.00    -0.115 N 
ATOM     17  O   UNL d   1      26.457  -7.031   3.009  0.00  0.00    -0.532 OA
ATOM     18  O   UNL d   1      25.155  -8.148   1.679  0.00  0.00    -0.532 OA
ENDBRANCH  12  16
ENDBRANCH   6   9
ENDBRANCH   1   5
BRANCH   3  19
ATOM     19  C   UNL d   1      30.287 -16.777  -0.182  0.00  0.00     0.128 C 
BRANCH  19  20
ATOM     20  C   UNL d   1      29.379 -17.451  -1.203  0.00  0.00     0.060 C 
BRANCH  20  21
ATOM     21  C   UNL d   1      27.948 -17.408  -0.741  0.00  0.00    -0.029 A 
ATOM     22  C   UNL d   1      27.405 -18.131   0.304  0.00  0.00     0.096 A 
ATOM     23  N   UNL d   1      26.077 -17.802   0.409  0.00  0.00    -0.365 N 
ATOM     24  C   UNL d   1      25.719 -16.919  -0.585  0.00  0.00     0.042 A 
ATOM     25  H   UNL d   1      25.441 -18.177   1.099  0.00  0.00     0.165 HD
ATOM     26  C   UNL d   1      24.478 -16.348  -0.911  0.00  0.00     0.030 A 
ATOM     27  C   UNL d   1      26.870 -16.638  -1.315  0.00  0.00    -0.002 A 
ATOM     28  C   UNL d   1      24.409 -15.492  -2.020  0.00  0.00     0.002 A 
ATOM     29  C   UNL d   1      25.533 -15.187  -2.761  0.00  0.00     0.001 A 
ATOM     30  C   UNL d   1      26.749 -15.740  -2.403  0.00  0.00     0.014 A 
ENDBRANCH  20  21
ENDBRANCH  19  20
ENDBRANCH   3  19
TORSDOF 6
ENDMDL
