MODEL 1
REMARK VINA RESULT:    -8.712      0.000      0.000
REMARK INTER + INTRA:         -10.565
REMARK INTER:                  -9.906
REMARK INTRA:                  -0.660
REMARK CONF_INDEPENDENT:        1.193
REMARK UNBOUND:                -0.660
REMARK  4 active torsions:
REMARK  status: ('A' for Active; 'I' for Inactive)
REMARK    1  A    between atoms: C_3  and  C_14 
REMARK    2  A    between atoms: C_4  and  C_5 
REMARK       I    between atoms: C_14  and  N_16 
REMARK    3  A    between atoms: N_16  and  C_17 
REMARK    4  A    between atoms: C_21  and  O_22 
ROOT
ATOM      1  N   UNL d   1      25.582 -18.812   0.168  0.00  0.00    -0.096 N 
ATOM      2  C   UNL d   1      24.593 -18.168  -0.274  0.00  0.00     0.025 C 
ATOM      3  C   UNL d   1      23.400 -17.390  -0.806  0.00  0.00     0.099 C 
ATOM      4  C   UNL d   1      23.635 -16.272  -1.524  0.00  0.00     0.038 C 
ENDROOT
BRANCH   3   5
ATOM      5  C   UNL d   1      22.012 -17.907  -0.492  0.00  0.00     0.265 C 
ATOM      6  O   UNL d   1      21.044 -17.307  -0.971  0.00  0.00    -0.267 OA
ATOM      7  N   UNL d   1      21.880 -18.990   0.379  0.00  0.00    -0.322 N 
ATOM      8  H   UNL d   1      22.671 -19.310   0.922  0.00  0.00     0.169 HD
BRANCH   7   9
ATOM      9  C   UNL d   1      20.628 -19.562   0.749  0.00  0.00     0.037 A 
ATOM     10  C   UNL d   1      20.290 -19.778   2.087  0.00  0.00     0.029 A 
ATOM     11  C   UNL d   1      19.052 -20.333   2.438  0.00  0.00     0.005 A 
ATOM     12  C   UNL d   1      18.139 -20.698   1.451  0.00  0.00     0.036 A 
ATOM     13  C   UNL d   1      18.465 -20.474   0.118  0.00  0.00     0.067 A 
ATOM     14  C   UNL d   1      19.689 -19.890  -0.239  0.00  0.00     0.066 A 
BRANCH  13  15
ATOM     15  O   UNL d   1      17.607 -20.822  -0.888  0.00  0.00    -0.361 OA
ATOM     16  H   UNL d   1      18.043 -20.674  -1.745  0.00  0.00     0.217 HD
ENDBRANCH  13  15
ENDBRANCH   7   9
ENDBRANCH   3   5
BRANCH   4  17
ATOM     17  C   UNL d   1      24.993 -15.762  -1.793  0.00  0.00    -0.034 A 
ATOM     18  C   UNL d   1      25.811 -15.258  -0.771  0.00  0.00     0.014 A 
ATOM     19  C   UNL d   1      27.042 -14.656  -1.040  0.00  0.00     0.031 A 
ATOM     20  C   UNL d   1      27.478 -14.675  -2.364  0.00  0.00     0.042 A 
ATOM     21  N   UNL d   1      28.648 -14.213  -2.918  0.00  0.00    -0.365 N 
ATOM     22  C   UNL d   1      26.724 -15.227  -3.399  0.00  0.00    -0.007 A 
ATOM     23  C   UNL d   1      28.685 -14.513  -4.254  0.00  0.00     0.089 A 
ATOM     24  H   UNL d   1      29.387 -13.757  -2.400  0.00  0.00     0.165 HD
ATOM     25  C   UNL d   1      27.491 -15.108  -4.586  0.00  0.00     0.030 A 
ATOM     26  C   UNL d   1      25.454 -15.762  -3.114  0.00  0.00     0.025 A 
ENDBRANCH   4  17
TORSDOF 4
ENDMDL
MODEL 2
REMARK VINA RESULT:    -7.908      2.330      2.916
REMARK INTER + INTRA:          -9.752
REMARK INTER:                  -9.101
REMARK INTRA:                  -0.651
REMARK CONF_INDEPENDENT:        1.193
REMARK UNBOUND:                -0.651
REMARK  4 active torsions:
REMARK  status: ('A' for Active; 'I' for Inactive)
REMARK    1  A    between atoms: C_3  and  C_14 
REMARK    2  A    between atoms: C_4  and  C_5 
REMARK       I    between atoms: C_14  and  N_16 
REMARK    3  A    between atoms: N_16  and  C_17 
REMARK    4  A    between atoms: C_21  and  O_22 
ROOT
ATOM      1  N   UNL d   1      24.622 -15.217  -2.619  0.00  0.00    -0.096 N 
ATOM      2  C   UNL d   1      24.336 -16.035  -1.703  0.00  0.00     0.025 C 
ATOM      3  C   UNL d   1      23.991 -17.022  -0.599  0.00  0.00     0.099 C 
ATOM      4  C   UNL d   1      24.977 -17.423   0.230  0.00  0.00     0.038 C 
ENDROOT
BRANCH   3   5
ATOM      5  C   UNL d   1      22.561 -17.510  -0.497  0.00  0.00     0.265 C 
ATOM      6  O   UNL d   1      21.660 -16.765  -0.895  0.00  0.00    -0.267 OA
ATOM      7  N   UNL d   1      22.316 -18.746   0.104  0.00  0.00    -0.322 N 
ATOM      8  H   UNL d   1      23.047 -19.222   0.614  0.00  0.00     0.169 HD
BRANCH   7   9
ATOM      9  C   UNL d   1      21.015 -19.309   0.257  0.00  0.00     0.037 A 
ATOM     10  C   UNL d   1      20.174 -19.513  -0.840  0.00  0.00     0.029 A 
ATOM     11  C   UNL d   1      18.900 -20.075  -0.677  0.00  0.00     0.005 A 
ATOM     12  C   UNL d   1      18.441 -20.424   0.591  0.00  0.00     0.036 A 
ATOM     13  C   UNL d   1      19.279 -20.234   1.685  0.00  0.00     0.067 A 
ATOM     14  C   UNL d   1      20.566 -19.702   1.526  0.00  0.00     0.066 A 
BRANCH  13  15
ATOM     15  O   UNL d   1      18.872 -20.553   2.951  0.00  0.00    -0.361 OA
ATOM     16  H   UNL d   1      19.633 -20.892   3.454  0.00  0.00     0.217 HD
ENDBRANCH  13  15
ENDBRANCH   7   9
ENDBRANCH   3   5
BRANCH   4  17
ATOM     17  C   UNL d   1      26.373 -16.965   0.098  0.00  0.00    -0.034 A 
ATOM     18  C   UNL d   1      26.745 -15.638   0.362  0.00  0.00     0.014 A 
ATOM     19  C   UNL d   1      28.037 -15.170   0.113  0.00  0.00     0.031 A 
ATOM     20  C   UNL d   1      28.977 -16.108  -0.309  0.00  0.00     0.042 A 
ATOM     21  N   UNL d   1      30.317 -15.959  -0.582  0.00  0.00    -0.365 N 
ATOM     22  C   UNL d   1      28.663 -17.450  -0.519  0.00  0.00    -0.007 A 
ATOM     23  C   UNL d   1      30.870 -17.173  -0.892  0.00  0.00     0.089 A 
ATOM     24  H   UNL d   1      30.821 -15.085  -0.517  0.00  0.00     0.165 HD
ATOM     25  C   UNL d   1      29.862 -18.107  -0.897  0.00  0.00     0.030 A 
ATOM     26  C   UNL d   1      27.337 -17.883  -0.332  0.00  0.00     0.025 A 
ENDBRANCH   4  17
TORSDOF 4
ENDMDL
MODEL 3
REMARK VINA RESULT:    -7.358      1.906      2.277
REMARK INTER + INTRA:          -9.090
REMARK INTER:                  -8.552
REMARK INTRA:                  -0.538
REMARK CONF_INDEPENDENT:        1.193
REMARK UNBOUND:                -0.538
REMARK  4 active torsions:
REMARK  status: ('A' for Active; 'I' for Inactive)
REMARK    1  A    between atoms: C_3  and  C_14 
REMARK    2  A    between atoms: C_4  and  C_5 
REMARK       I    between atoms: C_14  and  N_16 
REMARK    3  A    between atoms: N_16  and  C_17 
REMARK    4  A    between atoms: C_21  and  O_22 
ROOT
ATOM      1  N   UNL d   1      26.580 -16.994   0.688  0.00  0.00    -0.096 N 
ATOM      2  C   UNL d   1      25.614 -17.187  -0.099  0.00  0.00     0.025 C 
ATOM      3  C   UNL d   1      24.449 -17.419  -1.048  0.00  0.00     0.099 C 
ATOM      4  C   UNL d   1      24.407 -16.707  -2.193  0.00  0.00     0.038 C 
ENDROOT
BRANCH   3   5
ATOM      5  C   UNL d   1      23.393 -18.428  -0.649  0.00  0.00     0.265 C 
ATOM      6  O   UNL d   1      23.701 -19.624  -0.643  0.00  0.00    -0.267 OA
ATOM      7  N   UNL d   1      22.101 -17.974  -0.376  0.00  0.00    -0.322 N 
ATOM      8  H   UNL d   1      21.831 -17.027  -0.606  0.00  0.00     0.169 HD
BRANCH   7   9
ATOM      9  C   UNL d   1      21.026 -18.828   0.007  0.00  0.00     0.037 A 
ATOM     10  C   UNL d   1      20.042 -19.217  -0.905  0.00  0.00     0.029 A 
ATOM     11  C   UNL d   1      18.994 -20.064  -0.517  0.00  0.00     0.005 A 
ATOM     12  C   UNL d   1      18.906 -20.520   0.797  0.00  0.00     0.036 A 
ATOM     13  C   UNL d   1      19.890 -20.145   1.705  0.00  0.00     0.067 A 
ATOM     14  C   UNL d   1      20.958 -19.324   1.317  0.00  0.00     0.066 A 
BRANCH  13  15
ATOM     15  O   UNL d   1      19.844 -20.560   3.007  0.00  0.00    -0.361 OA
ATOM     16  H   UNL d   1      20.751 -20.699   3.330  0.00  0.00     0.217 HD
ENDBRANCH  13  15
ENDBRANCH   7   9
ENDBRANCH   3   5
BRANCH   4  17
ATOM     17  C   UNL d   1      25.425 -15.703  -2.552  0.00  0.00    -0.034 A 
ATOM     18  C   UNL d   1      26.794 -16.011  -2.575  0.00  0.00     0.014 A 
ATOM     19  C   UNL d   1      27.768 -15.033  -2.786  0.00  0.00     0.031 A 
ATOM     20  C   UNL d   1      27.318 -13.748  -3.084  0.00  0.00     0.042 A 
ATOM     21  N   UNL d   1      28.026 -12.608  -3.383  0.00  0.00    -0.365 N 
ATOM     22  C   UNL d   1      25.965 -13.416  -3.137  0.00  0.00    -0.007 A 
ATOM     23  C   UNL d   1      27.165 -11.587  -3.687  0.00  0.00     0.089 A 
ATOM     24  H   UNL d   1      29.035 -12.552  -3.414  0.00  0.00     0.165 HD
ATOM     25  C   UNL d   1      25.882 -12.049  -3.507  0.00  0.00     0.030 A 
ATOM     26  C   UNL d   1      25.003 -14.402  -2.848  0.00  0.00     0.025 A 
ENDBRANCH   4  17
TORSDOF 4
ENDMDL
MODEL 4
REMARK VINA RESULT:    -7.224      4.483      9.474
REMARK INTER + INTRA:          -9.138
REMARK INTER:                  -8.417
REMARK INTRA:                  -0.721
REMARK CONF_INDEPENDENT:        1.193
REMARK UNBOUND:                -0.721
REMARK  4 active torsions:
REMARK  status: ('A' for Active; 'I' for Inactive)
REMARK    1  A    between atoms: C_3  and  C_14 
REMARK    2  A    between atoms: C_4  and  C_5 
REMARK       I    between atoms: C_14  and  N_16 
REMARK    3  A    between atoms: N_16  and  C_17 
REMARK    4  A    between atoms: C_21  and  O_22 
ROOT
ATOM      1  N   UNL d   1      25.530 -16.059  -4.892  0.00  0.00    -0.096 N 
ATOM      2  C   UNL d   1      25.721 -15.168  -4.020  0.00  0.00     0.025 C 
ATOM      3  C   UNL d   1      25.951 -14.094  -2.970  0.00  0.00     0.099 C 
ATOM      4  C   UNL d   1      25.698 -14.397  -1.679  0.00  0.00     0.038 C 
ENDROOT
BRANCH   3   5
ATOM      5  C   UNL d   1      26.441 -12.737  -3.430  0.00  0.00     0.265 C 
ATOM      6  O   UNL d   1      27.553 -12.357  -3.050  0.00  0.00    -0.267 OA
ATOM      7  N   UNL d   1      25.590 -11.943  -4.203  0.00  0.00    -0.322 N 
ATOM      8  H   UNL d   1      24.615 -12.188  -4.306  0.00  0.00     0.169 HD
BRANCH   7   9
ATOM      9  C   UNL d   1      25.940 -10.651  -4.693  0.00  0.00     0.037 A 
ATOM     10  C   UNL d   1      26.807 -10.490  -5.776  0.00  0.00     0.029 A 
ATOM     11  C   UNL d   1      27.136  -9.214  -6.252  0.00  0.00     0.005 A 
ATOM     12  C   UNL d   1      26.614  -8.077  -5.639  0.00  0.00     0.036 A 
ATOM     13  C   UNL d   1      25.740  -8.232  -4.569  0.00  0.00     0.067 A 
ATOM     14  C   UNL d   1      25.383  -9.505  -4.106  0.00  0.00     0.066 A 
BRANCH  13  15
ATOM     15  O   UNL d   1      25.208  -7.147  -3.928  0.00  0.00    -0.361 OA
ATOM     16  H   UNL d   1      24.405  -7.420  -3.452  0.00  0.00     0.217 HD
ENDBRANCH  13  15
ENDBRANCH   7   9
ENDBRANCH   3   5
BRANCH   4  17
ATOM     17  C   UNL d   1      25.189 -15.713  -1.250  0.00  0.00    -0.034 A 
ATOM     18  C   UNL d   1      26.047 -16.729  -0.802  0.00  0.00     0.014 A 
ATOM     19  C   UNL d   1      25.584 -18.015  -0.519  0.00  0.00     0.031 A 
ATOM     20  C   UNL d   1      24.207 -18.221  -0.595  0.00  0.00     0.042 A 
ATOM     21  N   UNL d   1      23.464 -19.347  -0.331  0.00  0.00    -0.365 N 
ATOM     22  C   UNL d   1      23.314 -17.219  -0.971  0.00  0.00    -0.007 A 
ATOM     23  C   UNL d   1      22.129 -19.069  -0.463  0.00  0.00     0.089 A 
ATOM     24  H   UNL d   1      23.851 -20.234  -0.039  0.00  0.00     0.165 HD
ATOM     25  C   UNL d   1      22.009 -17.769  -0.895  0.00  0.00     0.030 A 
ATOM     26  C   UNL d   1      23.812 -15.950  -1.323  0.00  0.00     0.025 A 
ENDBRANCH   4  17
TORSDOF 4
ENDMDL
MODEL 5
REMARK VINA RESULT:    -6.824      3.109      8.894
REMARK INTER + INTRA:          -8.665
REMARK INTER:                  -8.017
REMARK INTRA:                  -0.648
REMARK CONF_INDEPENDENT:        1.193
REMARK UNBOUND:                -0.648
REMARK  4 active torsions:
REMARK  status: ('A' for Active; 'I' for Inactive)
REMARK    1  A    between atoms: C_3  and  C_14 
REMARK    2  A    between atoms: C_4  and  C_5 
REMARK       I    between atoms: C_14  and  N_16 
REMARK    3  A    between atoms: N_16  and  C_17 
REMARK    4  A    between atoms: C_21  and  O_22 
ROOT
ATOM      1  N   UNL d   1      22.157 -15.211  -1.525  0.00  0.00    -0.096 N 
ATOM      2  C   UNL d   1      23.085 -15.959  -1.112  0.00  0.00     0.025 C 
ATOM      3  C   UNL d   1      24.202 -16.861  -0.615  0.00  0.00     0.099 C 
ATOM      4  C   UNL d   1      23.895 -18.130  -0.274  0.00  0.00     0.038 C 
ENDROOT
BRANCH   3   5
ATOM      5  C   UNL d   1      25.598 -16.282  -0.516  0.00  0.00     0.265 C 
ATOM      6  O   UNL d   1      25.731 -15.162  -0.012  0.00  0.00    -0.267 OA
ATOM      7  N   UNL d   1      26.663 -17.003  -1.060  0.00  0.00    -0.322 N 
ATOM      8  H   UNL d   1      26.491 -17.801  -1.656  0.00  0.00     0.169 HD
BRANCH   7   9
ATOM      9  C   UNL d   1      28.018 -16.560  -1.028  0.00  0.00     0.037 A 
ATOM     10  C   UNL d   1      28.844 -16.656  -2.150  0.00  0.00     0.029 A 
ATOM     11  C   UNL d   1      30.172 -16.209  -2.108  0.00  0.00     0.005 A 
ATOM     12  C   UNL d   1      30.699 -15.676  -0.934  0.00  0.00     0.036 A 
ATOM     13  C   UNL d   1      29.876 -15.566   0.182  0.00  0.00     0.067 A 
ATOM     14  C   UNL d   1      28.539 -15.982   0.139  0.00  0.00     0.066 A 
BRANCH  13  15
ATOM     15  O   UNL d   1      30.348 -15.057   1.361  0.00  0.00    -0.361 OA
ATOM     16  H   UNL d   1      30.046 -15.620   2.095  0.00  0.00     0.217 HD
ENDBRANCH  13  15
ENDBRANCH   7   9
ENDBRANCH   3   5
BRANCH   4  17
ATOM     17  C   UNL d   1      22.525 -18.670  -0.344  0.00  0.00    -0.034 A 
ATOM     18  C   UNL d   1      21.896 -18.943  -1.569  0.00  0.00     0.014 A 
ATOM     19  C   UNL d   1      20.557 -19.329  -1.641  0.00  0.00     0.031 A 
ATOM     20  C   UNL d   1      19.894 -19.541  -0.433  0.00  0.00     0.042 A 
ATOM     21  N   UNL d   1      18.609 -19.966  -0.189  0.00  0.00    -0.365 N 
ATOM     22  C   UNL d   1      20.504 -19.346   0.806  0.00  0.00    -0.007 A 
ATOM     23  C   UNL d   1      18.410 -20.108   1.158  0.00  0.00     0.089 A 
ATOM     24  H   UNL d   1      17.931 -20.181  -0.908  0.00  0.00     0.165 HD
ATOM     25  C   UNL d   1      19.555 -19.696   1.800  0.00  0.00     0.030 A 
ATOM     26  C   UNL d   1      21.833 -18.886   0.854  0.00  0.00     0.025 A 
ENDBRANCH   4  17
TORSDOF 4
ENDMDL
MODEL 6
REMARK VINA RESULT:    -6.633      4.452      9.968
REMARK INTER + INTRA:          -8.287
REMARK INTER:                  -7.826
REMARK INTRA:                  -0.461
REMARK CONF_INDEPENDENT:        1.193
REMARK UNBOUND:                -0.461
REMARK  4 active torsions:
REMARK  status: ('A' for Active; 'I' for Inactive)
REMARK    1  A    between atoms: C_3  and  C_14 
REMARK    2  A    between atoms: C_4  and  C_5 
REMARK       I    between atoms: C_14  and  N_16 
REMARK    3  A    between atoms: N_16  and  C_17 
REMARK    4  A    between atoms: C_21  and  O_22 
ROOT
ATOM      1  N   UNL d   1      23.903 -13.894  -3.520  0.00  0.00    -0.096 N 
ATOM      2  C   UNL d   1      25.058 -14.298  -3.827  0.00  0.00     0.025 C 
ATOM      3  C   UNL d   1      26.450 -14.784  -4.196  0.00  0.00     0.099 C 
ATOM      4  C   UNL d   1      27.018 -15.737  -3.428  0.00  0.00     0.038 C 
ENDROOT
BRANCH   3   5
ATOM      5  C   UNL d   1      27.129 -14.163  -5.399  0.00  0.00     0.265 C 
ATOM      6  O   UNL d   1      27.799 -14.895  -6.133  0.00  0.00    -0.267 OA
ATOM      7  N   UNL d   1      27.028 -12.783  -5.588  0.00  0.00    -0.322 N 
ATOM      8  H   UNL d   1      26.665 -12.191  -4.854  0.00  0.00     0.169 HD
BRANCH   7   9
ATOM      9  C   UNL d   1      27.624 -12.087  -6.680  0.00  0.00     0.037 A 
ATOM     10  C   UNL d   1      27.130 -10.857  -7.119  0.00  0.00     0.029 A 
ATOM     11  C   UNL d   1      27.730 -10.179  -8.189  0.00  0.00     0.005 A 
ATOM     12  C   UNL d   1      28.825 -10.733  -8.848  0.00  0.00     0.036 A 
ATOM     13  C   UNL d   1      29.329 -11.952  -8.407  0.00  0.00     0.067 A 
ATOM     14  C   UNL d   1      28.753 -12.620  -7.318  0.00  0.00     0.066 A 
BRANCH  13  15
ATOM     15  O   UNL d   1      30.396 -12.541  -9.026  0.00  0.00    -0.361 OA
ATOM     16  H   UNL d   1      30.086 -13.311  -9.532  0.00  0.00     0.217 HD
ENDBRANCH  13  15
ENDBRANCH   7   9
ENDBRANCH   3   5
BRANCH   4  17
ATOM     17  C   UNL d   1      26.359 -16.309  -2.240  0.00  0.00    -0.034 A 
ATOM     18  C   UNL d   1      26.969 -16.297  -0.976  0.00  0.00     0.014 A 
ATOM     19  C   UNL d   1      26.406 -16.951   0.122  0.00  0.00     0.031 A 
ATOM     20  C   UNL d   1      25.150 -17.528  -0.063  0.00  0.00     0.042 A 
ATOM     21  N   UNL d   1      24.337 -18.186   0.830  0.00  0.00    -0.365 N 
ATOM     22  C   UNL d   1      24.481 -17.502  -1.286  0.00  0.00    -0.007 A 
ATOM     23  C   UNL d   1      23.152 -18.517   0.229  0.00  0.00     0.089 A 
ATOM     24  H   UNL d   1      24.571 -18.357   1.799  0.00  0.00     0.165 HD
ATOM     25  C   UNL d   1      23.228 -18.139  -1.091  0.00  0.00     0.030 A 
ATOM     26  C   UNL d   1      25.100 -16.901  -2.397  0.00  0.00     0.025 A 
ENDBRANCH   4  17
TORSDOF 4
ENDMDL
MODEL 7
REMARK VINA RESULT:    -6.584      4.860      9.694
REMARK INTER + INTRA:          -8.503
REMARK INTER:                  -7.777
REMARK INTRA:                  -0.726
REMARK CONF_INDEPENDENT:        1.193
REMARK UNBOUND:                -0.726
REMARK  4 active torsions:
REMARK  status: ('A' for Active; 'I' for Inactive)
REMARK    1  A    between atoms: C_3  and  C_14 
REMARK    2  A    between atoms: C_4  and  C_5 
REMARK       I    between atoms: C_14  and  N_16 
REMARK    3  A    between atoms: N_16  and  C_17 
REMARK    4  A    between atoms: C_21  and  O_22 
ROOT
ATOM      1  N   UNL d   1      25.615 -15.950  -5.292  0.00  0.00    -0.096 N 
ATOM      2  C   UNL d   1      25.817 -14.968  -4.528  0.00  0.00     0.025 C 
ATOM      3  C   UNL d   1      26.060 -13.784  -3.607  0.00  0.00     0.099 C 
ATOM      4  C   UNL d   1      25.921 -13.969  -2.277  0.00  0.00     0.038 C 
ENDROOT
BRANCH   3   5
ATOM      5  C   UNL d   1      26.433 -12.456  -4.232  0.00  0.00     0.265 C 
ATOM      6  O   UNL d   1      27.480 -11.912  -3.866  0.00  0.00    -0.267 OA
ATOM      7  N   UNL d   1      25.549 -11.870  -5.140  0.00  0.00    -0.322 N 
ATOM      8  H   UNL d   1      24.610 -12.229  -5.245  0.00  0.00     0.169 HD
BRANCH   7   9
ATOM      9  C   UNL d   1      25.791 -10.625  -5.791  0.00  0.00     0.037 A 
ATOM     10  C   UNL d   1      25.539  -9.407  -5.154  0.00  0.00     0.029 A 
ATOM     11  C   UNL d   1      25.789  -8.190  -5.803  0.00  0.00     0.005 A 
ATOM     12  C   UNL d   1      26.280  -8.174  -7.107  0.00  0.00     0.036 A 
ATOM     13  C   UNL d   1      26.544  -9.383  -7.740  0.00  0.00     0.067 A 
ATOM     14  C   UNL d   1      26.326 -10.604  -7.087  0.00  0.00     0.066 A 
BRANCH  13  15
ATOM     15  O   UNL d   1      27.018  -9.421  -9.022  0.00  0.00    -0.361 OA
ATOM     16  H   UNL d   1      26.271  -9.526  -9.635  0.00  0.00     0.217 HD
ENDBRANCH  13  15
ENDBRANCH   7   9
ENDBRANCH   3   5
BRANCH   4  17
ATOM     17  C   UNL d   1      25.524 -15.260  -1.685  0.00  0.00    -0.034 A 
ATOM     18  C   UNL d   1      26.470 -16.178  -1.206  0.00  0.00     0.014 A 
ATOM     19  C   UNL d   1      26.107 -17.452  -0.766  0.00  0.00     0.031 A 
ATOM     20  C   UNL d   1      24.743 -17.737  -0.717  0.00  0.00     0.042 A 
ATOM     21  N   UNL d   1      24.089 -18.869  -0.290  0.00  0.00    -0.365 N 
ATOM     22  C   UNL d   1      23.767 -16.827  -1.121  0.00  0.00    -0.007 A 
ATOM     23  C   UNL d   1      22.734 -18.678  -0.348  0.00  0.00     0.089 A 
ATOM     24  H   UNL d   1      24.549 -19.700   0.057  0.00  0.00     0.165 HD
ATOM     25  C   UNL d   1      22.506 -17.436  -0.894  0.00  0.00     0.030 A 
ATOM     26  C   UNL d   1      24.162 -15.576  -1.631  0.00  0.00     0.025 A 
ENDBRANCH   4  17
TORSDOF 4
ENDMDL
MODEL 8
REMARK VINA RESULT:    -6.482      5.994      8.939
REMARK INTER + INTRA:          -8.269
REMARK INTER:                  -7.675
REMARK INTRA:                  -0.594
REMARK CONF_INDEPENDENT:        1.193
REMARK UNBOUND:                -0.594
REMARK  4 active torsions:
REMARK  status: ('A' for Active; 'I' for Inactive)
REMARK    1  A    between atoms: C_3  and  C_14 
REMARK    2  A    between atoms: C_4  and  C_5 
REMARK       I    between atoms: C_14  and  N_16 
REMARK    3  A    between atoms: N_16  and  C_17 
REMARK    4  A    between atoms: C_21  and  O_22 
ROOT
ATOM      1  N   UNL d   1      30.503 -14.822   1.700  0.00  0.00    -0.096 N 
ATOM      2  C   UNL d   1      29.321 -14.405   1.561  0.00  0.00     0.025 C 
ATOM      3  C   UNL d   1      27.896 -13.902   1.393  0.00  0.00     0.099 C 
ATOM      4  C   UNL d   1      27.189 -13.606   2.503  0.00  0.00     0.038 C 
ENDROOT
BRANCH   3   5
ATOM      5  C   UNL d   1      27.345 -13.772  -0.011  0.00  0.00     0.265 C 
ATOM      6  O   UNL d   1      26.677 -12.769  -0.285  0.00  0.00    -0.267 OA
ATOM      7  N   UNL d   1      27.551 -14.818  -0.912  0.00  0.00    -0.322 N 
ATOM      8  H   UNL d   1      27.903 -15.709  -0.591  0.00  0.00     0.169 HD
BRANCH   7   9
ATOM      9  C   UNL d   1      27.080 -14.810  -2.257  0.00  0.00     0.037 A 
ATOM     10  C   UNL d   1      27.895 -15.205  -3.320  0.00  0.00     0.029 A 
ATOM     11  C   UNL d   1      27.417 -15.200  -4.637  0.00  0.00     0.005 A 
ATOM     12  C   UNL d   1      26.117 -14.781  -4.913  0.00  0.00     0.036 A 
ATOM     13  C   UNL d   1      25.296 -14.398  -3.857  0.00  0.00     0.067 A 
ATOM     14  C   UNL d   1      25.758 -14.430  -2.534  0.00  0.00     0.066 A 
BRANCH  13  15
ATOM     15  O   UNL d   1      24.016 -13.971  -4.076  0.00  0.00    -0.361 OA
ATOM     16  H   UNL d   1      23.803 -14.072  -5.020  0.00  0.00     0.217 HD
ENDBRANCH  13  15
ENDBRANCH   7   9
ENDBRANCH   3   5
BRANCH   4  17
ATOM     17  C   UNL d   1      27.728 -13.769   3.866  0.00  0.00    -0.034 A 
ATOM     18  C   UNL d   1      28.154 -15.016   4.350  0.00  0.00     0.014 A 
ATOM     19  C   UNL d   1      28.541 -15.199   5.678  0.00  0.00     0.031 A 
ATOM     20  C   UNL d   1      28.594 -14.062   6.483  0.00  0.00     0.042 A 
ATOM     21  N   UNL d   1      28.979 -13.922   7.796  0.00  0.00    -0.365 N 
ATOM     22  C   UNL d   1      28.243 -12.794   6.021  0.00  0.00    -0.007 A 
ATOM     23  C   UNL d   1      28.946 -12.602   8.156  0.00  0.00     0.089 A 
ATOM     24  H   UNL d   1      29.283 -14.684   8.388  0.00  0.00     0.165 HD
ATOM     25  C   UNL d   1      28.459 -11.885   7.088  0.00  0.00     0.030 A 
ATOM     26  C   UNL d   1      27.785 -12.646   4.699  0.00  0.00     0.025 A 
ENDBRANCH   4  17
TORSDOF 4
ENDMDL
MODEL 9
REMARK VINA RESULT:    -6.475      1.836      2.540
REMARK INTER + INTRA:          -8.286
REMARK INTER:                  -7.668
REMARK INTRA:                  -0.618
REMARK CONF_INDEPENDENT:        1.193
REMARK UNBOUND:                -0.618
REMARK  4 active torsions:
REMARK  status: ('A' for Active; 'I' for Inactive)
REMARK    1  A    between atoms: C_3  and  C_14 
REMARK    2  A    between atoms: C_4  and  C_5 
REMARK       I    between atoms: C_14  and  N_16 
REMARK    3  A    between atoms: N_16  and  C_17 
REMARK    4  A    between atoms: C_21  and  O_22 
ROOT
ATOM      1  N   UNL d   1      26.918 -18.693   0.456  0.00  0.00    -0.096 N 
ATOM      2  C   UNL d   1      26.075 -17.920  -0.075  0.00  0.00     0.025 C 
ATOM      3  C   UNL d   1      25.058 -16.989  -0.714  0.00  0.00     0.099 C 
ATOM      4  C   UNL d   1      25.514 -15.949  -1.443  0.00  0.00     0.038 C 
ENDROOT
BRANCH   3   5
ATOM      5  C   UNL d   1      23.588 -17.271  -0.488  0.00  0.00     0.265 C 
ATOM      6  O   UNL d   1      22.781 -16.355  -0.678  0.00  0.00    -0.267 OA
ATOM      7  N   UNL d   1      23.212 -18.528  -0.010  0.00  0.00    -0.322 N 
ATOM      8  H   UNL d   1      23.908 -19.171   0.343  0.00  0.00     0.169 HD
BRANCH   7   9
ATOM      9  C   UNL d   1      21.862 -18.909   0.241  0.00  0.00     0.037 A 
ATOM     10  C   UNL d   1      21.343 -18.949   1.538  0.00  0.00     0.029 A 
ATOM     11  C   UNL d   1      20.011 -19.318   1.770  0.00  0.00     0.005 A 
ATOM     12  C   UNL d   1      19.181 -19.670   0.707  0.00  0.00     0.036 A 
ATOM     13  C   UNL d   1      19.689 -19.619  -0.586  0.00  0.00     0.067 A 
ATOM     14  C   UNL d   1      21.011 -19.221  -0.829  0.00  0.00     0.066 A 
BRANCH  13  15
ATOM     15  O   UNL d   1      18.918 -19.962  -1.662  0.00  0.00    -0.361 OA
ATOM     16  H   UNL d   1      18.033 -20.220  -1.351  0.00  0.00     0.217 HD
ENDBRANCH  13  15
ENDBRANCH   7   9
ENDBRANCH   3   5
BRANCH   4  17
ATOM     17  C   UNL d   1      26.950 -15.666  -1.626  0.00  0.00    -0.034 A 
ATOM     18  C   UNL d   1      27.542 -15.632  -2.898  0.00  0.00     0.014 A 
ATOM     19  C   UNL d   1      28.921 -15.495  -3.067  0.00  0.00     0.031 A 
ATOM     20  C   UNL d   1      29.680 -15.281  -1.917  0.00  0.00     0.042 A 
ATOM     21  N   UNL d   1      31.031 -15.066  -1.774  0.00  0.00    -0.365 N 
ATOM     22  C   UNL d   1      29.120 -15.242  -0.641  0.00  0.00    -0.007 A 
ATOM     23  C   UNL d   1      31.330 -14.826  -0.459  0.00  0.00     0.089 A 
ATOM     24  H   UNL d   1      31.692 -15.045  -2.538  0.00  0.00     0.165 HD
ATOM     25  C   UNL d   1      30.172 -14.966   0.270  0.00  0.00     0.030 A 
ATOM     26  C   UNL d   1      27.738 -15.456  -0.489  0.00  0.00     0.025 A 
ENDBRANCH   4  17
TORSDOF 4
ENDMDL
