MODEL 1
REMARK VINA RESULT:    -7.873      0.000      0.000
REMARK INTER + INTRA:         -10.543
REMARK INTER:                  -9.364
REMARK INTRA:                  -1.178
REMARK CONF_INDEPENDENT:        1.492
REMARK UNBOUND:                -1.178
REMARK  5 active torsions:
REMARK  status: ('A' for Active; 'I' for Inactive)
REMARK    1  A    between atoms: S_2  and  C_3 
REMARK    2  A    between atoms: C_7  and  N_8 
REMARK       I    between atoms: N_8  and  C_9 
REMARK    3  A    between atoms: C_11  and  C_9 
REMARK    4  A    between atoms: C_11  and  N_13 
REMARK    5  A    between atoms: N_13  and  C_14 
ROOT
ATOM      1  N   UNL d   1      24.626 -17.129  -1.713  0.00  0.00    -0.325 N 
ATOM      2  C   UNL d   1      24.138 -17.792  -0.567  0.00  0.00     0.244 C 
ATOM      3  O   UNL d   1      24.764 -18.028   0.451  0.00  0.00    -0.271 OA
ATOM      4  H   UNL d   1      23.903 -16.965  -2.413  0.00  0.00     0.169 HD
ENDROOT
BRANCH   2   5
ATOM      5  C   UNL d   1      22.651 -18.223  -0.640  0.00  0.00     0.170 C 
ATOM      6  C   UNL d   1      21.950 -16.890  -0.895  0.00  0.00     0.042 C 
BRANCH   5   7
ATOM      7  N   UNL d   1      22.143 -18.934   0.564  0.00  0.00    -0.377 N 
ATOM      8  H   UNL d   1      22.718 -18.828   1.397  0.00  0.00     0.160 HD
BRANCH   7   9
ATOM      9  C   UNL d   1      20.817 -19.345   0.782  0.00  0.00     0.034 C 
ATOM     10  C   UNL d   1      20.306 -19.418   2.084  0.00  0.00     0.029 C 
ATOM     11  C   UNL d   1      19.086 -20.075   2.362  0.00  0.00     0.002 C 
ATOM     12  C   UNL d   1      18.345 -20.682   1.356  0.00  0.00     0.001 C 
ATOM     13  C   UNL d   1      18.782 -20.555   0.071  0.00  0.00     0.009 C 
ATOM     14  C   UNL d   1      19.916 -19.786  -0.210  0.00  0.00    -0.036 C 
ATOM     15  C   UNL d   1      20.135 -19.700  -1.658  0.00  0.00     0.050 C 
ENDBRANCH   7   9
ENDBRANCH   5   7
ENDBRANCH   2   5
BRANCH   1  16
ATOM     16  C   UNL d   1      25.660 -16.114  -1.645  0.00  0.00     0.036 C 
ATOM     17  C   UNL d   1      26.175 -15.578  -2.839  0.00  0.00     0.029 C 
ATOM     18  C   UNL d   1      27.061 -14.486  -2.803  0.00  0.00     0.004 C 
ATOM     19  C   UNL d   1      27.435 -13.911  -1.583  0.00  0.00     0.018 C 
ATOM     20  C   UNL d   1      26.799 -14.302  -0.413  0.00  0.00     0.002 C 
ATOM     21  C   UNL d   1      25.936 -15.407  -0.459  0.00  0.00     0.048 C 
BRANCH  20  22
ATOM     22  S   UNL d   1      27.061 -13.518   1.174  0.00  0.00    -0.134 SA
ATOM     23  C   UNL d   1      27.946 -14.785   2.135  0.00  0.00     0.095 C 
ENDBRANCH  20  22
ENDBRANCH   1  16
TORSDOF 5
ENDMDL
MODEL 2
REMARK VINA RESULT:    -7.674      4.181      8.961
REMARK INTER + INTRA:         -10.328
REMARK INTER:                  -9.165
REMARK INTRA:                  -1.163
REMARK CONF_INDEPENDENT:        1.492
REMARK UNBOUND:                -1.163
REMARK  5 active torsions:
REMARK  status: ('A' for Active; 'I' for Inactive)
REMARK    1  A    between atoms: S_2  and  C_3 
REMARK    2  A    between atoms: C_7  and  N_8 
REMARK       I    between atoms: N_8  and  C_9 
REMARK    3  A    between atoms: C_11  and  C_9 
REMARK    4  A    between atoms: C_11  and  N_13 
REMARK    5  A    between atoms: N_13  and  C_14 
ROOT
ATOM      1  N   UNL d   1      26.569 -15.345  -2.611  0.00  0.00    -0.325 N 
ATOM      2  C   UNL d   1      25.829 -14.527  -3.491  0.00  0.00     0.244 C 
ATOM      3  O   UNL d   1      24.789 -14.825  -4.051  0.00  0.00    -0.271 OA
ATOM      4  H   UNL d   1      27.361 -14.861  -2.192  0.00  0.00     0.169 HD
ENDROOT
BRANCH   2   5
ATOM      5  C   UNL d   1      26.415 -13.111  -3.721  0.00  0.00     0.170 C 
ATOM      6  C   UNL d   1      26.612 -12.616  -2.289  0.00  0.00     0.042 C 
BRANCH   5   7
ATOM      7  N   UNL d   1      25.570 -12.207  -4.545  0.00  0.00    -0.377 N 
ATOM      8  H   UNL d   1      24.651 -12.578  -4.779  0.00  0.00     0.160 HD
BRANCH   7   9
ATOM      9  C   UNL d   1      25.717 -10.814  -4.659  0.00  0.00     0.034 C 
ATOM     10  C   UNL d   1      25.537  -9.992  -3.539  0.00  0.00     0.029 C 
ATOM     11  C   UNL d   1      25.410  -8.590  -3.666  0.00  0.00     0.002 C 
ATOM     12  C   UNL d   1      25.452  -7.969  -4.907  0.00  0.00     0.001 C 
ATOM     13  C   UNL d   1      25.706  -8.740  -6.003  0.00  0.00     0.009 C 
ATOM     14  C   UNL d   1      25.968 -10.105  -5.852  0.00  0.00    -0.036 C 
ATOM     15  C   UNL d   1      26.319 -10.709  -7.142  0.00  0.00     0.050 C 
ENDBRANCH   7   9
ENDBRANCH   5   7
ENDBRANCH   2   5
BRANCH   1  16
ATOM     16  C   UNL d   1      25.945 -16.349  -1.768  0.00  0.00     0.036 C 
ATOM     17  C   UNL d   1      26.739 -17.078  -0.866  0.00  0.00     0.029 C 
ATOM     18  C   UNL d   1      26.141 -17.941   0.069  0.00  0.00     0.004 C 
ATOM     19  C   UNL d   1      24.749 -18.080   0.123  0.00  0.00     0.018 C 
ATOM     20  C   UNL d   1      23.943 -17.236  -0.628  0.00  0.00     0.002 C 
ATOM     21  C   UNL d   1      24.551 -16.397  -1.572  0.00  0.00     0.048 C 
BRANCH  20  22
ATOM     22  S   UNL d   1      22.158 -17.197  -0.509  0.00  0.00    -0.134 SA
ATOM     23  C   UNL d   1      21.672 -18.925  -0.807  0.00  0.00     0.095 C 
ENDBRANCH  20  22
ENDBRANCH   1  16
TORSDOF 5
ENDMDL
MODEL 3
REMARK VINA RESULT:    -7.520      3.445      8.605
REMARK INTER + INTRA:         -10.126
REMARK INTER:                  -9.011
REMARK INTRA:                  -1.114
REMARK CONF_INDEPENDENT:        1.492
REMARK UNBOUND:                -1.114
REMARK  5 active torsions:
REMARK  status: ('A' for Active; 'I' for Inactive)
REMARK    1  A    between atoms: S_2  and  C_3 
REMARK    2  A    between atoms: C_7  and  N_8 
REMARK       I    between atoms: N_8  and  C_9 
REMARK    3  A    between atoms: C_11  and  C_9 
REMARK    4  A    between atoms: C_11  and  N_13 
REMARK    5  A    between atoms: N_13  and  C_14 
ROOT
ATOM      1  N   UNL d   1      26.530 -15.671  -2.513  0.00  0.00    -0.325 N 
ATOM      2  C   UNL d   1      25.878 -14.709  -3.313  0.00  0.00     0.244 C 
ATOM      3  O   UNL d   1      24.780 -14.825  -3.828  0.00  0.00    -0.271 OA
ATOM      4  H   UNL d   1      27.405 -15.328  -2.117  0.00  0.00     0.169 HD
ENDROOT
BRANCH   2   5
ATOM      5  C   UNL d   1      26.654 -13.382  -3.511  0.00  0.00     0.170 C 
ATOM      6  C   UNL d   1      25.804 -12.676  -4.567  0.00  0.00     0.042 C 
BRANCH   5   7
ATOM      7  N   UNL d   1      28.077 -13.540  -3.912  0.00  0.00    -0.377 N 
ATOM      8  H   UNL d   1      28.748 -13.112  -3.278  0.00  0.00     0.160 HD
BRANCH   7   9
ATOM      9  C   UNL d   1      28.588 -14.524  -4.774  0.00  0.00     0.034 C 
ATOM     10  C   UNL d   1      29.010 -15.759  -4.264  0.00  0.00     0.029 C 
ATOM     11  C   UNL d   1      29.770 -16.659  -5.046  0.00  0.00     0.002 C 
ATOM     12  C   UNL d   1      30.135 -16.355  -6.351  0.00  0.00     0.001 C 
ATOM     13  C   UNL d   1      29.667 -15.195  -6.895  0.00  0.00     0.009 C 
ATOM     14  C   UNL d   1      28.802 -14.377  -6.161  0.00  0.00    -0.036 C 
ATOM     15  C   UNL d   1      28.343 -13.248  -6.977  0.00  0.00     0.050 C 
ENDBRANCH   7   9
ENDBRANCH   5   7
ENDBRANCH   2   5
BRANCH   1  16
ATOM     16  C   UNL d   1      25.807 -16.617  -1.684  0.00  0.00     0.036 C 
ATOM     17  C   UNL d   1      26.477 -17.251  -0.622  0.00  0.00     0.029 C 
ATOM     18  C   UNL d   1      25.764 -18.050   0.290  0.00  0.00     0.004 C 
ATOM     19  C   UNL d   1      24.380 -18.217   0.163  0.00  0.00     0.018 C 
ATOM     20  C   UNL d   1      23.676 -17.455  -0.761  0.00  0.00     0.002 C 
ATOM     21  C   UNL d   1      24.401 -16.682  -1.679  0.00  0.00     0.048 C 
BRANCH  20  22
ATOM     22  S   UNL d   1      21.892 -17.449  -0.892  0.00  0.00    -0.134 SA
ATOM     23  C   UNL d   1      21.430 -19.170  -0.523  0.00  0.00     0.095 C 
ENDBRANCH  20  22
ENDBRANCH   1  16
TORSDOF 5
ENDMDL
MODEL 4
REMARK VINA RESULT:    -7.420      4.061      6.981
REMARK INTER + INTRA:          -9.750
REMARK INTER:                  -8.911
REMARK INTRA:                  -0.839
REMARK CONF_INDEPENDENT:        1.492
REMARK UNBOUND:                -0.839
REMARK  5 active torsions:
REMARK  status: ('A' for Active; 'I' for Inactive)
REMARK    1  A    between atoms: S_2  and  C_3 
REMARK    2  A    between atoms: C_7  and  N_8 
REMARK       I    between atoms: N_8  and  C_9 
REMARK    3  A    between atoms: C_11  and  C_9 
REMARK    4  A    between atoms: C_11  and  N_13 
REMARK    5  A    between atoms: N_13  and  C_14 
ROOT
ATOM      1  N   UNL d   1      28.094 -14.831   3.291  0.00  0.00    -0.325 N 
ATOM      2  C   UNL d   1      27.642 -14.526   1.990  0.00  0.00     0.244 C 
ATOM      3  O   UNL d   1      26.883 -13.624   1.684  0.00  0.00    -0.271 OA
ATOM      4  H   UNL d   1      28.792 -15.575   3.303  0.00  0.00     0.169 HD
ENDROOT
BRANCH   2   5
ATOM      5  C   UNL d   1      28.207 -15.432   0.867  0.00  0.00     0.170 C 
ATOM      6  C   UNL d   1      29.595 -14.833   0.649  0.00  0.00     0.042 C 
BRANCH   5   7
ATOM      7  N   UNL d   1      27.387 -15.483  -0.372  0.00  0.00    -0.377 N 
ATOM      8  H   UNL d   1      27.871 -15.185  -1.217  0.00  0.00     0.160 HD
BRANCH   7   9
ATOM      9  C   UNL d   1      26.234 -16.261  -0.568  0.00  0.00     0.034 C 
ATOM     10  C   UNL d   1      25.141 -15.737  -1.270  0.00  0.00     0.029 C 
ATOM     11  C   UNL d   1      23.880 -16.376  -1.255  0.00  0.00     0.002 C 
ATOM     12  C   UNL d   1      23.670 -17.547  -0.538  0.00  0.00     0.001 C 
ATOM     13  C   UNL d   1      24.739 -18.117   0.087  0.00  0.00     0.009 C 
ATOM     14  C   UNL d   1      26.011 -17.553  -0.048  0.00  0.00    -0.036 C 
ATOM     15  C   UNL d   1      27.019 -18.389   0.614  0.00  0.00     0.050 C 
ENDBRANCH   7   9
ENDBRANCH   5   7
ENDBRANCH   2   5
BRANCH   1  16
ATOM     16  C   UNL d   1      28.255 -13.820   4.319  0.00  0.00     0.036 C 
ATOM     17  C   UNL d   1      27.799 -12.512   4.073  0.00  0.00     0.029 C 
ATOM     18  C   UNL d   1      27.799 -11.556   5.104  0.00  0.00     0.004 C 
ATOM     19  C   UNL d   1      28.241 -11.890   6.389  0.00  0.00     0.018 C 
ATOM     20  C   UNL d   1      28.518 -13.215   6.699  0.00  0.00     0.002 C 
ATOM     21  C   UNL d   1      28.537 -14.154   5.658  0.00  0.00     0.048 C 
BRANCH  20  22
ATOM     22  S   UNL d   1      28.916 -13.790   8.345  0.00  0.00    -0.134 SA
ATOM     23  C   UNL d   1      28.487 -12.376   9.407  0.00  0.00     0.095 C 
ENDBRANCH  20  22
ENDBRANCH   1  16
TORSDOF 5
ENDMDL
MODEL 5
REMARK VINA RESULT:    -7.414      4.287      9.316
REMARK INTER + INTRA:         -10.070
REMARK INTER:                  -8.906
REMARK INTRA:                  -1.164
REMARK CONF_INDEPENDENT:        1.492
REMARK UNBOUND:                -1.164
REMARK  5 active torsions:
REMARK  status: ('A' for Active; 'I' for Inactive)
REMARK    1  A    between atoms: S_2  and  C_3 
REMARK    2  A    between atoms: C_7  and  N_8 
REMARK       I    between atoms: N_8  and  C_9 
REMARK    3  A    between atoms: C_11  and  C_9 
REMARK    4  A    between atoms: C_11  and  N_13 
REMARK    5  A    between atoms: N_13  and  C_14 
ROOT
ATOM      1  N   UNL d   1      26.378 -15.393  -3.116  0.00  0.00    -0.325 N 
ATOM      2  C   UNL d   1      25.568 -14.397  -3.701  0.00  0.00     0.244 C 
ATOM      3  O   UNL d   1      24.361 -14.448  -3.857  0.00  0.00    -0.271 OA
ATOM      4  H   UNL d   1      27.349 -15.102  -3.010  0.00  0.00     0.169 HD
ENDROOT
BRANCH   2   5
ATOM      5  C   UNL d   1      26.321 -13.119  -4.154  0.00  0.00     0.170 C 
ATOM      6  C   UNL d   1      26.659 -12.464  -2.816  0.00  0.00     0.042 C 
BRANCH   5   7
ATOM      7  N   UNL d   1      25.556 -12.230  -5.067  0.00  0.00    -0.377 N 
ATOM      8  H   UNL d   1      24.544 -12.293  -4.975  0.00  0.00     0.160 HD
BRANCH   7   9
ATOM      9  C   UNL d   1      26.044 -11.070  -5.692  0.00  0.00     0.034 C 
ATOM     10  C   UNL d   1      25.531  -9.813  -5.346  0.00  0.00     0.029 C 
ATOM     11  C   UNL d   1      25.797  -8.668  -6.131  0.00  0.00     0.002 C 
ATOM     12  C   UNL d   1      26.573  -8.741  -7.280  0.00  0.00     0.001 C 
ATOM     13  C   UNL d   1      27.149  -9.938  -7.591  0.00  0.00     0.009 C 
ATOM     14  C   UNL d   1      26.994 -11.032  -6.734  0.00  0.00    -0.036 C 
ATOM     15  C   UNL d   1      27.783 -12.174  -7.208  0.00  0.00     0.050 C 
ENDBRANCH   7   9
ENDBRANCH   5   7
ENDBRANCH   2   5
BRANCH   1  16
ATOM     16  C   UNL d   1      25.889 -16.291  -2.086  0.00  0.00     0.036 C 
ATOM     17  C   UNL d   1      26.783 -16.771  -1.112  0.00  0.00     0.029 C 
ATOM     18  C   UNL d   1      26.307 -17.513  -0.017  0.00  0.00     0.004 C 
ATOM     19  C   UNL d   1      24.940 -17.776   0.127  0.00  0.00     0.018 C 
ATOM     20  C   UNL d   1      24.027 -17.158  -0.717  0.00  0.00     0.002 C 
ATOM     21  C   UNL d   1      24.515 -16.441  -1.818  0.00  0.00     0.048 C 
BRANCH  20  22
ATOM     22  S   UNL d   1      22.252 -17.274  -0.519  0.00  0.00    -0.134 SA
ATOM     23  C   UNL d   1      21.865 -18.949  -1.115  0.00  0.00     0.095 C 
ENDBRANCH  20  22
ENDBRANCH   1  16
TORSDOF 5
ENDMDL
MODEL 6
REMARK VINA RESULT:    -7.264      4.185      6.339
REMARK INTER + INTRA:          -9.914
REMARK INTER:                  -8.756
REMARK INTRA:                  -1.158
REMARK CONF_INDEPENDENT:        1.492
REMARK UNBOUND:                -1.158
REMARK  5 active torsions:
REMARK  status: ('A' for Active; 'I' for Inactive)
REMARK    1  A    between atoms: S_2  and  C_3 
REMARK    2  A    between atoms: C_7  and  N_8 
REMARK       I    between atoms: N_8  and  C_9 
REMARK    3  A    between atoms: C_11  and  C_9 
REMARK    4  A    between atoms: C_11  and  N_13 
REMARK    5  A    between atoms: N_13  and  C_14 
ROOT
ATOM      1  N   UNL d   1      27.394 -14.439  -4.736  0.00  0.00    -0.325 N 
ATOM      2  C   UNL d   1      26.075 -14.930  -4.629  0.00  0.00     0.244 C 
ATOM      3  O   UNL d   1      25.530 -15.706  -5.393  0.00  0.00    -0.271 OA
ATOM      4  H   UNL d   1      27.670 -13.868  -3.938  0.00  0.00     0.169 HD
ENDROOT
BRANCH   2   5
ATOM      5  C   UNL d   1      25.285 -14.429  -3.393  0.00  0.00     0.170 C 
ATOM      6  C   UNL d   1      25.421 -12.913  -3.527  0.00  0.00     0.042 C 
BRANCH   5   7
ATOM      7  N   UNL d   1      25.768 -14.949  -2.086  0.00  0.00    -0.377 N 
ATOM      8  H   UNL d   1      26.190 -14.250  -1.478  0.00  0.00     0.160 HD
BRANCH   7   9
ATOM      9  C   UNL d   1      25.338 -16.130  -1.458  0.00  0.00     0.034 C 
ATOM     10  C   UNL d   1      23.972 -16.424  -1.368  0.00  0.00     0.029 C 
ATOM     11  C   UNL d   1      23.493 -17.449  -0.520  0.00  0.00     0.002 C 
ATOM     12  C   UNL d   1      24.356 -18.203   0.265  0.00  0.00     0.001 C 
ATOM     13  C   UNL d   1      25.696 -17.988   0.133  0.00  0.00     0.009 C 
ATOM     14  C   UNL d   1      26.168 -17.069  -0.809  0.00  0.00    -0.036 C 
ATOM     15  C   UNL d   1      27.634 -17.081  -0.852  0.00  0.00     0.050 C 
ENDBRANCH   7   9
ENDBRANCH   5   7
ENDBRANCH   2   5
BRANCH   1  16
ATOM     16  C   UNL d   1      28.465 -15.207  -5.343  0.00  0.00     0.036 C 
ATOM     17  C   UNL d   1      29.182 -14.654  -6.420  0.00  0.00     0.029 C 
ATOM     18  C   UNL d   1      30.321 -15.306  -6.923  0.00  0.00     0.004 C 
ATOM     19  C   UNL d   1      30.766 -16.506  -6.356  0.00  0.00     0.018 C 
ATOM     20  C   UNL d   1      30.186 -16.970  -5.182  0.00  0.00     0.002 C 
ATOM     21  C   UNL d   1      29.037 -16.324  -4.705  0.00  0.00     0.048 C 
BRANCH  20  22
ATOM     22  S   UNL d   1      30.784 -18.388  -4.269  0.00  0.00    -0.134 SA
ATOM     23  C   UNL d   1      30.392 -19.792  -5.359  0.00  0.00     0.095 C 
ENDBRANCH  20  22
ENDBRANCH   1  16
TORSDOF 5
ENDMDL
MODEL 7
REMARK VINA RESULT:    -7.192      4.421      6.659
REMARK INTER + INTRA:          -9.955
REMARK INTER:                  -8.684
REMARK INTRA:                  -1.271
REMARK CONF_INDEPENDENT:        1.492
REMARK UNBOUND:                -1.271
REMARK  5 active torsions:
REMARK  status: ('A' for Active; 'I' for Inactive)
REMARK    1  A    between atoms: S_2  and  C_3 
REMARK    2  A    between atoms: C_7  and  N_8 
REMARK       I    between atoms: N_8  and  C_9 
REMARK    3  A    between atoms: C_11  and  C_9 
REMARK    4  A    between atoms: C_11  and  N_13 
REMARK    5  A    between atoms: N_13  and  C_14 
ROOT
ATOM      1  N   UNL d   1      28.017 -15.117  -3.822  0.00  0.00    -0.325 N 
ATOM      2  C   UNL d   1      26.814 -15.198  -4.556  0.00  0.00     0.244 C 
ATOM      3  O   UNL d   1      26.700 -15.546  -5.717  0.00  0.00    -0.271 OA
ATOM      4  H   UNL d   1      27.867 -14.885  -2.841  0.00  0.00     0.169 HD
ENDROOT
BRANCH   2   5
ATOM      5  C   UNL d   1      25.535 -14.824  -3.765  0.00  0.00     0.170 C 
ATOM      6  C   UNL d   1      25.331 -13.365  -4.171  0.00  0.00     0.042 C 
BRANCH   5   7
ATOM      7  N   UNL d   1      25.627 -15.017  -2.293  0.00  0.00    -0.377 N 
ATOM      8  H   UNL d   1      25.601 -14.157  -1.748  0.00  0.00     0.160 HD
BRANCH   7   9
ATOM      9  C   UNL d   1      25.323 -16.197  -1.594  0.00  0.00     0.034 C 
ATOM     10  C   UNL d   1      24.030 -16.733  -1.645  0.00  0.00     0.029 C 
ATOM     11  C   UNL d   1      23.618 -17.750  -0.754  0.00  0.00     0.002 C 
ATOM     12  C   UNL d   1      24.475 -18.256   0.215  0.00  0.00     0.001 C 
ATOM     13  C   UNL d   1      25.763 -17.805   0.230  0.00  0.00     0.009 C 
ATOM     14  C   UNL d   1      26.200 -16.902  -0.743  0.00  0.00    -0.036 C 
ATOM     15  C   UNL d   1      27.636 -16.642  -0.598  0.00  0.00     0.050 C 
ENDBRANCH   7   9
ENDBRANCH   5   7
ENDBRANCH   2   5
BRANCH   1  16
ATOM     16  C   UNL d   1      29.150 -15.986  -4.083  0.00  0.00     0.036 C 
ATOM     17  C   UNL d   1      29.656 -16.786  -3.043  0.00  0.00     0.029 C 
ATOM     18  C   UNL d   1      30.647 -17.748  -3.306  0.00  0.00     0.004 C 
ATOM     19  C   UNL d   1      31.138 -17.931  -4.604  0.00  0.00     0.018 C 
ATOM     20  C   UNL d   1      30.524 -17.286  -5.669  0.00  0.00     0.002 C 
ATOM     21  C   UNL d   1      29.554 -16.313  -5.392  0.00  0.00     0.048 C 
BRANCH  20  22
ATOM     22  S   UNL d   1      30.943 -17.577  -7.384  0.00  0.00    -0.134 SA
ATOM     23  C   UNL d   1      30.806 -19.383  -7.557  0.00  0.00     0.095 C 
ENDBRANCH  20  22
ENDBRANCH   1  16
TORSDOF 5
ENDMDL
MODEL 8
REMARK VINA RESULT:    -7.141      3.732      6.346
REMARK INTER + INTRA:          -9.861
REMARK INTER:                  -8.633
REMARK INTRA:                  -1.228
REMARK CONF_INDEPENDENT:        1.492
REMARK UNBOUND:                -1.228
REMARK  5 active torsions:
REMARK  status: ('A' for Active; 'I' for Inactive)
REMARK    1  A    between atoms: S_2  and  C_3 
REMARK    2  A    between atoms: C_7  and  N_8 
REMARK       I    between atoms: N_8  and  C_9 
REMARK    3  A    between atoms: C_11  and  C_9 
REMARK    4  A    between atoms: C_11  and  N_13 
REMARK    5  A    between atoms: N_13  and  C_14 
ROOT
ATOM      1  N   UNL d   1      27.863 -15.031   2.234  0.00  0.00    -0.325 N 
ATOM      2  C   UNL d   1      27.295 -14.468   1.071  0.00  0.00     0.244 C 
ATOM      3  O   UNL d   1      26.348 -13.703   1.029  0.00  0.00    -0.271 OA
ATOM      4  H   UNL d   1      28.703 -15.576   2.040  0.00  0.00     0.169 HD
ENDROOT
BRANCH   2   5
ATOM      5  C   UNL d   1      27.986 -14.867  -0.257  0.00  0.00     0.170 C 
ATOM      6  C   UNL d   1      27.546 -13.740  -1.190  0.00  0.00     0.042 C 
BRANCH   5   7
ATOM      7  N   UNL d   1      27.637 -16.220  -0.766  0.00  0.00    -0.377 N 
ATOM      8  H   UNL d   1      28.409 -16.884  -0.777  0.00  0.00     0.160 HD
BRANCH   7   9
ATOM      9  C   UNL d   1      26.349 -16.777  -0.815  0.00  0.00     0.034 C 
ATOM     10  C   UNL d   1      25.399 -16.279  -1.716  0.00  0.00     0.029 C 
ATOM     11  C   UNL d   1      24.031 -16.623  -1.611  0.00  0.00     0.002 C 
ATOM     12  C   UNL d   1      23.571 -17.465  -0.607  0.00  0.00     0.001 C 
ATOM     13  C   UNL d   1      24.489 -18.025   0.231  0.00  0.00     0.009 C 
ATOM     14  C   UNL d   1      25.853 -17.789   0.034  0.00  0.00    -0.036 C 
ATOM     15  C   UNL d   1      26.654 -18.574   0.979  0.00  0.00     0.050 C 
ENDBRANCH   7   9
ENDBRANCH   5   7
ENDBRANCH   2   5
BRANCH   1  16
ATOM     16  C   UNL d   1      27.854 -14.349   3.515  0.00  0.00     0.036 C 
ATOM     17  C   UNL d   1      28.272 -15.043   4.665  0.00  0.00     0.029 C 
ATOM     18  C   UNL d   1      28.422 -14.364   5.887  0.00  0.00     0.004 C 
ATOM     19  C   UNL d   1      28.169 -12.991   5.977  0.00  0.00     0.018 C 
ATOM     20  C   UNL d   1      27.937 -12.256   4.822  0.00  0.00     0.002 C 
ATOM     21  C   UNL d   1      27.766 -12.948   3.614  0.00  0.00     0.048 C 
BRANCH  20  22
ATOM     22  S   UNL d   1      27.778 -10.475   4.791  0.00  0.00    -0.134 SA
ATOM     23  C   UNL d   1      26.926 -10.150   3.216  0.00  0.00     0.095 C 
ENDBRANCH  20  22
ENDBRANCH   1  16
TORSDOF 5
ENDMDL
MODEL 9
REMARK VINA RESULT:    -6.950      2.798      7.354
REMARK INTER + INTRA:         -10.182
REMARK INTER:                  -8.441
REMARK INTRA:                  -1.741
REMARK CONF_INDEPENDENT:        1.492
REMARK UNBOUND:                -1.741
REMARK  5 active torsions:
REMARK  status: ('A' for Active; 'I' for Inactive)
REMARK    1  A    between atoms: S_2  and  C_3 
REMARK    2  A    between atoms: C_7  and  N_8 
REMARK       I    between atoms: N_8  and  C_9 
REMARK    3  A    between atoms: C_11  and  C_9 
REMARK    4  A    between atoms: C_11  and  N_13 
REMARK    5  A    between atoms: N_13  and  C_14 
ROOT
ATOM      1  N   UNL d   1      25.905 -16.221  -2.575  0.00  0.00    -0.325 N 
ATOM      2  C   UNL d   1      25.389 -14.967  -2.966  0.00  0.00     0.244 C 
ATOM      3  O   UNL d   1      24.212 -14.659  -3.026  0.00  0.00    -0.271 OA
ATOM      4  H   UNL d   1      26.923 -16.229  -2.516  0.00  0.00     0.169 HD
ENDROOT
BRANCH   2   5
ATOM      5  C   UNL d   1      26.454 -13.899  -3.319  0.00  0.00     0.170 C 
ATOM      6  C   UNL d   1      26.931 -14.373  -4.691  0.00  0.00     0.042 C 
BRANCH   5   7
ATOM      7  N   UNL d   1      27.556 -13.758  -2.331  0.00  0.00    -0.377 N 
ATOM      8  H   UNL d   1      28.263 -13.067  -2.575  0.00  0.00     0.160 HD
BRANCH   7   9
ATOM      9  C   UNL d   1      27.504 -14.130  -0.977  0.00  0.00     0.034 C 
ATOM     10  C   UNL d   1      26.709 -13.409  -0.077  0.00  0.00     0.029 C 
ATOM     11  C   UNL d   1      26.837 -13.579   1.320  0.00  0.00     0.002 C 
ATOM     12  C   UNL d   1      27.761 -14.464   1.861  0.00  0.00     0.001 C 
ATOM     13  C   UNL d   1      28.489 -15.235   1.003  0.00  0.00     0.009 C 
ATOM     14  C   UNL d   1      28.257 -15.159  -0.374  0.00  0.00    -0.036 C 
ATOM     15  C   UNL d   1      29.071 -16.148  -1.089  0.00  0.00     0.050 C 
ENDBRANCH   7   9
ENDBRANCH   5   7
ENDBRANCH   2   5
BRANCH   1  16
ATOM     16  C   UNL d   1      25.227 -17.084  -1.626  0.00  0.00     0.036 C 
ATOM     17  C   UNL d   1      25.883 -17.445  -0.436  0.00  0.00     0.029 C 
ATOM     18  C   UNL d   1      25.193 -18.148   0.569  0.00  0.00     0.004 C 
ATOM     19  C   UNL d   1      23.845 -18.488   0.405  0.00  0.00     0.018 C 
ATOM     20  C   UNL d   1      23.133 -17.982  -0.674  0.00  0.00     0.002 C 
ATOM     21  C   UNL d   1      23.837 -17.304  -1.679  0.00  0.00     0.048 C 
BRANCH  20  22
ATOM     22  S   UNL d   1      21.371 -18.198  -0.893  0.00  0.00    -0.134 SA
ATOM     23  C   UNL d   1      21.002 -19.700   0.067  0.00  0.00     0.095 C 
ENDBRANCH  20  22
ENDBRANCH   1  16
TORSDOF 5
ENDMDL
