MODEL 1
REMARK VINA RESULT:    -8.145      0.000      0.000
REMARK INTER + INTRA:         -11.743
REMARK INTER:                 -11.128
REMARK INTRA:                  -0.615
REMARK CONF_INDEPENDENT:        2.983
REMARK UNBOUND:                -0.615
REMARK  10 active torsions:
REMARK  status: ('A' for Active; 'I' for Inactive)
REMARK    1  A    between atoms: C_2  and  C_3 
REMARK       I    between atoms: C_2  and  N_13 
REMARK    2  A    between atoms: C_3  and  S_4 
REMARK    3  A    between atoms: S_4  and  C_5 
REMARK    4  A    between atoms: C_5  and  C_6 
REMARK    5  A    between atoms: C_6  and  C_7 
REMARK    6  A    between atoms: N_13  and  N_14 
REMARK       I    between atoms: N_14  and  C_15 
REMARK       I    between atoms: C_15  and  N_17 
REMARK    7  A    between atoms: N_17  and  C_18 
REMARK    8  A    between atoms: C_18  and  C_19 
REMARK    9  A    between atoms: C_19  and  C_20 
REMARK   10  A    between atoms: C_20  and  N_21 
ROOT
ATOM      1  N   UNL d   1      28.727 -15.589   0.945  0.00  0.00    -0.249 N 
ATOM      2  C   UNL d   1      28.028 -14.663   1.708  0.00  0.00     0.334 C 
ATOM      3  O   UNL d   1      27.264 -13.823   1.231  0.00  0.00    -0.246 OA
ATOM      4  N   UNL d   1      28.266 -14.760   3.067  0.00  0.00    -0.342 N 
ATOM      5  H   UNL d   1      29.345 -16.273   1.353  0.00  0.00     0.192 HD
ATOM      6  H   UNL d   1      28.889 -15.480   3.397  0.00  0.00     0.164 HD
ENDROOT
BRANCH   1   7
ATOM      7  N   UNL d   1      28.553 -15.573  -0.452  0.00  0.00    -0.265 N 
ATOM      8  C   UNL d   1      27.440 -15.963  -1.170  0.00  0.00     0.245 C 
ATOM      9  O   UNL d   1      27.497 -15.870  -2.398  0.00  0.00    -0.271 OA
ATOM     10  H   UNL d   1      29.343 -15.236  -1.009  0.00  0.00     0.190 HD
BRANCH   8  11
ATOM     11  C   UNL d   1      26.203 -16.484  -0.415  0.00  0.00     0.178 C 
BRANCH  11  12
ATOM     12  S   UNL d   1      24.751 -16.553  -1.544  0.00  0.00    -0.159 SA
BRANCH  12  13
ATOM     13  C   UNL d   1      23.412 -17.168  -0.465  0.00  0.00     0.079 C 
BRANCH  13  14
ATOM     14  C   UNL d   1      22.880 -18.481  -1.070  0.00  0.00     0.049 C 
BRANCH  14  15
ATOM     15  C   UNL d   1      21.561 -18.927  -0.482  0.00  0.00    -0.058 A 
ATOM     16  C   UNL d   1      20.485 -19.326  -1.284  0.00  0.00     0.007 A 
ATOM     17  C   UNL d   1      19.255 -19.646  -0.706  0.00  0.00     0.001 A 
ATOM     18  C   UNL d   1      19.118 -19.667   0.681  0.00  0.00     0.000 A 
ATOM     19  C   UNL d   1      20.198 -19.325   1.490  0.00  0.00     0.001 A 
ATOM     20  C   UNL d   1      21.410 -18.953   0.913  0.00  0.00     0.007 A 
ENDBRANCH  14  15
ENDBRANCH  13  14
ENDBRANCH  12  13
ENDBRANCH  11  12
ENDBRANCH   8  11
ENDBRANCH   1   7
BRANCH   4  21
ATOM     21  C   UNL d   1      27.602 -13.865   4.016  0.00  0.00     0.126 C 
BRANCH  21  22
ATOM     22  C   UNL d   1      27.782 -14.292   5.475  0.00  0.00     0.040 C 
BRANCH  22  23
ATOM     23  C   UNL d   1      29.127 -13.844   6.061  0.00  0.00     0.130 C 
BRANCH  23  24
ATOM     24  N   UNL d   1      28.982 -13.271   7.418  0.00  0.00    -0.352 N 
ATOM     25  C   UNL d   1      29.357 -13.889   8.612  0.00  0.00     0.108 A 
ATOM     26  C   UNL d   1      29.058 -13.018   9.623  0.00  0.00     0.106 A 
ATOM     27  N   UNL d   1      28.497 -11.916   9.029  0.00  0.00    -0.361 N 
ATOM     28  C   UNL d   1      28.427 -12.080   7.705  0.00  0.00     0.182 A 
ATOM     29  H   UNL d   1      28.167 -11.087   9.517  0.00  0.00     0.166 HD
ENDBRANCH  23  24
ENDBRANCH  22  23
ENDBRANCH  21  22
ENDBRANCH   4  21
TORSDOF 10
ENDMDL
MODEL 2
REMARK VINA RESULT:    -7.290      6.308      9.337
REMARK INTER + INTRA:         -11.323
REMARK INTER:                 -10.273
REMARK INTRA:                  -1.050
REMARK CONF_INDEPENDENT:        2.983
REMARK UNBOUND:                -1.050
REMARK  10 active torsions:
REMARK  status: ('A' for Active; 'I' for Inactive)
REMARK    1  A    between atoms: C_2  and  C_3 
REMARK       I    between atoms: C_2  and  N_13 
REMARK    2  A    between atoms: C_3  and  S_4 
REMARK    3  A    between atoms: S_4  and  C_5 
REMARK    4  A    between atoms: C_5  and  C_6 
REMARK    5  A    between atoms: C_6  and  C_7 
REMARK    6  A    between atoms: N_13  and  N_14 
REMARK       I    between atoms: N_14  and  C_15 
REMARK       I    between atoms: C_15  and  N_17 
REMARK    7  A    between atoms: N_17  and  C_18 
REMARK    8  A    between atoms: C_18  and  C_19 
REMARK    9  A    between atoms: C_19  and  C_20 
REMARK   10  A    between atoms: C_20  and  N_21 
ROOT
ATOM      1  N   UNL d   1      26.816 -13.116  -5.005  0.00  0.00    -0.249 N 
ATOM      2  C   UNL d   1      27.403 -14.165  -5.702  0.00  0.00     0.334 C 
ATOM      3  O   UNL d   1      26.808 -15.199  -6.007  0.00  0.00    -0.246 OA
ATOM      4  N   UNL d   1      28.730 -13.951  -6.026  0.00  0.00    -0.342 N 
ATOM      5  H   UNL d   1      27.317 -12.274  -4.769  0.00  0.00     0.192 HD
ATOM      6  H   UNL d   1      29.156 -13.076  -5.764  0.00  0.00     0.164 HD
ENDROOT
BRANCH   1   7
ATOM      7  N   UNL d   1      25.465 -13.236  -4.628  0.00  0.00    -0.265 N 
ATOM      8  C   UNL d   1      24.912 -14.141  -3.744  0.00  0.00     0.245 C 
ATOM      9  O   UNL d   1      23.695 -14.076  -3.554  0.00  0.00    -0.271 OA
ATOM     10  H   UNL d   1      24.809 -12.577  -5.056  0.00  0.00     0.190 HD
BRANCH   8  11
ATOM     11  C   UNL d   1      25.824 -15.170  -3.051  0.00  0.00     0.178 C 
BRANCH  11  12
ATOM     12  S   UNL d   1      26.828 -14.352  -1.744  0.00  0.00    -0.159 SA
BRANCH  12  13
ATOM     13  C   UNL d   1      26.512 -15.381  -0.269  0.00  0.00     0.079 C 
BRANCH  13  14
ATOM     14  C   UNL d   1      26.262 -16.825  -0.742  0.00  0.00     0.049 C 
BRANCH  14  15
ATOM     15  C   UNL d   1      24.813 -17.247  -0.654  0.00  0.00    -0.058 A 
ATOM     16  C   UNL d   1      23.762 -16.325  -0.739  0.00  0.00     0.007 A 
ATOM     17  C   UNL d   1      22.441 -16.744  -0.564  0.00  0.00     0.001 A 
ATOM     18  C   UNL d   1      22.151 -18.097  -0.405  0.00  0.00     0.000 A 
ATOM     19  C   UNL d   1      23.184 -19.029  -0.375  0.00  0.00     0.001 A 
ATOM     20  C   UNL d   1      24.507 -18.607  -0.494  0.00  0.00     0.007 A 
ENDBRANCH  14  15
ENDBRANCH  13  14
ENDBRANCH  12  13
ENDBRANCH  11  12
ENDBRANCH   8  11
ENDBRANCH   1   7
BRANCH   4  21
ATOM     21  C   UNL d   1      29.496 -14.953  -6.769  0.00  0.00     0.126 C 
BRANCH  21  22
ATOM     22  C   UNL d   1      29.813 -16.204  -5.946  0.00  0.00     0.040 C 
BRANCH  22  23
ATOM     23  C   UNL d   1      30.897 -17.077  -6.589  0.00  0.00     0.130 C 
BRANCH  23  24
ATOM     24  N   UNL d   1      30.729 -18.510  -6.259  0.00  0.00    -0.352 N 
ATOM     25  C   UNL d   1      30.514 -19.037  -4.985  0.00  0.00     0.108 A 
ATOM     26  C   UNL d   1      30.407 -20.393  -5.125  0.00  0.00     0.106 A 
ATOM     27  N   UNL d   1      30.580 -20.656  -6.461  0.00  0.00    -0.361 N 
ATOM     28  C   UNL d   1      30.800 -19.525  -7.138  0.00  0.00     0.182 A 
ATOM     29  H   UNL d   1      30.555 -21.579  -6.889  0.00  0.00     0.166 HD
ENDBRANCH  23  24
ENDBRANCH  22  23
ENDBRANCH  21  22
ENDBRANCH   4  21
TORSDOF 10
ENDMDL
MODEL 3
REMARK VINA RESULT:    -7.264      1.986      2.769
REMARK INTER + INTRA:         -11.656
REMARK INTER:                 -10.247
REMARK INTRA:                  -1.409
REMARK CONF_INDEPENDENT:        2.983
REMARK UNBOUND:                -1.409
REMARK  10 active torsions:
REMARK  status: ('A' for Active; 'I' for Inactive)
REMARK    1  A    between atoms: C_2  and  C_3 
REMARK       I    between atoms: C_2  and  N_13 
REMARK    2  A    between atoms: C_3  and  S_4 
REMARK    3  A    between atoms: S_4  and  C_5 
REMARK    4  A    between atoms: C_5  and  C_6 
REMARK    5  A    between atoms: C_6  and  C_7 
REMARK    6  A    between atoms: N_13  and  N_14 
REMARK       I    between atoms: N_14  and  C_15 
REMARK       I    between atoms: C_15  and  N_17 
REMARK    7  A    between atoms: N_17  and  C_18 
REMARK    8  A    between atoms: C_18  and  C_19 
REMARK    9  A    between atoms: C_19  and  C_20 
REMARK   10  A    between atoms: C_20  and  N_21 
ROOT
ATOM      1  N   UNL d   1      27.964 -14.878   2.458  0.00  0.00    -0.249 N 
ATOM      2  C   UNL d   1      27.811 -14.423   3.762  0.00  0.00     0.334 C 
ATOM      3  O   UNL d   1      27.009 -13.549   4.089  0.00  0.00    -0.246 OA
ATOM      4  N   UNL d   1      28.649 -15.039   4.673  0.00  0.00    -0.342 N 
ATOM      5  H   UNL d   1      28.623 -15.599   2.209  0.00  0.00     0.192 HD
ATOM      6  H   UNL d   1      29.271 -15.761   4.346  0.00  0.00     0.164 HD
ENDROOT
BRANCH   1   7
ATOM      7  N   UNL d   1      27.157 -14.314   1.453  0.00  0.00    -0.265 N 
ATOM      8  C   UNL d   1      27.362 -14.347   0.087  0.00  0.00     0.245 C 
ATOM      9  O   UNL d   1      26.527 -13.783  -0.625  0.00  0.00    -0.271 OA
ATOM     10  H   UNL d   1      26.317 -13.816   1.763  0.00  0.00     0.190 HD
BRANCH   8  11
ATOM     11  C   UNL d   1      28.599 -15.074  -0.471  0.00  0.00     0.178 C 
BRANCH  11  12
ATOM     12  S   UNL d   1      28.479 -16.880  -0.142  0.00  0.00    -0.159 SA
BRANCH  12  13
ATOM     13  C   UNL d   1      26.874 -17.334  -0.886  0.00  0.00     0.079 C 
BRANCH  13  14
ATOM     14  C   UNL d   1      25.947 -17.819   0.244  0.00  0.00     0.049 C 
BRANCH  14  15
ATOM     15  C   UNL d   1      24.481 -17.791  -0.124  0.00  0.00    -0.058 A 
ATOM     16  C   UNL d   1      23.694 -18.950  -0.140  0.00  0.00     0.007 A 
ATOM     17  C   UNL d   1      22.367 -18.895  -0.570  0.00  0.00     0.001 A 
ATOM     18  C   UNL d   1      21.786 -17.671  -0.892  0.00  0.00     0.000 A 
ATOM     19  C   UNL d   1      22.542 -16.504  -0.826  0.00  0.00     0.001 A 
ATOM     20  C   UNL d   1      23.882 -16.564  -0.449  0.00  0.00     0.007 A 
ENDBRANCH  14  15
ENDBRANCH  13  14
ENDBRANCH  12  13
ENDBRANCH  11  12
ENDBRANCH   8  11
ENDBRANCH   1   7
BRANCH   4  21
ATOM     21  C   UNL d   1      28.611 -14.684   6.093  0.00  0.00     0.126 C 
BRANCH  21  22
ATOM     22  C   UNL d   1      29.723 -13.715   6.503  0.00  0.00     0.040 C 
BRANCH  22  23
ATOM     23  C   UNL d   1      30.273 -14.005   7.905  0.00  0.00     0.130 C 
BRANCH  23  24
ATOM     24  N   UNL d   1      29.352 -13.552   8.971  0.00  0.00    -0.352 N 
ATOM     25  C   UNL d   1      28.763 -14.362   9.943  0.00  0.00     0.108 A 
ATOM     26  C   UNL d   1      27.995 -13.549  10.729  0.00  0.00     0.106 A 
ATOM     27  N   UNL d   1      28.116 -12.285  10.210  0.00  0.00    -0.361 N 
ATOM     28  C   UNL d   1      28.911 -12.292   9.137  0.00  0.00     0.182 A 
ATOM     29  H   UNL d   1      27.662 -11.451  10.576  0.00  0.00     0.166 HD
ENDBRANCH  23  24
ENDBRANCH  22  23
ENDBRANCH  21  22
ENDBRANCH   4  21
TORSDOF 10
ENDMDL
MODEL 4
REMARK VINA RESULT:    -7.191      6.176      7.819
REMARK INTER + INTRA:         -11.515
REMARK INTER:                 -10.174
REMARK INTRA:                  -1.341
REMARK CONF_INDEPENDENT:        2.983
REMARK UNBOUND:                -1.341
REMARK  10 active torsions:
REMARK  status: ('A' for Active; 'I' for Inactive)
REMARK    1  A    between atoms: C_2  and  C_3 
REMARK       I    between atoms: C_2  and  N_13 
REMARK    2  A    between atoms: C_3  and  S_4 
REMARK    3  A    between atoms: S_4  and  C_5 
REMARK    4  A    between atoms: C_5  and  C_6 
REMARK    5  A    between atoms: C_6  and  C_7 
REMARK    6  A    between atoms: N_13  and  N_14 
REMARK       I    between atoms: N_14  and  C_15 
REMARK       I    between atoms: C_15  and  N_17 
REMARK    7  A    between atoms: N_17  and  C_18 
REMARK    8  A    between atoms: C_18  and  C_19 
REMARK    9  A    between atoms: C_19  and  C_20 
REMARK   10  A    between atoms: C_20  and  N_21 
ROOT
ATOM      1  N   UNL d   1      25.709 -15.714  -2.889  0.00  0.00    -0.249 N 
ATOM      2  C   UNL d   1      25.953 -15.163  -4.140  0.00  0.00     0.334 C 
ATOM      3  O   UNL d   1      25.101 -14.570  -4.802  0.00  0.00    -0.246 OA
ATOM      4  N   UNL d   1      27.248 -15.343  -4.590  0.00  0.00    -0.342 N 
ATOM      5  H   UNL d   1      26.420 -16.192  -2.359  0.00  0.00     0.192 HD
ATOM      6  H   UNL d   1      27.904 -15.822  -3.994  0.00  0.00     0.164 HD
ENDROOT
BRANCH   1   7
ATOM      7  N   UNL d   1      24.419 -15.586  -2.340  0.00  0.00    -0.265 N 
ATOM      8  C   UNL d   1      23.932 -16.161  -1.183  0.00  0.00     0.245 C 
ATOM      9  O   UNL d   1      22.761 -15.920  -0.880  0.00  0.00    -0.271 OA
ATOM     10  H   UNL d   1      23.757 -15.000  -2.856  0.00  0.00     0.190 HD
BRANCH   8  11
ATOM     11  C   UNL d   1      24.858 -17.059  -0.342  0.00  0.00     0.178 C 
BRANCH  11  12
ATOM     12  S   UNL d   1      24.178 -18.766  -0.250  0.00  0.00    -0.159 SA
BRANCH  12  13
ATOM     13  C   UNL d   1      22.538 -18.522   0.516  0.00  0.00     0.079 C 
BRANCH  13  14
ATOM     14  C   UNL d   1      21.474 -19.073  -0.452  0.00  0.00     0.049 C 
BRANCH  14  15
ATOM     15  C   UNL d   1      20.275 -19.673   0.245  0.00  0.00    -0.058 A 
ATOM     16  C   UNL d   1      20.225 -19.832   1.636  0.00  0.00     0.007 A 
ATOM     17  C   UNL d   1      19.137 -20.471   2.234  0.00  0.00     0.001 A 
ATOM     18  C   UNL d   1      18.047 -20.866   1.462  0.00  0.00     0.000 A 
ATOM     19  C   UNL d   1      18.062 -20.663   0.085  0.00  0.00     0.001 A 
ATOM     20  C   UNL d   1      19.170 -20.075  -0.520  0.00  0.00     0.007 A 
ENDBRANCH  14  15
ENDBRANCH  13  14
ENDBRANCH  12  13
ENDBRANCH  11  12
ENDBRANCH   8  11
ENDBRANCH   1   7
BRANCH   4  21
ATOM     21  C   UNL d   1      27.677 -14.816  -5.887  0.00  0.00     0.126 C 
BRANCH  21  22
ATOM     22  C   UNL d   1      29.062 -14.165  -5.846  0.00  0.00     0.040 C 
BRANCH  22  23
ATOM     23  C   UNL d   1      28.996 -12.641  -5.689  0.00  0.00     0.130 C 
BRANCH  23  24
ATOM     24  N   UNL d   1      27.732 -12.200  -5.058  0.00  0.00    -0.352 N 
ATOM     25  C   UNL d   1      27.473 -12.156  -3.687  0.00  0.00     0.108 A 
ATOM     26  C   UNL d   1      26.198 -11.685  -3.537  0.00  0.00     0.106 A 
ATOM     27  N   UNL d   1      25.713 -11.476  -4.803  0.00  0.00    -0.361 N 
ATOM     28  C   UNL d   1      26.626 -11.812  -5.718  0.00  0.00     0.182 A 
ATOM     29  H   UNL d   1      24.785 -11.124  -5.028  0.00  0.00     0.166 HD
ENDBRANCH  23  24
ENDBRANCH  22  23
ENDBRANCH  21  22
ENDBRANCH   4  21
TORSDOF 10
ENDMDL
MODEL 5
REMARK VINA RESULT:    -7.087      5.600      7.767
REMARK INTER + INTRA:         -11.122
REMARK INTER:                 -10.070
REMARK INTRA:                  -1.053
REMARK CONF_INDEPENDENT:        2.983
REMARK UNBOUND:                -1.053
REMARK  10 active torsions:
REMARK  status: ('A' for Active; 'I' for Inactive)
REMARK    1  A    between atoms: C_2  and  C_3 
REMARK       I    between atoms: C_2  and  N_13 
REMARK    2  A    between atoms: C_3  and  S_4 
REMARK    3  A    between atoms: S_4  and  C_5 
REMARK    4  A    between atoms: C_5  and  C_6 
REMARK    5  A    between atoms: C_6  and  C_7 
REMARK    6  A    between atoms: N_13  and  N_14 
REMARK       I    between atoms: N_14  and  C_15 
REMARK       I    between atoms: C_15  and  N_17 
REMARK    7  A    between atoms: N_17  and  C_18 
REMARK    8  A    between atoms: C_18  and  C_19 
REMARK    9  A    between atoms: C_19  and  C_20 
REMARK   10  A    between atoms: C_20  and  N_21 
ROOT
ATOM      1  N   UNL d   1      25.784 -15.827  -1.249  0.00  0.00    -0.249 N 
ATOM      2  C   UNL d   1      26.169 -15.261  -2.457  0.00  0.00     0.334 C 
ATOM      3  O   UNL d   1      27.153 -15.629  -3.099  0.00  0.00    -0.246 OA
ATOM      4  N   UNL d   1      25.348 -14.234  -2.884  0.00  0.00    -0.342 N 
ATOM      5  H   UNL d   1      24.971 -15.516  -0.739  0.00  0.00     0.192 HD
ATOM      6  H   UNL d   1      24.547 -13.991  -2.323  0.00  0.00     0.164 HD
ENDROOT
BRANCH   1   7
ATOM      7  N   UNL d   1      26.555 -16.882  -0.726  0.00  0.00    -0.265 N 
ATOM      8  C   UNL d   1      26.107 -18.008  -0.063  0.00  0.00     0.245 C 
ATOM      9  O   UNL d   1      26.958 -18.816   0.318  0.00  0.00    -0.271 OA
ATOM     10  H   UNL d   1      27.569 -16.812  -0.845  0.00  0.00     0.190 HD
BRANCH   8  11
ATOM     11  C   UNL d   1      24.596 -18.198   0.162  0.00  0.00     0.178 C 
BRANCH  11  12
ATOM     12  S   UNL d   1      23.682 -17.962  -1.418  0.00  0.00    -0.159 SA
BRANCH  12  13
ATOM     13  C   UNL d   1      21.933 -17.983  -0.895  0.00  0.00     0.079 C 
BRANCH  13  14
ATOM     14  C   UNL d   1      21.869 -18.576   0.525  0.00  0.00     0.049 C 
BRANCH  14  15
ATOM     15  C   UNL d   1      20.625 -19.396   0.782  0.00  0.00    -0.058 A 
ATOM     16  C   UNL d   1      19.808 -19.856  -0.259  0.00  0.00     0.007 A 
ATOM     17  C   UNL d   1      18.621 -20.535   0.024  0.00  0.00     0.001 A 
ATOM     18  C   UNL d   1      18.291 -20.848   1.341  0.00  0.00     0.000 A 
ATOM     19  C   UNL d   1      19.124 -20.444   2.380  0.00  0.00     0.001 A 
ATOM     20  C   UNL d   1      20.281 -19.719   2.103  0.00  0.00     0.007 A 
ENDBRANCH  14  15
ENDBRANCH  13  14
ENDBRANCH  12  13
ENDBRANCH  11  12
ENDBRANCH   8  11
ENDBRANCH   1   7
BRANCH   4  21
ATOM     21  C   UNL d   1      25.607 -13.535  -4.143  0.00  0.00     0.126 C 
BRANCH  21  22
ATOM     22  C   UNL d   1      26.768 -12.540  -4.056  0.00  0.00     0.040 C 
BRANCH  22  23
ATOM     23  C   UNL d   1      26.824 -11.589  -5.257  0.00  0.00     0.130 C 
BRANCH  23  24
ATOM     24  N   UNL d   1      25.900 -10.443  -5.105  0.00  0.00    -0.352 N 
ATOM     25  C   UNL d   1      25.172  -9.836  -6.129  0.00  0.00     0.108 A 
ATOM     26  C   UNL d   1      24.445  -8.828  -5.560  0.00  0.00     0.106 A 
ATOM     27  N   UNL d   1      24.760  -8.833  -4.225  0.00  0.00    -0.361 N 
ATOM     28  C   UNL d   1      25.656  -9.786  -3.957  0.00  0.00     0.182 A 
ATOM     29  H   UNL d   1      24.379  -8.197  -3.527  0.00  0.00     0.166 HD
ENDBRANCH  23  24
ENDBRANCH  22  23
ENDBRANCH  21  22
ENDBRANCH   4  21
TORSDOF 10
ENDMDL
MODEL 6
REMARK VINA RESULT:    -7.051      5.573      7.862
REMARK INTER + INTRA:         -11.210
REMARK INTER:                 -10.034
REMARK INTRA:                  -1.177
REMARK CONF_INDEPENDENT:        2.983
REMARK UNBOUND:                -1.177
REMARK  10 active torsions:
REMARK  status: ('A' for Active; 'I' for Inactive)
REMARK    1  A    between atoms: C_2  and  C_3 
REMARK       I    between atoms: C_2  and  N_13 
REMARK    2  A    between atoms: C_3  and  S_4 
REMARK    3  A    between atoms: S_4  and  C_5 
REMARK    4  A    between atoms: C_5  and  C_6 
REMARK    5  A    between atoms: C_6  and  C_7 
REMARK    6  A    between atoms: N_13  and  N_14 
REMARK       I    between atoms: N_14  and  C_15 
REMARK       I    between atoms: C_15  and  N_17 
REMARK    7  A    between atoms: N_17  and  C_18 
REMARK    8  A    between atoms: C_18  and  C_19 
REMARK    9  A    between atoms: C_19  and  C_20 
REMARK   10  A    between atoms: C_20  and  N_21 
ROOT
ATOM      1  N   UNL d   1      25.648 -15.850  -1.301  0.00  0.00    -0.249 N 
ATOM      2  C   UNL d   1      25.991 -15.442  -2.584  0.00  0.00     0.334 C 
ATOM      3  O   UNL d   1      26.944 -15.902  -3.213  0.00  0.00    -0.246 OA
ATOM      4  N   UNL d   1      25.165 -14.462  -3.101  0.00  0.00    -0.342 N 
ATOM      5  H   UNL d   1      24.860 -15.466  -0.802  0.00  0.00     0.192 HD
ATOM      6  H   UNL d   1      24.390 -14.139  -2.544  0.00  0.00     0.164 HD
ENDROOT
BRANCH   1   7
ATOM      7  N   UNL d   1      26.428 -16.846  -0.683  0.00  0.00    -0.265 N 
ATOM      8  C   UNL d   1      25.987 -17.931   0.048  0.00  0.00     0.245 C 
ATOM      9  O   UNL d   1      26.844 -18.689   0.509  0.00  0.00    -0.271 OA
ATOM     10  H   UNL d   1      27.443 -16.761  -0.781  0.00  0.00     0.190 HD
BRANCH   8  11
ATOM     11  C   UNL d   1      24.474 -18.140   0.248  0.00  0.00     0.178 C 
BRANCH  11  12
ATOM     12  S   UNL d   1      23.593 -17.989  -1.360  0.00  0.00    -0.159 SA
BRANCH  12  13
ATOM     13  C   UNL d   1      21.835 -18.138  -0.888  0.00  0.00     0.079 C 
BRANCH  13  14
ATOM     14  C   UNL d   1      21.775 -18.625   0.572  0.00  0.00     0.049 C 
BRANCH  14  15
ATOM     15  C   UNL d   1      20.549 -19.452   0.883  0.00  0.00    -0.058 A 
ATOM     16  C   UNL d   1      19.728 -19.976  -0.124  0.00  0.00     0.007 A 
ATOM     17  C   UNL d   1      18.556 -20.659   0.206  0.00  0.00     0.001 A 
ATOM     18  C   UNL d   1      18.246 -20.912   1.540  0.00  0.00     0.000 A 
ATOM     19  C   UNL d   1      19.083 -20.444   2.549  0.00  0.00     0.001 A 
ATOM     20  C   UNL d   1      20.224 -19.715   2.223  0.00  0.00     0.007 A 
ENDBRANCH  14  15
ENDBRANCH  13  14
ENDBRANCH  12  13
ENDBRANCH  11  12
ENDBRANCH   8  11
ENDBRANCH   1   7
BRANCH   4  21
ATOM     21  C   UNL d   1      25.381 -13.926  -4.446  0.00  0.00     0.126 C 
BRANCH  21  22
ATOM     22  C   UNL d   1      26.230 -12.652  -4.460  0.00  0.00     0.040 C 
BRANCH  22  23
ATOM     23  C   UNL d   1      27.711 -12.925  -4.170  0.00  0.00     0.130 C 
BRANCH  23  24
ATOM     24  N   UNL d   1      28.351 -13.726  -5.237  0.00  0.00    -0.352 N 
ATOM     25  C   UNL d   1      29.291 -14.740  -5.048  0.00  0.00     0.108 A 
ATOM     26  C   UNL d   1      29.615 -15.221  -6.286  0.00  0.00     0.106 A 
ATOM     27  N   UNL d   1      28.889 -14.483  -7.187  0.00  0.00    -0.361 N 
ATOM     28  C   UNL d   1      28.150 -13.566  -6.558  0.00  0.00     0.182 A 
ATOM     29  H   UNL d   1      28.909 -14.601  -8.198  0.00  0.00     0.166 HD
ENDBRANCH  23  24
ENDBRANCH  22  23
ENDBRANCH  21  22
ENDBRANCH   4  21
TORSDOF 10
ENDMDL
MODEL 7
REMARK VINA RESULT:    -6.853      5.337      7.500
REMARK INTER + INTRA:         -11.074
REMARK INTER:                  -9.836
REMARK INTRA:                  -1.238
REMARK CONF_INDEPENDENT:        2.983
REMARK UNBOUND:                -1.238
REMARK  10 active torsions:
REMARK  status: ('A' for Active; 'I' for Inactive)
REMARK    1  A    between atoms: C_2  and  C_3 
REMARK       I    between atoms: C_2  and  N_13 
REMARK    2  A    between atoms: C_3  and  S_4 
REMARK    3  A    between atoms: S_4  and  C_5 
REMARK    4  A    between atoms: C_5  and  C_6 
REMARK    5  A    between atoms: C_6  and  C_7 
REMARK    6  A    between atoms: N_13  and  N_14 
REMARK       I    between atoms: N_14  and  C_15 
REMARK       I    between atoms: C_15  and  N_17 
REMARK    7  A    between atoms: N_17  and  C_18 
REMARK    8  A    between atoms: C_18  and  C_19 
REMARK    9  A    between atoms: C_19  and  C_20 
REMARK   10  A    between atoms: C_20  and  N_21 
ROOT
ATOM      1  N   UNL d   1      27.097 -16.850  -1.441  0.00  0.00    -0.249 N 
ATOM      2  C   UNL d   1      28.245 -16.465  -2.122  0.00  0.00     0.334 C 
ATOM      3  O   UNL d   1      29.381 -16.583  -1.664  0.00  0.00    -0.246 OA
ATOM      4  N   UNL d   1      28.003 -15.926  -3.372  0.00  0.00    -0.342 N 
ATOM      5  H   UNL d   1      26.174 -16.750  -1.835  0.00  0.00     0.192 HD
ATOM      6  H   UNL d   1      27.051 -15.872  -3.699  0.00  0.00     0.164 HD
ENDROOT
BRANCH   1   7
ATOM      7  N   UNL d   1      27.235 -17.410  -0.158  0.00  0.00    -0.265 N 
ATOM      8  C   UNL d   1      26.319 -18.182   0.530  0.00  0.00     0.245 C 
ATOM      9  O   UNL d   1      26.641 -18.575   1.654  0.00  0.00    -0.271 OA
ATOM     10  H   UNL d   1      28.116 -17.227   0.331  0.00  0.00     0.190 HD
BRANCH   8  11
ATOM     11  C   UNL d   1      24.966 -18.510  -0.128  0.00  0.00     0.178 C 
BRANCH  11  12
ATOM     12  S   UNL d   1      24.179 -16.974  -0.766  0.00  0.00    -0.159 SA
BRANCH  12  13
ATOM     13  C   UNL d   1      22.407 -17.235  -0.411  0.00  0.00     0.079 C 
BRANCH  13  14
ATOM     14  C   UNL d   1      22.033 -18.654  -0.882  0.00  0.00     0.049 C 
BRANCH  14  15
ATOM     15  C   UNL d   1      20.845 -19.239  -0.152  0.00  0.00    -0.058 A 
ATOM     16  C   UNL d   1      20.799 -19.326   1.245  0.00  0.00     0.007 A 
ATOM     17  C   UNL d   1      19.723 -19.954   1.877  0.00  0.00     0.001 A 
ATOM     18  C   UNL d   1      18.640 -20.408   1.128  0.00  0.00     0.000 A 
ATOM     19  C   UNL d   1      18.650 -20.276  -0.258  0.00  0.00     0.001 A 
ATOM     20  C   UNL d   1      19.747 -19.699  -0.894  0.00  0.00     0.007 A 
ENDBRANCH  14  15
ENDBRANCH  13  14
ENDBRANCH  12  13
ENDBRANCH  11  12
ENDBRANCH   8  11
ENDBRANCH   1   7
BRANCH   4  21
ATOM     21  C   UNL d   1      29.103 -15.478  -4.227  0.00  0.00     0.126 C 
BRANCH  21  22
ATOM     22  C   UNL d   1      28.644 -15.033  -5.619  0.00  0.00     0.040 C 
BRANCH  22  23
ATOM     23  C   UNL d   1      28.193 -13.568  -5.653  0.00  0.00     0.130 C 
BRANCH  23  24
ATOM     24  N   UNL d   1      26.860 -13.380  -5.039  0.00  0.00    -0.352 N 
ATOM     25  C   UNL d   1      25.882 -14.364  -4.887  0.00  0.00     0.108 A 
ATOM     26  C   UNL d   1      24.814 -13.775  -4.270  0.00  0.00     0.106 A 
ATOM     27  N   UNL d   1      25.155 -12.459  -4.083  0.00  0.00    -0.361 N 
ATOM     28  C   UNL d   1      26.375 -12.216  -4.570  0.00  0.00     0.182 A 
ATOM     29  H   UNL d   1      24.567 -11.753  -3.645  0.00  0.00     0.166 HD
ENDBRANCH  23  24
ENDBRANCH  22  23
ENDBRANCH  21  22
ENDBRANCH   4  21
TORSDOF 10
ENDMDL
MODEL 8
REMARK VINA RESULT:    -6.700      3.232      4.522
REMARK INTER + INTRA:         -11.124
REMARK INTER:                  -9.683
REMARK INTRA:                  -1.441
REMARK CONF_INDEPENDENT:        2.983
REMARK UNBOUND:                -1.441
REMARK  10 active torsions:
REMARK  status: ('A' for Active; 'I' for Inactive)
REMARK    1  A    between atoms: C_2  and  C_3 
REMARK       I    between atoms: C_2  and  N_13 
REMARK    2  A    between atoms: C_3  and  S_4 
REMARK    3  A    between atoms: S_4  and  C_5 
REMARK    4  A    between atoms: C_5  and  C_6 
REMARK    5  A    between atoms: C_6  and  C_7 
REMARK    6  A    between atoms: N_13  and  N_14 
REMARK       I    between atoms: N_14  and  C_15 
REMARK       I    between atoms: C_15  and  N_17 
REMARK    7  A    between atoms: N_17  and  C_18 
REMARK    8  A    between atoms: C_18  and  C_19 
REMARK    9  A    between atoms: C_19  and  C_20 
REMARK   10  A    between atoms: C_20  and  N_21 
ROOT
ATOM      1  N   UNL d   1      27.994 -14.657   2.578  0.00  0.00    -0.249 N 
ATOM      2  C   UNL d   1      27.831 -14.299   3.910  0.00  0.00     0.334 C 
ATOM      3  O   UNL d   1      27.070 -13.409   4.289  0.00  0.00    -0.246 OA
ATOM      4  N   UNL d   1      28.608 -15.032   4.788  0.00  0.00    -0.342 N 
ATOM      5  H   UNL d   1      28.619 -15.393   2.287  0.00  0.00     0.192 HD
ATOM      6  H   UNL d   1      29.199 -15.761   4.418  0.00  0.00     0.164 HD
ENDROOT
BRANCH   1   7
ATOM      7  N   UNL d   1      27.247 -13.970   1.603  0.00  0.00    -0.265 N 
ATOM      8  C   UNL d   1      27.054 -14.322   0.282  0.00  0.00     0.245 C 
ATOM      9  O   UNL d   1      26.360 -13.573  -0.409  0.00  0.00    -0.271 OA
ATOM     10  H   UNL d   1      26.791 -13.103   1.901  0.00  0.00     0.190 HD
BRANCH   8  11
ATOM     11  C   UNL d   1      27.703 -15.612  -0.255  0.00  0.00     0.178 C 
BRANCH  11  12
ATOM     12  S   UNL d   1      26.868 -17.089   0.458  0.00  0.00    -0.159 SA
BRANCH  12  13
ATOM     13  C   UNL d   1      25.643 -17.533  -0.821  0.00  0.00     0.079 C 
BRANCH  13  14
ATOM     14  C   UNL d   1      24.777 -16.290  -1.101  0.00  0.00     0.049 C 
BRANCH  14  15
ATOM     15  C   UNL d   1      25.168 -15.553  -2.361  0.00  0.00    -0.058 A 
ATOM     16  C   UNL d   1      26.262 -15.944  -3.143  0.00  0.00     0.007 A 
ATOM     17  C   UNL d   1      26.644 -15.185  -4.251  0.00  0.00     0.001 A 
ATOM     18  C   UNL d   1      25.879 -14.089  -4.645  0.00  0.00     0.000 A 
ATOM     19  C   UNL d   1      24.757 -13.724  -3.907  0.00  0.00     0.001 A 
ATOM     20  C   UNL d   1      24.406 -14.448  -2.770  0.00  0.00     0.007 A 
ENDBRANCH  14  15
ENDBRANCH  13  14
ENDBRANCH  12  13
ENDBRANCH  11  12
ENDBRANCH   8  11
ENDBRANCH   1   7
BRANCH   4  21
ATOM     21  C   UNL d   1      28.551 -14.790   6.230  0.00  0.00     0.126 C 
BRANCH  21  22
ATOM     22  C   UNL d   1      29.573 -13.756   6.710  0.00  0.00     0.040 C 
BRANCH  22  23
ATOM     23  C   UNL d   1      30.143 -14.086   8.096  0.00  0.00     0.130 C 
BRANCH  23  24
ATOM     24  N   UNL d   1      29.160 -13.845   9.175  0.00  0.00    -0.352 N 
ATOM     25  C   UNL d   1      28.669 -12.600   9.573  0.00  0.00     0.108 A 
ATOM     26  C   UNL d   1      27.784 -12.825  10.589  0.00  0.00     0.106 A 
ATOM     27  N   UNL d   1      27.773 -14.182  10.797  0.00  0.00    -0.361 N 
ATOM     28  C   UNL d   1      28.621 -14.791   9.964  0.00  0.00     0.182 A 
ATOM     29  H   UNL d   1      27.210 -14.668  11.491  0.00  0.00     0.166 HD
ENDBRANCH  23  24
ENDBRANCH  22  23
ENDBRANCH  21  22
ENDBRANCH   4  21
TORSDOF 10
ENDMDL
MODEL 9
REMARK VINA RESULT:    -6.554      5.474      7.253
REMARK INTER + INTRA:         -11.059
REMARK INTER:                  -9.537
REMARK INTRA:                  -1.522
REMARK CONF_INDEPENDENT:        2.983
REMARK UNBOUND:                -1.522
REMARK  10 active torsions:
REMARK  status: ('A' for Active; 'I' for Inactive)
REMARK    1  A    between atoms: C_2  and  C_3 
REMARK       I    between atoms: C_2  and  N_13 
REMARK    2  A    between atoms: C_3  and  S_4 
REMARK    3  A    between atoms: S_4  and  C_5 
REMARK    4  A    between atoms: C_5  and  C_6 
REMARK    5  A    between atoms: C_6  and  C_7 
REMARK    6  A    between atoms: N_13  and  N_14 
REMARK       I    between atoms: N_14  and  C_15 
REMARK       I    between atoms: C_15  and  N_17 
REMARK    7  A    between atoms: N_17  and  C_18 
REMARK    8  A    between atoms: C_18  and  C_19 
REMARK    9  A    between atoms: C_19  and  C_20 
REMARK   10  A    between atoms: C_20  and  N_21 
ROOT
ATOM      1  N   UNL d   1      26.925 -13.494  -4.674  0.00  0.00    -0.249 N 
ATOM      2  C   UNL d   1      27.625 -14.544  -5.254  0.00  0.00     0.334 C 
ATOM      3  O   UNL d   1      27.083 -15.522  -5.770  0.00  0.00    -0.246 OA
ATOM      4  N   UNL d   1      28.999 -14.402  -5.199  0.00  0.00    -0.342 N 
ATOM      5  H   UNL d   1      27.386 -12.699  -4.260  0.00  0.00     0.192 HD
ATOM      6  H   UNL d   1      29.382 -13.570  -4.779  0.00  0.00     0.164 HD
ENDROOT
BRANCH   1   7
ATOM      7  N   UNL d   1      25.519 -13.542  -4.677  0.00  0.00    -0.265 N 
ATOM      8  C   UNL d   1      24.687 -13.990  -3.670  0.00  0.00     0.245 C 
ATOM      9  O   UNL d   1      23.472 -13.949  -3.879  0.00  0.00    -0.271 OA
ATOM     10  H   UNL d   1      25.050 -13.210  -5.524  0.00  0.00     0.190 HD
BRANCH   8  11
ATOM     11  C   UNL d   1      25.304 -14.509  -2.358  0.00  0.00     0.178 C 
BRANCH  11  12
ATOM     12  S   UNL d   1      26.385 -15.960  -2.693  0.00  0.00    -0.159 SA
BRANCH  12  13
ATOM     13  C   UNL d   1      26.624 -16.694  -1.038  0.00  0.00     0.079 C 
BRANCH  13  14
ATOM     14  C   UNL d   1      25.425 -16.286  -0.161  0.00  0.00     0.049 C 
BRANCH  14  15
ATOM     15  C   UNL d   1      24.205 -17.156  -0.363  0.00  0.00    -0.058 A 
ATOM     16  C   UNL d   1      24.258 -18.551  -0.244  0.00  0.00     0.007 A 
ATOM     17  C   UNL d   1      23.130 -19.325  -0.525  0.00  0.00     0.001 A 
ATOM     18  C   UNL d   1      21.917 -18.710  -0.829  0.00  0.00     0.000 A 
ATOM     19  C   UNL d   1      21.840 -17.322  -0.895  0.00  0.00     0.001 A 
ATOM     20  C   UNL d   1      22.978 -16.550  -0.669  0.00  0.00     0.007 A 
ENDBRANCH  14  15
ENDBRANCH  13  14
ENDBRANCH  12  13
ENDBRANCH  11  12
ENDBRANCH   8  11
ENDBRANCH   1   7
BRANCH   4  21
ATOM     21  C   UNL d   1      29.886 -15.416  -5.773  0.00  0.00     0.126 C 
BRANCH  21  22
ATOM     22  C   UNL d   1      29.899 -16.726  -4.981  0.00  0.00     0.040 C 
BRANCH  22  23
ATOM     23  C   UNL d   1      31.029 -16.780  -3.945  0.00  0.00     0.130 C 
BRANCH  23  24
ATOM     24  N   UNL d   1      30.519 -16.695  -2.558  0.00  0.00    -0.352 N 
ATOM     25  C   UNL d   1      30.110 -15.531  -1.906  0.00  0.00     0.108 A 
ATOM     26  C   UNL d   1      29.707 -15.895  -0.652  0.00  0.00     0.106 A 
ATOM     27  N   UNL d   1      29.898 -17.252  -0.566  0.00  0.00    -0.361 N 
ATOM     28  C   UNL d   1      30.412 -17.727  -1.703  0.00  0.00     0.182 A 
ATOM     29  H   UNL d   1      29.691 -17.826   0.249  0.00  0.00     0.166 HD
ENDBRANCH  23  24
ENDBRANCH  22  23
ENDBRANCH  21  22
ENDBRANCH   4  21
TORSDOF 10
ENDMDL
