MODEL 1
REMARK VINA RESULT:    -7.626      0.000      0.000
REMARK INTER + INTRA:         -11.288
REMARK INTER:                  -9.715
REMARK INTRA:                  -1.574
REMARK CONF_INDEPENDENT:        2.088
REMARK UNBOUND:                -1.574
REMARK  7 active torsions:
REMARK  status: ('A' for Active; 'I' for Inactive)
REMARK    1  A    between atoms: C_2  and  N_3 
REMARK       I    between atoms: N_3  and  C_4 
REMARK       I    between atoms: C_4  and  N_6 
REMARK    2  A    between atoms: N_6  and  N_7 
REMARK       I    between atoms: N_7  and  C_8 
REMARK    3  A    between atoms: C_8  and  C_10 
REMARK    4  A    between atoms: C_10  and  N_11 
REMARK       I    between atoms: N_11  and  C_12 
REMARK    5  A    between atoms: C_12  and  C_14 
REMARK    6  A    between atoms: C_17  and  O_18 
REMARK    7  A    between atoms: O_18  and  C_19 
ROOT
ATOM      1  N   UNL d   1      26.371 -16.596   0.403  0.00  0.00    -0.348 N 
ATOM      2  C   UNL d   1      25.402 -16.306  -0.547  0.00  0.00     0.252 C 
ATOM      3  O   UNL d   1      25.498 -15.370  -1.343  0.00  0.00    -0.268 OA
ATOM      4  H   UNL d   1      26.278 -17.421   0.987  0.00  0.00     0.163 HD
ENDROOT
BRANCH   1   5
ATOM      5  C   UNL d   1      27.614 -15.817   0.560  0.00  0.00     0.227 C 
BRANCH   5   6
ATOM      6  C   UNL d   1      27.457 -14.600   1.528  0.00  0.00     0.253 C 
ATOM      7  N   UNL d   1      27.939 -14.762   2.827  0.00  0.00    -0.265 N 
ATOM      8  H   UNL d   1      28.380 -15.613   3.175  0.00  0.00     0.190 HD
ATOM      9  O   UNL d   1      26.931 -13.546   1.154  0.00  0.00    -0.270 OA
BRANCH   7  10
ATOM     10  N   UNL d   1      27.830 -13.686   3.786  0.00  0.00    -0.249 N 
ATOM     11  C   UNL d   1      28.068 -13.935   5.133  0.00  0.00     0.334 C 
ATOM     12  N   UNL d   1      27.934 -12.833   5.964  0.00  0.00    -0.342 N 
ATOM     13  O   UNL d   1      28.374 -15.051   5.548  0.00  0.00    -0.246 OA
ATOM     14  H   UNL d   1      27.679 -11.938   5.576  0.00  0.00     0.164 HD
ATOM     15  H   UNL d   1      27.571 -12.777   3.415  0.00  0.00     0.192 HD
BRANCH  12  16
ATOM     16  C   UNL d   1      28.153 -12.932   7.410  0.00  0.00     0.120 C 
ATOM     17  C   UNL d   1      29.315 -12.088   7.927  0.00  0.00     0.026 C 
ENDBRANCH  12  16
ENDBRANCH   7  10
ENDBRANCH   5   6
ENDBRANCH   1   5
BRANCH   2  18
ATOM     18  C   UNL d   1      24.177 -17.167  -0.562  0.00  0.00     0.032 A 
ATOM     19  C   UNL d   1      24.229 -18.562  -0.402  0.00  0.00     0.020 A 
ATOM     20  C   UNL d   1      23.063 -19.347  -0.552  0.00  0.00     0.038 A 
ATOM     21  C   UNL d   1      21.824 -18.740  -0.778  0.00  0.00     0.069 A 
ATOM     22  C   UNL d   1      21.787 -17.350  -0.892  0.00  0.00     0.038 A 
ATOM     23  C   UNL d   1      22.948 -16.576  -0.836  0.00  0.00     0.020 A 
BRANCH  21  24
ATOM     24  O   UNL d   1      20.732 -19.570  -0.886  0.00  0.00    -0.347 OA
BRANCH  24  25
ATOM     25  C   UNL d   1      19.693 -19.444   0.105  0.00  0.00     0.120 C 
ATOM     26  C   UNL d   1      18.562 -20.448  -0.140  0.00  0.00     0.040 C 
ATOM     27  C   UNL d   1      20.275 -19.751   1.491  0.00  0.00     0.040 C 
ENDBRANCH  24  25
ENDBRANCH  21  24
ENDBRANCH   2  18
TORSDOF 7
ENDMDL
MODEL 2
REMARK VINA RESULT:    -7.583      1.583      2.142
REMARK INTER + INTRA:         -11.269
REMARK INTER:                  -9.672
REMARK INTRA:                  -1.597
REMARK CONF_INDEPENDENT:        2.088
REMARK UNBOUND:                -1.597
REMARK  7 active torsions:
REMARK  status: ('A' for Active; 'I' for Inactive)
REMARK    1  A    between atoms: C_2  and  N_3 
REMARK       I    between atoms: N_3  and  C_4 
REMARK       I    between atoms: C_4  and  N_6 
REMARK    2  A    between atoms: N_6  and  N_7 
REMARK       I    between atoms: N_7  and  C_8 
REMARK    3  A    between atoms: C_8  and  C_10 
REMARK    4  A    between atoms: C_10  and  N_11 
REMARK       I    between atoms: N_11  and  C_12 
REMARK    5  A    between atoms: C_12  and  C_14 
REMARK    6  A    between atoms: C_17  and  O_18 
REMARK    7  A    between atoms: O_18  and  C_19 
ROOT
ATOM      1  N   UNL d   1      26.058 -16.135  -1.699  0.00  0.00    -0.348 N 
ATOM      2  C   UNL d   1      25.769 -17.174  -0.827  0.00  0.00     0.252 C 
ATOM      3  O   UNL d   1      26.629 -17.759  -0.166  0.00  0.00    -0.268 OA
ATOM      4  H   UNL d   1      25.305 -15.638  -2.165  0.00  0.00     0.163 HD
ENDROOT
BRANCH   1   5
ATOM      5  C   UNL d   1      27.422 -15.621  -1.925  0.00  0.00     0.227 C 
BRANCH   5   6
ATOM      6  C   UNL d   1      28.317 -15.671  -0.645  0.00  0.00     0.253 C 
ATOM      7  N   UNL d   1      27.753 -15.192   0.538  0.00  0.00    -0.265 N 
ATOM      8  H   UNL d   1      26.807 -14.819   0.613  0.00  0.00     0.190 HD
ATOM      9  O   UNL d   1      29.468 -16.117  -0.684  0.00  0.00    -0.270 OA
BRANCH   7  10
ATOM     10  N   UNL d   1      28.514 -15.201   1.766  0.00  0.00    -0.249 N 
ATOM     11  C   UNL d   1      28.067 -14.470   2.861  0.00  0.00     0.334 C 
ATOM     12  N   UNL d   1      28.874 -14.548   3.985  0.00  0.00    -0.342 N 
ATOM     13  O   UNL d   1      27.031 -13.808   2.826  0.00  0.00    -0.246 OA
ATOM     14  H   UNL d   1      29.715 -15.104   3.964  0.00  0.00     0.164 HD
ATOM     15  H   UNL d   1      29.366 -15.753   1.764  0.00  0.00     0.192 HD
BRANCH  12  16
ATOM     16  C   UNL d   1      28.538 -13.835   5.221  0.00  0.00     0.120 C 
ATOM     17  C   UNL d   1      29.706 -13.678   6.192  0.00  0.00     0.026 C 
ENDBRANCH  12  16
ENDBRANCH   7  10
ENDBRANCH   5   6
ENDBRANCH   1   5
BRANCH   2  18
ATOM     18  C   UNL d   1      24.339 -17.609  -0.729  0.00  0.00     0.032 A 
ATOM     19  C   UNL d   1      23.966 -18.948  -0.521  0.00  0.00     0.020 A 
ATOM     20  C   UNL d   1      22.606 -19.331  -0.564  0.00  0.00     0.038 A 
ATOM     21  C   UNL d   1      21.604 -18.370  -0.730  0.00  0.00     0.069 A 
ATOM     22  C   UNL d   1      21.993 -17.040  -0.894  0.00  0.00     0.038 A 
ATOM     23  C   UNL d   1      23.338 -16.667  -0.944  0.00  0.00     0.020 A 
BRANCH  21  24
ATOM     24  O   UNL d   1      20.303 -18.818  -0.735  0.00  0.00    -0.347 OA
BRANCH  24  25
ATOM     25  C   UNL d   1      19.988 -19.971   0.070  0.00  0.00     0.120 C 
ATOM     26  C   UNL d   1      20.187 -19.683   1.562  0.00  0.00     0.040 C 
ATOM     27  C   UNL d   1      18.511 -20.336  -0.124  0.00  0.00     0.040 C 
ENDBRANCH  24  25
ENDBRANCH  21  24
ENDBRANCH   2  18
TORSDOF 7
ENDMDL
MODEL 3
REMARK VINA RESULT:    -7.380      5.286      9.571
REMARK INTER + INTRA:         -11.288
REMARK INTER:                  -9.468
REMARK INTRA:                  -1.820
REMARK CONF_INDEPENDENT:        2.088
REMARK UNBOUND:                -1.820
REMARK  7 active torsions:
REMARK  status: ('A' for Active; 'I' for Inactive)
REMARK    1  A    between atoms: C_2  and  N_3 
REMARK       I    between atoms: N_3  and  C_4 
REMARK       I    between atoms: C_4  and  N_6 
REMARK    2  A    between atoms: N_6  and  N_7 
REMARK       I    between atoms: N_7  and  C_8 
REMARK    3  A    between atoms: C_8  and  C_10 
REMARK    4  A    between atoms: C_10  and  N_11 
REMARK       I    between atoms: N_11  and  C_12 
REMARK    5  A    between atoms: C_12  and  C_14 
REMARK    6  A    between atoms: C_17  and  O_18 
REMARK    7  A    between atoms: O_18  and  C_19 
ROOT
ATOM      1  N   UNL d   1      25.348 -15.899  -2.352  0.00  0.00    -0.348 N 
ATOM      2  C   UNL d   1      25.611 -15.082  -3.442  0.00  0.00     0.252 C 
ATOM      3  O   UNL d   1      24.784 -14.299  -3.913  0.00  0.00    -0.268 OA
ATOM      4  H   UNL d   1      26.087 -16.473  -1.958  0.00  0.00     0.163 HD
ENDROOT
BRANCH   1   5
ATOM      5  C   UNL d   1      24.055 -15.917  -1.643  0.00  0.00     0.227 C 
BRANCH   5   6
ATOM      6  C   UNL d   1      23.772 -17.272  -0.918  0.00  0.00     0.253 C 
ATOM      7  N   UNL d   1      22.435 -17.648  -0.784  0.00  0.00    -0.265 N 
ATOM      8  H   UNL d   1      21.646 -17.100  -1.128  0.00  0.00     0.190 HD
ATOM      9  O   UNL d   1      24.693 -17.973  -0.486  0.00  0.00    -0.270 OA
BRANCH   7  10
ATOM     10  N   UNL d   1      22.087 -18.885  -0.123  0.00  0.00    -0.249 N 
ATOM     11  C   UNL d   1      20.769 -19.328  -0.136  0.00  0.00     0.334 C 
ATOM     12  N   UNL d   1      20.547 -20.523   0.529  0.00  0.00    -0.342 N 
ATOM     13  O   UNL d   1      19.874 -18.700  -0.698  0.00  0.00    -0.246 OA
ATOM     14  H   UNL d   1      21.314 -21.001   0.977  0.00  0.00     0.164 HD
ATOM     15  H   UNL d   1      22.845 -19.380   0.336  0.00  0.00     0.192 HD
BRANCH  12  16
ATOM     16  C   UNL d   1      19.211 -21.122   0.605  0.00  0.00     0.120 C 
ATOM     17  C   UNL d   1      18.398 -20.689   1.823  0.00  0.00     0.026 C 
ENDBRANCH  12  16
ENDBRANCH   7  10
ENDBRANCH   5   6
ENDBRANCH   1   5
BRANCH   2  18
ATOM     18  C   UNL d   1      26.961 -15.200  -4.078  0.00  0.00     0.032 A 
ATOM     19  C   UNL d   1      27.205 -14.835  -5.414  0.00  0.00     0.020 A 
ATOM     20  C   UNL d   1      28.462 -15.085  -6.010  0.00  0.00     0.038 A 
ATOM     21  C   UNL d   1      29.510 -15.622  -5.255  0.00  0.00     0.069 A 
ATOM     22  C   UNL d   1      29.260 -15.940  -3.920  0.00  0.00     0.038 A 
ATOM     23  C   UNL d   1      27.994 -15.780  -3.350  0.00  0.00     0.020 A 
BRANCH  21  24
ATOM     24  O   UNL d   1      30.711 -15.812  -5.900  0.00  0.00    -0.347 OA
BRANCH  24  25
ATOM     25  C   UNL d   1      30.781 -16.853  -6.894  0.00  0.00     0.120 C 
ATOM     26  C   UNL d   1      32.084 -16.772  -7.697  0.00  0.00     0.040 C 
ATOM     27  C   UNL d   1      30.765 -18.220  -6.198  0.00  0.00     0.040 C 
ENDBRANCH  24  25
ENDBRANCH  21  24
ENDBRANCH   2  18
TORSDOF 7
ENDMDL
MODEL 4
REMARK VINA RESULT:    -7.009      5.053      7.570
REMARK INTER + INTRA:         -11.020
REMARK INTER:                  -9.097
REMARK INTRA:                  -1.923
REMARK CONF_INDEPENDENT:        2.088
REMARK UNBOUND:                -1.923
REMARK  7 active torsions:
REMARK  status: ('A' for Active; 'I' for Inactive)
REMARK    1  A    between atoms: C_2  and  N_3 
REMARK       I    between atoms: N_3  and  C_4 
REMARK       I    between atoms: C_4  and  N_6 
REMARK    2  A    between atoms: N_6  and  N_7 
REMARK       I    between atoms: N_7  and  C_8 
REMARK    3  A    between atoms: C_8  and  C_10 
REMARK    4  A    between atoms: C_10  and  N_11 
REMARK       I    between atoms: N_11  and  C_12 
REMARK    5  A    between atoms: C_12  and  C_14 
REMARK    6  A    between atoms: C_17  and  O_18 
REMARK    7  A    between atoms: O_18  and  C_19 
ROOT
ATOM      1  N   UNL d   1      26.171 -16.196  -2.469  0.00  0.00    -0.348 N 
ATOM      2  C   UNL d   1      25.910 -16.734  -1.217  0.00  0.00     0.252 C 
ATOM      3  O   UNL d   1      26.768 -16.852  -0.341  0.00  0.00    -0.268 OA
ATOM      4  H   UNL d   1      25.412 -16.055  -3.128  0.00  0.00     0.163 HD
ENDROOT
BRANCH   1   5
ATOM      5  C   UNL d   1      27.500 -15.709  -2.882  0.00  0.00     0.227 C 
BRANCH   5   6
ATOM      6  C   UNL d   1      27.576 -15.347  -4.400  0.00  0.00     0.253 C 
ATOM      7  N   UNL d   1      28.761 -14.763  -4.850  0.00  0.00    -0.265 N 
ATOM      8  H   UNL d   1      29.565 -14.563  -4.257  0.00  0.00     0.190 HD
ATOM      9  O   UNL d   1      26.630 -15.572  -5.162  0.00  0.00    -0.270 OA
BRANCH   7  10
ATOM     10  N   UNL d   1      28.912 -14.396  -6.240  0.00  0.00    -0.249 N 
ATOM     11  C   UNL d   1      30.085 -13.786  -6.669  0.00  0.00     0.334 C 
ATOM     12  N   UNL d   1      30.122 -13.475  -8.019  0.00  0.00    -0.342 N 
ATOM     13  O   UNL d   1      31.015 -13.545  -5.902  0.00  0.00    -0.246 OA
ATOM     14  H   UNL d   1      29.333 -13.691  -8.609  0.00  0.00     0.164 HD
ATOM     15  H   UNL d   1      28.126 -14.603  -6.848  0.00  0.00     0.192 HD
BRANCH  12  16
ATOM     16  C   UNL d   1      31.291 -12.831  -8.626  0.00  0.00     0.120 C 
ATOM     17  C   UNL d   1      32.585 -13.633  -8.502  0.00  0.00     0.026 C 
ENDBRANCH  12  16
ENDBRANCH   7  10
ENDBRANCH   5   6
ENDBRANCH   1   5
BRANCH   2  18
ATOM     18  C   UNL d   1      24.517 -17.218  -0.956  0.00  0.00     0.032 A 
ATOM     19  C   UNL d   1      24.223 -18.562  -0.665  0.00  0.00     0.020 A 
ATOM     20  C   UNL d   1      22.882 -18.997  -0.554  0.00  0.00     0.038 A 
ATOM     21  C   UNL d   1      21.829 -18.081  -0.646  0.00  0.00     0.069 A 
ATOM     22  C   UNL d   1      22.145 -16.744  -0.894  0.00  0.00     0.038 A 
ATOM     23  C   UNL d   1      23.461 -16.323  -1.096  0.00  0.00     0.020 A 
BRANCH  21  24
ATOM     24  O   UNL d   1      20.555 -18.578  -0.500  0.00  0.00    -0.347 OA
BRANCH  24  25
ATOM     25  C   UNL d   1      20.383 -19.754   0.313  0.00  0.00     0.120 C 
ATOM     26  C   UNL d   1      20.277 -19.396   1.799  0.00  0.00     0.040 C 
ATOM     27  C   UNL d   1      19.073 -20.452  -0.076  0.00  0.00     0.040 C 
ENDBRANCH  24  25
ENDBRANCH  21  24
ENDBRANCH   2  18
TORSDOF 7
ENDMDL
MODEL 5
REMARK VINA RESULT:    -6.820      5.106      7.459
REMARK INTER + INTRA:         -10.745
REMARK INTER:                  -8.908
REMARK INTRA:                  -1.836
REMARK CONF_INDEPENDENT:        2.088
REMARK UNBOUND:                -1.836
REMARK  7 active torsions:
REMARK  status: ('A' for Active; 'I' for Inactive)
REMARK    1  A    between atoms: C_2  and  N_3 
REMARK       I    between atoms: N_3  and  C_4 
REMARK       I    between atoms: C_4  and  N_6 
REMARK    2  A    between atoms: N_6  and  N_7 
REMARK       I    between atoms: N_7  and  C_8 
REMARK    3  A    between atoms: C_8  and  C_10 
REMARK    4  A    between atoms: C_10  and  N_11 
REMARK       I    between atoms: N_11  and  C_12 
REMARK    5  A    between atoms: C_12  and  C_14 
REMARK    6  A    between atoms: C_17  and  O_18 
REMARK    7  A    between atoms: O_18  and  C_19 
ROOT
ATOM      1  N   UNL d   1      25.130 -15.658  -2.469  0.00  0.00    -0.348 N 
ATOM      2  C   UNL d   1      25.141 -16.158  -1.175  0.00  0.00     0.252 C 
ATOM      3  O   UNL d   1      25.972 -15.823  -0.329  0.00  0.00    -0.268 OA
ATOM      4  H   UNL d   1      24.381 -15.912  -3.105  0.00  0.00     0.163 HD
ENDROOT
BRANCH   1   5
ATOM      5  C   UNL d   1      26.108 -14.673  -2.967  0.00  0.00     0.227 C 
BRANCH   5   6
ATOM      6  C   UNL d   1      25.535 -13.753  -4.093  0.00  0.00     0.253 C 
ATOM      7  N   UNL d   1      26.293 -12.635  -4.440  0.00  0.00    -0.265 N 
ATOM      8  H   UNL d   1      27.184 -12.388  -4.010  0.00  0.00     0.190 HD
ATOM      9  O   UNL d   1      24.461 -14.011  -4.646  0.00  0.00    -0.270 OA
BRANCH   7  10
ATOM     10  N   UNL d   1      25.832 -11.731  -5.470  0.00  0.00    -0.249 N 
ATOM     11  C   UNL d   1      26.722 -10.834  -6.050  0.00  0.00     0.334 C 
ATOM     12  N   UNL d   1      26.174 -10.015  -7.025  0.00  0.00    -0.342 N 
ATOM     13  O   UNL d   1      27.905 -10.780  -5.719  0.00  0.00    -0.246 OA
ATOM     14  H   UNL d   1      25.198 -10.097  -7.261  0.00  0.00     0.164 HD
ATOM     15  H   UNL d   1      24.851 -11.797  -5.720  0.00  0.00     0.192 HD
BRANCH  12  16
ATOM     16  C   UNL d   1      26.983  -9.017  -7.731  0.00  0.00     0.120 C 
ATOM     17  C   UNL d   1      26.841  -9.056  -9.251  0.00  0.00     0.026 C 
ENDBRANCH  12  16
ENDBRANCH   7  10
ENDBRANCH   5   6
ENDBRANCH   1   5
BRANCH   2  18
ATOM     18  C   UNL d   1      24.103 -17.180  -0.826  0.00  0.00     0.032 A 
ATOM     19  C   UNL d   1      24.424 -18.514  -0.524  0.00  0.00     0.020 A 
ATOM     20  C   UNL d   1      23.403 -19.473  -0.328  0.00  0.00     0.038 A 
ATOM     21  C   UNL d   1      22.058 -19.090  -0.348  0.00  0.00     0.069 A 
ATOM     22  C   UNL d   1      21.762 -17.752  -0.609  0.00  0.00     0.038 A 
ATOM     23  C   UNL d   1      22.761 -16.819  -0.894  0.00  0.00     0.020 A 
BRANCH  21  24
ATOM     24  O   UNL d   1      21.125 -20.076  -0.122  0.00  0.00    -0.347 OA
BRANCH  24  25
ATOM     25  C   UNL d   1      19.938 -19.720   0.614  0.00  0.00     0.120 C 
ATOM     26  C   UNL d   1      18.851 -20.791   0.475  0.00  0.00     0.040 C 
ATOM     27  C   UNL d   1      20.280 -19.617   2.107  0.00  0.00     0.040 C 
ENDBRANCH  24  25
ENDBRANCH  21  24
ENDBRANCH   2  18
TORSDOF 7
ENDMDL
MODEL 6
REMARK VINA RESULT:    -6.764      2.589      3.638
REMARK INTER + INTRA:         -11.082
REMARK INTER:                  -8.853
REMARK INTRA:                  -2.230
REMARK CONF_INDEPENDENT:        2.088
REMARK UNBOUND:                -2.230
REMARK  7 active torsions:
REMARK  status: ('A' for Active; 'I' for Inactive)
REMARK    1  A    between atoms: C_2  and  N_3 
REMARK       I    between atoms: N_3  and  C_4 
REMARK       I    between atoms: C_4  and  N_6 
REMARK    2  A    between atoms: N_6  and  N_7 
REMARK       I    between atoms: N_7  and  C_8 
REMARK    3  A    between atoms: C_8  and  C_10 
REMARK    4  A    between atoms: C_10  and  N_11 
REMARK       I    between atoms: N_11  and  C_12 
REMARK    5  A    between atoms: C_12  and  C_14 
REMARK    6  A    between atoms: C_17  and  O_18 
REMARK    7  A    between atoms: O_18  and  C_19 
ROOT
ATOM      1  N   UNL d   1      30.209 -16.822   0.217  0.00  0.00    -0.348 N 
ATOM      2  C   UNL d   1      29.127 -15.971   0.040  0.00  0.00     0.252 C 
ATOM      3  O   UNL d   1      29.231 -14.744   0.015  0.00  0.00    -0.268 OA
ATOM      4  H   UNL d   1      30.079 -17.826   0.157  0.00  0.00     0.163 HD
ENDROOT
BRANCH   1   5
ATOM      5  C   UNL d   1      31.594 -16.347   0.393  0.00  0.00     0.227 C 
BRANCH   5   6
ATOM      6  C   UNL d   1      31.855 -15.725   1.803  0.00  0.00     0.253 C 
ATOM      7  N   UNL d   1      30.750 -15.200   2.474  0.00  0.00    -0.265 N 
ATOM      8  H   UNL d   1      29.800 -15.200   2.105  0.00  0.00     0.190 HD
ATOM      9  O   UNL d   1      32.988 -15.704   2.295  0.00  0.00    -0.270 OA
BRANCH   7  10
ATOM     10  N   UNL d   1      30.906 -14.604   3.781  0.00  0.00    -0.249 N 
ATOM     11  C   UNL d   1      29.782 -14.334   4.555  0.00  0.00     0.334 C 
ATOM     12  N   UNL d   1      30.046 -13.761   5.789  0.00  0.00    -0.342 N 
ATOM     13  O   UNL d   1      28.644 -14.588   4.166  0.00  0.00    -0.246 OA
ATOM     14  H   UNL d   1      30.998 -13.570   6.063  0.00  0.00     0.164 HD
ATOM     15  H   UNL d   1      31.856 -14.402   4.074  0.00  0.00     0.192 HD
BRANCH  12  16
ATOM     16  C   UNL d   1      28.968 -13.418   6.721  0.00  0.00     0.120 C 
ATOM     17  C   UNL d   1      27.998 -12.361   6.196  0.00  0.00     0.026 C 
ENDBRANCH  12  16
ENDBRANCH   7  10
ENDBRANCH   5   6
ENDBRANCH   1   5
BRANCH   2  18
ATOM     18  C   UNL d   1      27.775 -16.600  -0.091  0.00  0.00     0.032 A 
ATOM     19  C   UNL d   1      27.408 -17.763   0.609  0.00  0.00     0.020 A 
ATOM     20  C   UNL d   1      26.168 -18.394   0.357  0.00  0.00     0.038 A 
ATOM     21  C   UNL d   1      25.251 -17.824  -0.532  0.00  0.00     0.069 A 
ATOM     22  C   UNL d   1      25.617 -16.647  -1.186  0.00  0.00     0.038 A 
ATOM     23  C   UNL d   1      26.876 -16.069  -1.010  0.00  0.00     0.020 A 
BRANCH  21  24
ATOM     24  O   UNL d   1      24.056 -18.484  -0.704  0.00  0.00    -0.347 OA
BRANCH  24  25
ATOM     25  C   UNL d   1      22.888 -17.936  -0.062  0.00  0.00     0.120 C 
ATOM     26  C   UNL d   1      22.620 -16.499  -0.523  0.00  0.00     0.040 C 
ATOM     27  C   UNL d   1      21.659 -18.769  -0.447  0.00  0.00     0.040 C 
ENDBRANCH  24  25
ENDBRANCH  21  24
ENDBRANCH   2  18
TORSDOF 7
ENDMDL
MODEL 7
REMARK VINA RESULT:    -6.686      5.168      7.031
REMARK INTER + INTRA:         -11.062
REMARK INTER:                  -8.775
REMARK INTRA:                  -2.287
REMARK CONF_INDEPENDENT:        2.088
REMARK UNBOUND:                -2.287
REMARK  7 active torsions:
REMARK  status: ('A' for Active; 'I' for Inactive)
REMARK    1  A    between atoms: C_2  and  N_3 
REMARK       I    between atoms: N_3  and  C_4 
REMARK       I    between atoms: C_4  and  N_6 
REMARK    2  A    between atoms: N_6  and  N_7 
REMARK       I    between atoms: N_7  and  C_8 
REMARK    3  A    between atoms: C_8  and  C_10 
REMARK    4  A    between atoms: C_10  and  N_11 
REMARK       I    between atoms: N_11  and  C_12 
REMARK    5  A    between atoms: C_12  and  C_14 
REMARK    6  A    between atoms: C_17  and  O_18 
REMARK    7  A    between atoms: O_18  and  C_19 
ROOT
ATOM      1  N   UNL d   1      25.577 -14.985  -3.044  0.00  0.00    -0.348 N 
ATOM      2  C   UNL d   1      25.917 -15.962  -2.119  0.00  0.00     0.252 C 
ATOM      3  O   UNL d   1      27.082 -16.280  -1.871  0.00  0.00    -0.268 OA
ATOM      4  H   UNL d   1      24.607 -14.711  -3.158  0.00  0.00     0.163 HD
ENDROOT
BRANCH   1   5
ATOM      5  C   UNL d   1      26.572 -14.226  -3.826  0.00  0.00     0.227 C 
BRANCH   5   6
ATOM      6  C   UNL d   1      27.409 -15.126  -4.791  0.00  0.00     0.253 C 
ATOM      7  N   UNL d   1      28.462 -15.847  -4.226  0.00  0.00    -0.265 N 
ATOM      8  H   UNL d   1      28.710 -15.822  -3.237  0.00  0.00     0.190 HD
ATOM      9  O   UNL d   1      27.146 -15.192  -5.996  0.00  0.00    -0.270 OA
BRANCH   7  10
ATOM     10  N   UNL d   1      29.287 -16.701  -5.050  0.00  0.00    -0.249 N 
ATOM     11  C   UNL d   1      30.091 -17.667  -4.454  0.00  0.00     0.334 C 
ATOM     12  N   UNL d   1      30.842 -18.427  -5.337  0.00  0.00    -0.342 N 
ATOM     13  O   UNL d   1      30.126 -17.828  -3.236  0.00  0.00    -0.246 OA
ATOM     14  H   UNL d   1      30.780 -18.256  -6.329  0.00  0.00     0.164 HD
ATOM     15  H   UNL d   1      29.241 -16.542  -6.051  0.00  0.00     0.192 HD
BRANCH  12  16
ATOM     16  C   UNL d   1      31.738 -19.487  -4.866  0.00  0.00     0.120 C 
ATOM     17  C   UNL d   1      31.060 -20.842  -4.673  0.00  0.00     0.026 C 
ENDBRANCH  12  16
ENDBRANCH   7  10
ENDBRANCH   5   6
ENDBRANCH   1   5
BRANCH   2  18
ATOM     18  C   UNL d   1      24.795 -16.672  -1.428  0.00  0.00     0.032 A 
ATOM     19  C   UNL d   1      23.514 -16.108  -1.286  0.00  0.00     0.020 A 
ATOM     20  C   UNL d   1      22.524 -16.758  -0.515  0.00  0.00     0.038 A 
ATOM     21  C   UNL d   1      22.775 -18.013   0.050  0.00  0.00     0.069 A 
ATOM     22  C   UNL d   1      24.039 -18.574  -0.137  0.00  0.00     0.038 A 
ATOM     23  C   UNL d   1      25.051 -17.897  -0.820  0.00  0.00     0.020 A 
BRANCH  21  24
ATOM     24  O   UNL d   1      21.752 -18.592   0.764  0.00  0.00    -0.347 OA
BRANCH  24  25
ATOM     25  C   UNL d   1      20.968 -19.609   0.109  0.00  0.00     0.120 C 
ATOM     26  C   UNL d   1      20.100 -20.378   1.111  0.00  0.00     0.040 C 
ATOM     27  C   UNL d   1      20.016 -18.946  -0.895  0.00  0.00     0.040 C 
ENDBRANCH  24  25
ENDBRANCH  21  24
ENDBRANCH   2  18
TORSDOF 7
ENDMDL
MODEL 8
REMARK VINA RESULT:    -6.502      4.552      8.741
REMARK INTER + INTRA:         -10.837
REMARK INTER:                  -8.590
REMARK INTRA:                  -2.247
REMARK CONF_INDEPENDENT:        2.088
REMARK UNBOUND:                -2.247
REMARK  7 active torsions:
REMARK  status: ('A' for Active; 'I' for Inactive)
REMARK    1  A    between atoms: C_2  and  N_3 
REMARK       I    between atoms: N_3  and  C_4 
REMARK       I    between atoms: C_4  and  N_6 
REMARK    2  A    between atoms: N_6  and  N_7 
REMARK       I    between atoms: N_7  and  C_8 
REMARK    3  A    between atoms: C_8  and  C_10 
REMARK    4  A    between atoms: C_10  and  N_11 
REMARK       I    between atoms: N_11  and  C_12 
REMARK    5  A    between atoms: C_12  and  C_14 
REMARK    6  A    between atoms: C_17  and  O_18 
REMARK    7  A    between atoms: O_18  and  C_19 
ROOT
ATOM      1  N   UNL d   1      26.995 -16.387  -1.262  0.00  0.00    -0.348 N 
ATOM      2  C   UNL d   1      25.989 -16.082  -2.168  0.00  0.00     0.252 C 
ATOM      3  O   UNL d   1      25.159 -16.905  -2.556  0.00  0.00    -0.268 OA
ATOM      4  H   UNL d   1      27.609 -15.655  -0.920  0.00  0.00     0.163 HD
ENDROOT
BRANCH   1   5
ATOM      5  C   UNL d   1      27.175 -17.726  -0.670  0.00  0.00     0.227 C 
BRANCH   5   6
ATOM      6  C   UNL d   1      25.939 -18.200   0.162  0.00  0.00     0.253 C 
ATOM      7  N   UNL d   1      24.743 -18.379  -0.533  0.00  0.00    -0.265 N 
ATOM      8  H   UNL d   1      24.631 -18.222  -1.535  0.00  0.00     0.190 HD
ATOM      9  O   UNL d   1      26.024 -18.406   1.377  0.00  0.00    -0.270 OA
BRANCH   7  10
ATOM     10  N   UNL d   1      23.552 -18.812   0.162  0.00  0.00    -0.249 N 
ATOM     11  C   UNL d   1      22.385 -19.054  -0.554  0.00  0.00     0.334 C 
ATOM     12  N   UNL d   1      21.304 -19.463   0.212  0.00  0.00    -0.342 N 
ATOM     13  O   UNL d   1      22.325 -18.915  -1.774  0.00  0.00    -0.246 OA
ATOM     14  H   UNL d   1      21.402 -19.562   1.210  0.00  0.00     0.164 HD
ATOM     15  H   UNL d   1      23.631 -18.914   1.168  0.00  0.00     0.192 HD
BRANCH  12  16
ATOM     16  C   UNL d   1      20.003 -19.759  -0.395  0.00  0.00     0.120 C 
ATOM     17  C   UNL d   1      18.956 -20.279   0.588  0.00  0.00     0.026 C 
ENDBRANCH  12  16
ENDBRANCH   7  10
ENDBRANCH   5   6
ENDBRANCH   1   5
BRANCH   2  18
ATOM     18  C   UNL d   1      25.956 -14.686  -2.710  0.00  0.00     0.032 A 
ATOM     19  C   UNL d   1      26.502 -13.591  -2.018  0.00  0.00     0.020 A 
ATOM     20  C   UNL d   1      26.333 -12.275  -2.507  0.00  0.00     0.038 A 
ATOM     21  C   UNL d   1      25.693 -12.049  -3.729  0.00  0.00     0.069 A 
ATOM     22  C   UNL d   1      25.193 -13.154  -4.420  0.00  0.00     0.038 A 
ATOM     23  C   UNL d   1      25.276 -14.447  -3.900  0.00  0.00     0.020 A 
BRANCH  21  24
ATOM     24  O   UNL d   1      25.591 -10.743  -4.149  0.00  0.00    -0.347 OA
BRANCH  24  25
ATOM     25  C   UNL d   1      25.535 -10.497  -5.568  0.00  0.00     0.120 C 
ATOM     26  C   UNL d   1      25.494  -8.997  -5.874  0.00  0.00     0.040 C 
ATOM     27  C   UNL d   1      26.802 -11.057  -6.228  0.00  0.00     0.040 C 
ENDBRANCH  24  25
ENDBRANCH  21  24
ENDBRANCH   2  18
TORSDOF 7
ENDMDL
MODEL 9
REMARK VINA RESULT:    -6.426      3.884      6.806
REMARK INTER + INTRA:         -10.826
REMARK INTER:                  -8.514
REMARK INTRA:                  -2.311
REMARK CONF_INDEPENDENT:        2.088
REMARK UNBOUND:                -2.311
REMARK  7 active torsions:
REMARK  status: ('A' for Active; 'I' for Inactive)
REMARK    1  A    between atoms: C_2  and  N_3 
REMARK       I    between atoms: N_3  and  C_4 
REMARK       I    between atoms: C_4  and  N_6 
REMARK    2  A    between atoms: N_6  and  N_7 
REMARK       I    between atoms: N_7  and  C_8 
REMARK    3  A    between atoms: C_8  and  C_10 
REMARK    4  A    between atoms: C_10  and  N_11 
REMARK       I    between atoms: N_11  and  C_12 
REMARK    5  A    between atoms: C_12  and  C_14 
REMARK    6  A    between atoms: C_17  and  O_18 
REMARK    7  A    between atoms: O_18  and  C_19 
ROOT
ATOM      1  N   UNL d   1      26.826 -16.851   0.109  0.00  0.00    -0.348 N 
ATOM      2  C   UNL d   1      26.009 -16.776  -1.010  0.00  0.00     0.252 C 
ATOM      3  O   UNL d   1      26.386 -16.318  -2.090  0.00  0.00    -0.268 OA
ATOM      4  H   UNL d   1      26.490 -17.304   0.953  0.00  0.00     0.163 HD
ENDROOT
BRANCH   1   5
ATOM      5  C   UNL d   1      28.228 -16.393   0.124  0.00  0.00     0.227 C 
BRANCH   5   6
ATOM      6  C   UNL d   1      29.134 -17.157  -0.895  0.00  0.00     0.253 C 
ATOM      7  N   UNL d   1      29.024 -16.789  -2.236  0.00  0.00    -0.265 N 
ATOM      8  H   UNL d   1      28.398 -16.063  -2.584  0.00  0.00     0.190 HD
ATOM      9  O   UNL d   1      29.910 -18.044  -0.524  0.00  0.00    -0.270 OA
BRANCH   7  10
ATOM     10  N   UNL d   1      29.824 -17.449  -3.243  0.00  0.00    -0.249 N 
ATOM     11  C   UNL d   1      29.768 -17.014  -4.563  0.00  0.00     0.334 C 
ATOM     12  N   UNL d   1      30.574 -17.718  -5.444  0.00  0.00    -0.342 N 
ATOM     13  O   UNL d   1      29.057 -16.075  -4.913  0.00  0.00    -0.246 OA
ATOM     14  H   UNL d   1      31.140 -18.483  -5.109  0.00  0.00     0.164 HD
ATOM     15  H   UNL d   1      30.398 -18.223  -2.925  0.00  0.00     0.192 HD
BRANCH  12  16
ATOM     16  C   UNL d   1      30.628 -17.382  -6.869  0.00  0.00     0.120 C 
ATOM     17  C   UNL d   1      30.845 -18.581  -7.790  0.00  0.00     0.026 C 
ENDBRANCH  12  16
ENDBRANCH   7  10
ENDBRANCH   5   6
ENDBRANCH   1   5
BRANCH   2  18
ATOM     18  C   UNL d   1      24.597 -17.250  -0.860  0.00  0.00     0.032 A 
ATOM     19  C   UNL d   1      24.267 -18.605  -0.682  0.00  0.00     0.020 A 
ATOM     20  C   UNL d   1      22.915 -19.020  -0.676  0.00  0.00     0.038 A 
ATOM     21  C   UNL d   1      21.883 -18.080  -0.761  0.00  0.00     0.069 A 
ATOM     22  C   UNL d   1      22.233 -16.736  -0.895  0.00  0.00     0.038 A 
ATOM     23  C   UNL d   1      23.564 -16.327  -0.995  0.00  0.00     0.020 A 
BRANCH  21  24
ATOM     24  O   UNL d   1      20.595 -18.561  -0.721  0.00  0.00    -0.347 OA
BRANCH  24  25
ATOM     25  C   UNL d   1      20.331 -19.701   0.121  0.00  0.00     0.120 C 
ATOM     26  C   UNL d   1      20.413 -19.330   1.606  0.00  0.00     0.040 C 
ATOM     27  C   UNL d   1      18.905 -20.203  -0.140  0.00  0.00     0.040 C 
ENDBRANCH  24  25
ENDBRANCH  21  24
ENDBRANCH   2  18
TORSDOF 7
ENDMDL
