MODEL 1
REMARK VINA RESULT:    -8.187      0.000      0.000
REMARK INTER + INTRA:         -10.613
REMARK INTER:                  -9.977
REMARK INTRA:                  -0.636
REMARK CONF_INDEPENDENT:        1.790
REMARK UNBOUND:                -0.636
REMARK  6 active torsions:
REMARK  status: ('A' for Active; 'I' for Inactive)
REMARK    1  A    between atoms: C_2  and  O_5 
REMARK    2  A    between atoms: O_5  and  C_6 
REMARK       I    between atoms: C_6  and  N_8 
REMARK    3  A    between atoms: N_8  and  C_9 
REMARK    4  A    between atoms: C_9  and  C_10 
REMARK    5  A    between atoms: C_10  and  C_11 
REMARK       I    between atoms: C_11  and  N_13 
REMARK    6  A    between atoms: N_13  and  C_14 
ROOT
ATOM      1  C   UNL d   1      25.461 -14.715  -2.566  0.00  0.00     0.223 C 
ATOM      2  O   UNL d   1      24.780 -15.163  -3.487  0.00  0.00    -0.273 OA
ATOM      3  N   UNL d   1      25.427 -15.235  -1.271  0.00  0.00    -0.327 N 
ATOM      4  H   UNL d   1      25.790 -14.678  -0.507  0.00  0.00     0.169 HD
ENDROOT
BRANCH   3   5
ATOM      5  C   UNL d   1      24.608 -16.354  -0.940  0.00  0.00     0.037 A 
ATOM      6  C   UNL d   1      25.171 -17.475  -0.276  0.00  0.00     0.032 A 
ATOM      7  C   UNL d   1      24.375 -18.575   0.108  0.00  0.00     0.034 A 
ATOM      8  C   UNL d   1      23.044 -18.536  -0.235  0.00  0.00     0.063 A 
ATOM      9  N   UNL d   1      22.029 -19.465  -0.020  0.00  0.00    -0.307 N 
ATOM     10  C   UNL d   1      22.497 -17.456  -0.916  0.00  0.00     0.065 A 
ATOM     11  C   UNL d   1      20.842 -18.973  -0.583  0.00  0.00     0.325 A 
ATOM     12  H   UNL d   1      22.093 -20.354   0.449  0.00  0.00     0.170 HD
ATOM     13  O   UNL d   1      19.755 -19.528  -0.593  0.00  0.00    -0.247 OA
ATOM     14  N   UNL d   1      21.149 -17.724  -1.138  0.00  0.00    -0.306 N 
ATOM     15  H   UNL d   1      20.480 -17.135  -1.607  0.00  0.00     0.170 HD
ATOM     16  C   UNL d   1      23.243 -16.354  -1.270  0.00  0.00     0.061 A 
ENDBRANCH   3   5
BRANCH   1  17
ATOM     17  C   UNL d   1      26.372 -13.501  -2.785  0.00  0.00     0.123 C 
BRANCH  17  18
ATOM     18  C   UNL d   1      26.326 -13.073  -4.262  0.00  0.00     0.134 C 
BRANCH  18  19
ATOM     19  N   UNL d   1      27.403 -13.580  -5.112  0.00  0.00    -0.336 N 
ATOM     20  C   UNL d   1      27.309 -14.851  -5.639  0.00  0.00     0.361 C 
ATOM     21  O   UNL d   1      26.342 -15.575  -5.418  0.00  0.00    -0.238 OA
ATOM     22  H   UNL d   1      28.223 -13.033  -5.330  0.00  0.00     0.164 HD
BRANCH  20  23
ATOM     23  O   UNL d   1      28.384 -15.200  -6.414  0.00  0.00    -0.294 OA
BRANCH  23  24
ATOM     24  C   UNL d   1      29.630 -15.590  -5.736  0.00  0.00     0.061 C 
ATOM     25  C   UNL d   1      29.291 -16.249  -4.379  0.00  0.00     0.046 C 
ATOM     26  C   UNL d   1      30.505 -14.365  -5.433  0.00  0.00     0.046 C 
ATOM     27  C   UNL d   1      30.405 -16.632  -6.558  0.00  0.00     0.046 C 
ENDBRANCH  23  24
ENDBRANCH  20  23
ENDBRANCH  18  19
ENDBRANCH  17  18
ENDBRANCH   1  17
TORSDOF 6
ENDMDL
MODEL 2
REMARK VINA RESULT:    -7.854      2.370      8.810
REMARK INTER + INTRA:         -10.024
REMARK INTER:                  -9.643
REMARK INTRA:                  -0.381
REMARK CONF_INDEPENDENT:        1.790
REMARK UNBOUND:                -0.381
REMARK  6 active torsions:
REMARK  status: ('A' for Active; 'I' for Inactive)
REMARK    1  A    between atoms: C_2  and  O_5 
REMARK    2  A    between atoms: O_5  and  C_6 
REMARK       I    between atoms: C_6  and  N_8 
REMARK    3  A    between atoms: N_8  and  C_9 
REMARK    4  A    between atoms: C_9  and  C_10 
REMARK    5  A    between atoms: C_10  and  C_11 
REMARK       I    between atoms: C_11  and  N_13 
REMARK    6  A    between atoms: N_13  and  C_14 
ROOT
ATOM      1  C   UNL d   1      24.902 -17.220  -0.869  0.00  0.00     0.223 C 
ATOM      2  O   UNL d   1      26.083 -17.171  -0.525  0.00  0.00    -0.273 OA
ATOM      3  N   UNL d   1      24.381 -16.453  -1.912  0.00  0.00    -0.327 N 
ATOM      4  H   UNL d   1      23.378 -16.330  -1.979  0.00  0.00     0.169 HD
ENDROOT
BRANCH   3   5
ATOM      5  C   UNL d   1      25.205 -15.572  -2.673  0.00  0.00     0.037 A 
ATOM      6  C   UNL d   1      26.532 -15.949  -3.005  0.00  0.00     0.032 A 
ATOM      7  C   UNL d   1      27.352 -15.120  -3.798  0.00  0.00     0.034 A 
ATOM      8  C   UNL d   1      26.829 -13.909  -4.190  0.00  0.00     0.063 A 
ATOM      9  N   UNL d   1      27.394 -12.883  -4.942  0.00  0.00    -0.307 N 
ATOM     10  C   UNL d   1      25.543 -13.521  -3.836  0.00  0.00     0.065 A 
ATOM     11  C   UNL d   1      26.463 -11.839  -5.049  0.00  0.00     0.325 A 
ATOM     12  H   UNL d   1      28.312 -12.851  -5.354  0.00  0.00     0.170 HD
ATOM     13  O   UNL d   1      26.623 -10.776  -5.629  0.00  0.00    -0.247 OA
ATOM     14  N   UNL d   1      25.318 -12.250  -4.354  0.00  0.00    -0.306 N 
ATOM     15  H   UNL d   1      24.481 -11.696  -4.270  0.00  0.00     0.170 HD
ATOM     16  C   UNL d   1      24.708 -14.328  -3.094  0.00  0.00     0.061 A 
ENDBRANCH   3   5
BRANCH   1  17
ATOM     17  C   UNL d   1      23.907 -18.115  -0.122  0.00  0.00     0.123 C 
BRANCH  17  18
ATOM     18  C   UNL d   1      22.737 -18.485  -1.050  0.00  0.00     0.134 C 
BRANCH  18  19
ATOM     19  N   UNL d   1      21.414 -18.538  -0.427  0.00  0.00    -0.336 N 
ATOM     20  C   UNL d   1      20.381 -19.173  -1.085  0.00  0.00     0.361 C 
ATOM     21  O   UNL d   1      20.538 -19.700  -2.182  0.00  0.00    -0.238 OA
ATOM     22  H   UNL d   1      21.223 -18.123   0.473  0.00  0.00     0.164 HD
BRANCH  20  23
ATOM     23  O   UNL d   1      19.199 -19.147  -0.392  0.00  0.00    -0.294 OA
BRANCH  23  24
ATOM     24  C   UNL d   1      18.989 -20.154   0.660  0.00  0.00     0.061 C 
ATOM     25  C   UNL d   1      18.436 -19.462   1.927  0.00  0.00     0.046 C 
ATOM     26  C   UNL d   1      20.312 -20.825   1.057  0.00  0.00     0.046 C 
ATOM     27  C   UNL d   1      17.947 -21.197   0.230  0.00  0.00     0.046 C 
ENDBRANCH  23  24
ENDBRANCH  20  23
ENDBRANCH  18  19
ENDBRANCH  17  18
ENDBRANCH   1  17
TORSDOF 6
ENDMDL
MODEL 3
REMARK VINA RESULT:    -7.791      4.286      6.184
REMARK INTER + INTRA:         -10.168
REMARK INTER:                  -9.581
REMARK INTRA:                  -0.587
REMARK CONF_INDEPENDENT:        1.790
REMARK UNBOUND:                -0.587
REMARK  6 active torsions:
REMARK  status: ('A' for Active; 'I' for Inactive)
REMARK    1  A    between atoms: C_2  and  O_5 
REMARK    2  A    between atoms: O_5  and  C_6 
REMARK       I    between atoms: C_6  and  N_8 
REMARK    3  A    between atoms: N_8  and  C_9 
REMARK    4  A    between atoms: C_9  and  C_10 
REMARK    5  A    between atoms: C_10  and  C_11 
REMARK       I    between atoms: C_11  and  N_13 
REMARK    6  A    between atoms: N_13  and  C_14 
ROOT
ATOM      1  C   UNL d   1      27.194 -16.539  -0.486  0.00  0.00     0.223 C 
ATOM      2  O   UNL d   1      26.887 -15.972  -1.535  0.00  0.00    -0.273 OA
ATOM      3  N   UNL d   1      26.275 -17.237   0.298  0.00  0.00    -0.327 N 
ATOM      4  H   UNL d   1      26.510 -17.450   1.260  0.00  0.00     0.169 HD
ENDROOT
BRANCH   3   5
ATOM      5  C   UNL d   1      24.909 -17.362  -0.088  0.00  0.00     0.037 A 
ATOM      6  C   UNL d   1      24.235 -16.267  -0.688  0.00  0.00     0.032 A 
ATOM      7  C   UNL d   1      22.899 -16.378  -1.125  0.00  0.00     0.034 A 
ATOM      8  C   UNL d   1      22.262 -17.576  -0.898  0.00  0.00     0.063 A 
ATOM      9  N   UNL d   1      20.960 -17.974  -1.187  0.00  0.00    -0.307 N 
ATOM     10  C   UNL d   1      22.907 -18.639  -0.278  0.00  0.00     0.065 A 
ATOM     11  C   UNL d   1      20.781 -19.290  -0.733  0.00  0.00     0.325 A 
ATOM     12  H   UNL d   1      20.235 -17.441  -1.638  0.00  0.00     0.170 HD
ATOM     13  O   UNL d   1      19.760 -19.955  -0.810  0.00  0.00    -0.247 OA
ATOM     14  N   UNL d   1      22.000 -19.689  -0.169  0.00  0.00    -0.306 N 
ATOM     15  H   UNL d   1      22.164 -20.597   0.234  0.00  0.00     0.170 HD
ATOM     16  C   UNL d   1      24.222 -18.569   0.124  0.00  0.00     0.061 A 
ENDBRANCH   3   5
BRANCH   1  17
ATOM     17  C   UNL d   1      28.628 -16.466   0.050  0.00  0.00     0.123 C 
BRANCH  17  18
ATOM     18  C   UNL d   1      28.877 -15.092   0.694  0.00  0.00     0.134 C 
BRANCH  18  19
ATOM     19  N   UNL d   1      28.485 -14.958   2.098  0.00  0.00    -0.336 N 
ATOM     20  C   UNL d   1      27.556 -14.003   2.454  0.00  0.00     0.361 C 
ATOM     21  O   UNL d   1      27.041 -13.258   1.625  0.00  0.00    -0.238 OA
ATOM     22  H   UNL d   1      28.874 -15.541   2.825  0.00  0.00     0.164 HD
BRANCH  20  23
ATOM     23  O   UNL d   1      27.283 -13.985   3.797  0.00  0.00    -0.294 OA
BRANCH  23  24
ATOM     24  C   UNL d   1      28.357 -13.584   4.718  0.00  0.00     0.061 C 
ATOM     25  C   UNL d   1      29.142 -14.839   5.166  0.00  0.00     0.046 C 
ATOM     26  C   UNL d   1      27.785 -12.937   5.989  0.00  0.00     0.046 C 
ATOM     27  C   UNL d   1      29.362 -12.651   4.027  0.00  0.00     0.046 C 
ENDBRANCH  23  24
ENDBRANCH  20  23
ENDBRANCH  18  19
ENDBRANCH  17  18
ENDBRANCH   1  17
TORSDOF 6
ENDMDL
MODEL 4
REMARK VINA RESULT:    -7.570      2.536      3.959
REMARK INTER + INTRA:          -9.834
REMARK INTER:                  -9.360
REMARK INTRA:                  -0.474
REMARK CONF_INDEPENDENT:        1.790
REMARK UNBOUND:                -0.474
REMARK  6 active torsions:
REMARK  status: ('A' for Active; 'I' for Inactive)
REMARK    1  A    between atoms: C_2  and  O_5 
REMARK    2  A    between atoms: O_5  and  C_6 
REMARK       I    between atoms: C_6  and  N_8 
REMARK    3  A    between atoms: N_8  and  C_9 
REMARK    4  A    between atoms: C_9  and  C_10 
REMARK    5  A    between atoms: C_10  and  C_11 
REMARK       I    between atoms: C_11  and  N_13 
REMARK    6  A    between atoms: N_13  and  C_14 
ROOT
ATOM      1  C   UNL d   1      25.432 -14.596  -2.441  0.00  0.00     0.223 C 
ATOM      2  O   UNL d   1      24.838 -15.066  -3.411  0.00  0.00    -0.273 OA
ATOM      3  N   UNL d   1      25.336 -15.134  -1.157  0.00  0.00    -0.327 N 
ATOM      4  H   UNL d   1      25.618 -14.570  -0.364  0.00  0.00     0.169 HD
ENDROOT
BRANCH   3   5
ATOM      5  C   UNL d   1      24.554 -16.297  -0.892  0.00  0.00     0.037 A 
ATOM      6  C   UNL d   1      25.149 -17.430  -0.280  0.00  0.00     0.032 A 
ATOM      7  C   UNL d   1      24.389 -18.575   0.038  0.00  0.00     0.034 A 
ATOM      8  C   UNL d   1      23.061 -18.565  -0.318  0.00  0.00     0.063 A 
ATOM      9  N   UNL d   1      22.078 -19.539  -0.163  0.00  0.00    -0.307 N 
ATOM     10  C   UNL d   1      22.483 -17.471  -0.950  0.00  0.00     0.065 A 
ATOM     11  C   UNL d   1      20.880 -19.060  -0.715  0.00  0.00     0.325 A 
ATOM     12  H   UNL d   1      22.168 -20.447   0.261  0.00  0.00     0.170 HD
ATOM     13  O   UNL d   1      19.813 -19.651  -0.765  0.00  0.00    -0.247 OA
ATOM     14  N   UNL d   1      21.148 -17.773  -1.201  0.00  0.00    -0.306 N 
ATOM     15  H   UNL d   1      20.463 -17.186  -1.647  0.00  0.00     0.170 HD
ATOM     16  C   UNL d   1      23.193 -16.327  -1.238  0.00  0.00     0.061 A 
ENDBRANCH   3   5
BRANCH   1  17
ATOM     17  C   UNL d   1      26.293 -13.336  -2.586  0.00  0.00     0.123 C 
BRANCH  17  18
ATOM     18  C   UNL d   1      26.544 -13.043  -4.075  0.00  0.00     0.134 C 
BRANCH  18  19
ATOM     19  N   UNL d   1      25.661 -12.053  -4.694  0.00  0.00    -0.336 N 
ATOM     20  C   UNL d   1      26.073 -11.399  -5.836  0.00  0.00     0.361 C 
ATOM     21  O   UNL d   1      27.162 -11.625  -6.356  0.00  0.00    -0.238 OA
ATOM     22  H   UNL d   1      24.755 -11.823  -4.312  0.00  0.00     0.164 HD
BRANCH  20  23
ATOM     23  O   UNL d   1      25.154 -10.498  -6.308  0.00  0.00    -0.294 OA
BRANCH  23  24
ATOM     24  C   UNL d   1      25.245  -9.105  -5.844  0.00  0.00     0.061 C 
ATOM     25  C   UNL d   1      25.822  -9.079  -4.410  0.00  0.00     0.046 C 
ATOM     26  C   UNL d   1      23.858  -8.449  -5.781  0.00  0.00     0.046 C 
ATOM     27  C   UNL d   1      26.203  -8.289  -6.725  0.00  0.00     0.046 C 
ENDBRANCH  23  24
ENDBRANCH  20  23
ENDBRANCH  18  19
ENDBRANCH  17  18
ENDBRANCH   1  17
TORSDOF 6
ENDMDL
MODEL 5
REMARK VINA RESULT:    -6.932      3.359      5.105
REMARK INTER + INTRA:         -10.027
REMARK INTER:                  -8.722
REMARK INTRA:                  -1.305
REMARK CONF_INDEPENDENT:        1.790
REMARK UNBOUND:                -1.305
REMARK  6 active torsions:
REMARK  status: ('A' for Active; 'I' for Inactive)
REMARK    1  A    between atoms: C_2  and  O_5 
REMARK    2  A    between atoms: O_5  and  C_6 
REMARK       I    between atoms: C_6  and  N_8 
REMARK    3  A    between atoms: N_8  and  C_9 
REMARK    4  A    between atoms: C_9  and  C_10 
REMARK    5  A    between atoms: C_10  and  C_11 
REMARK       I    between atoms: C_11  and  N_13 
REMARK    6  A    between atoms: N_13  and  C_14 
ROOT
ATOM      1  C   UNL d   1      25.376 -14.758  -2.190  0.00  0.00     0.223 C 
ATOM      2  O   UNL d   1      24.791 -15.171  -3.190  0.00  0.00    -0.273 OA
ATOM      3  N   UNL d   1      25.227 -15.336  -0.928  0.00  0.00    -0.327 N 
ATOM      4  H   UNL d   1      25.509 -14.810  -0.109  0.00  0.00     0.169 HD
ENDROOT
BRANCH   3   5
ATOM      5  C   UNL d   1      24.396 -16.476  -0.724  0.00  0.00     0.037 A 
ATOM      6  C   UNL d   1      24.926 -17.643  -0.117  0.00  0.00     0.032 A 
ATOM      7  C   UNL d   1      24.115 -18.768   0.142  0.00  0.00     0.034 A 
ATOM      8  C   UNL d   1      22.803 -18.703  -0.267  0.00  0.00     0.063 A 
ATOM      9  N   UNL d   1      21.781 -19.645  -0.176  0.00  0.00    -0.307 N 
ATOM     10  C   UNL d   1      22.289 -17.575  -0.894  0.00  0.00     0.065 A 
ATOM     11  C   UNL d   1      20.624 -19.111  -0.763  0.00  0.00     0.325 A 
ATOM     12  H   UNL d   1      21.823 -20.566   0.229  0.00  0.00     0.170 HD
ATOM     13  O   UNL d   1      19.541 -19.664  -0.871  0.00  0.00    -0.247 OA
ATOM     14  N   UNL d   1      20.956 -17.824  -1.206  0.00  0.00    -0.306 N 
ATOM     15  H   UNL d   1      20.311 -17.202  -1.665  0.00  0.00     0.170 HD
ATOM     16  C   UNL d   1      23.050 -16.450  -1.125  0.00  0.00     0.061 A 
ENDBRANCH   3   5
BRANCH   1  17
ATOM     17  C   UNL d   1      26.287 -13.528  -2.269  0.00  0.00     0.123 C 
BRANCH  17  18
ATOM     18  C   UNL d   1      27.420 -13.648  -1.236  0.00  0.00     0.134 C 
BRANCH  18  19
ATOM     19  N   UNL d   1      27.108 -13.188   0.118  0.00  0.00    -0.336 N 
ATOM     20  C   UNL d   1      27.080 -14.099   1.153  0.00  0.00     0.361 C 
ATOM     21  O   UNL d   1      27.314 -15.291   0.975  0.00  0.00    -0.238 OA
ATOM     22  H   UNL d   1      26.907 -12.221   0.327  0.00  0.00     0.164 HD
BRANCH  20  23
ATOM     23  O   UNL d   1      26.773 -13.536   2.365  0.00  0.00    -0.294 OA
BRANCH  23  24
ATOM     24  C   UNL d   1      27.840 -13.433   3.372  0.00  0.00     0.061 C 
ATOM     25  C   UNL d   1      28.125 -11.942   3.666  0.00  0.00     0.046 C 
ATOM     26  C   UNL d   1      29.150 -14.047   2.858  0.00  0.00     0.046 C 
ATOM     27  C   UNL d   1      27.412 -14.076   4.700  0.00  0.00     0.046 C 
ENDBRANCH  23  24
ENDBRANCH  20  23
ENDBRANCH  18  19
ENDBRANCH  17  18
ENDBRANCH   1  17
TORSDOF 6
ENDMDL
MODEL 6
REMARK VINA RESULT:    -6.749      1.992      3.022
REMARK INTER + INTRA:          -9.726
REMARK INTER:                  -8.538
REMARK INTRA:                  -1.187
REMARK CONF_INDEPENDENT:        1.790
REMARK UNBOUND:                -1.187
REMARK  6 active torsions:
REMARK  status: ('A' for Active; 'I' for Inactive)
REMARK    1  A    between atoms: C_2  and  O_5 
REMARK    2  A    between atoms: O_5  and  C_6 
REMARK       I    between atoms: C_6  and  N_8 
REMARK    3  A    between atoms: N_8  and  C_9 
REMARK    4  A    between atoms: C_9  and  C_10 
REMARK    5  A    between atoms: C_10  and  C_11 
REMARK       I    between atoms: C_11  and  N_13 
REMARK    6  A    between atoms: N_13  and  C_14 
ROOT
ATOM      1  C   UNL d   1      27.153 -16.562  -0.544  0.00  0.00     0.223 C 
ATOM      2  O   UNL d   1      26.795 -15.797  -1.438  0.00  0.00    -0.273 OA
ATOM      3  N   UNL d   1      26.272 -17.408   0.132  0.00  0.00    -0.327 N 
ATOM      4  H   UNL d   1      26.557 -17.810   1.017  0.00  0.00     0.169 HD
ENDROOT
BRANCH   3   5
ATOM      5  C   UNL d   1      24.886 -17.456  -0.197  0.00  0.00     0.037 A 
ATOM      6  C   UNL d   1      24.249 -16.322  -0.762  0.00  0.00     0.032 A 
ATOM      7  C   UNL d   1      22.891 -16.358  -1.143  0.00  0.00     0.034 A 
ATOM      8  C   UNL d   1      22.200 -17.521  -0.895  0.00  0.00     0.063 A 
ATOM      9  N   UNL d   1      20.867 -17.846  -1.130  0.00  0.00    -0.307 N 
ATOM     10  C   UNL d   1      22.812 -18.622  -0.308  0.00  0.00     0.065 A 
ATOM     11  C   UNL d   1      20.636 -19.154  -0.676  0.00  0.00     0.325 A 
ATOM     12  H   UNL d   1      20.154 -17.271  -1.548  0.00  0.00     0.170 HD
ATOM     13  O   UNL d   1      19.579 -19.762  -0.713  0.00  0.00    -0.247 OA
ATOM     14  N   UNL d   1      21.855 -19.622  -0.166  0.00  0.00    -0.306 N 
ATOM     15  H   UNL d   1      21.986 -20.540   0.225  0.00  0.00     0.170 HD
ATOM     16  C   UNL d   1      24.144 -18.626   0.039  0.00  0.00     0.061 A 
ENDBRANCH   3   5
BRANCH   1  17
ATOM     17  C   UNL d   1      28.614 -16.596  -0.083  0.00  0.00     0.123 C 
BRANCH  17  18
ATOM     18  C   UNL d   1      29.531 -16.927  -1.273  0.00  0.00     0.134 C 
BRANCH  18  19
ATOM     19  N   UNL d   1      28.945 -16.757  -2.603  0.00  0.00    -0.336 N 
ATOM     20  C   UNL d   1      29.730 -16.285  -3.634  0.00  0.00     0.361 C 
ATOM     21  O   UNL d   1      30.914 -16.004  -3.471  0.00  0.00    -0.238 OA
ATOM     22  H   UNL d   1      27.978 -16.971  -2.799  0.00  0.00     0.164 HD
BRANCH  20  23
ATOM     23  O   UNL d   1      29.057 -16.173  -4.822  0.00  0.00    -0.294 OA
BRANCH  23  24
ATOM     24  C   UNL d   1      28.240 -14.970  -5.046  0.00  0.00     0.061 C 
ATOM     25  C   UNL d   1      28.734 -13.836  -4.119  0.00  0.00     0.046 C 
ATOM     26  C   UNL d   1      26.767 -15.226  -4.696  0.00  0.00     0.046 C 
ATOM     27  C   UNL d   1      28.385 -14.462  -6.489  0.00  0.00     0.046 C 
ENDBRANCH  23  24
ENDBRANCH  20  23
ENDBRANCH  18  19
ENDBRANCH  17  18
ENDBRANCH   1  17
TORSDOF 6
ENDMDL
MODEL 7
REMARK VINA RESULT:    -6.665      2.285      3.480
REMARK INTER + INTRA:          -9.926
REMARK INTER:                  -8.454
REMARK INTRA:                  -1.472
REMARK CONF_INDEPENDENT:        1.790
REMARK UNBOUND:                -1.472
REMARK  6 active torsions:
REMARK  status: ('A' for Active; 'I' for Inactive)
REMARK    1  A    between atoms: C_2  and  O_5 
REMARK    2  A    between atoms: O_5  and  C_6 
REMARK       I    between atoms: C_6  and  N_8 
REMARK    3  A    between atoms: N_8  and  C_9 
REMARK    4  A    between atoms: C_9  and  C_10 
REMARK    5  A    between atoms: C_10  and  C_11 
REMARK       I    between atoms: C_11  and  N_13 
REMARK    6  A    between atoms: N_13  and  C_14 
ROOT
ATOM      1  C   UNL d   1      27.181 -17.101  -0.684  0.00  0.00     0.223 C 
ATOM      2  O   UNL d   1      26.959 -17.070  -1.894  0.00  0.00    -0.273 OA
ATOM      3  N   UNL d   1      26.171 -17.227   0.271  0.00  0.00    -0.327 N 
ATOM      4  H   UNL d   1      26.371 -16.983   1.233  0.00  0.00     0.169 HD
ENDROOT
BRANCH   3   5
ATOM      5  C   UNL d   1      24.802 -17.359  -0.105  0.00  0.00     0.037 A 
ATOM      6  C   UNL d   1      24.119 -16.265  -0.696  0.00  0.00     0.032 A 
ATOM      7  C   UNL d   1      22.779 -16.382  -1.122  0.00  0.00     0.034 A 
ATOM      8  C   UNL d   1      22.150 -17.583  -0.893  0.00  0.00     0.063 A 
ATOM      9  N   UNL d   1      20.847 -17.988  -1.173  0.00  0.00    -0.307 N 
ATOM     10  C   UNL d   1      22.806 -18.645  -0.282  0.00  0.00     0.065 A 
ATOM     11  C   UNL d   1      20.679 -19.306  -0.721  0.00  0.00     0.325 A 
ATOM     12  H   UNL d   1      20.117 -17.457  -1.616  0.00  0.00     0.170 HD
ATOM     13  O   UNL d   1      19.661 -19.976  -0.792  0.00  0.00    -0.247 OA
ATOM     14  N   UNL d   1      21.905 -19.700  -0.169  0.00  0.00    -0.306 N 
ATOM     15  H   UNL d   1      22.077 -20.608   0.230  0.00  0.00     0.170 HD
ATOM     16  C   UNL d   1      24.124 -18.570   0.110  0.00  0.00     0.061 A 
ENDBRANCH   3   5
BRANCH   1  17
ATOM     17  C   UNL d   1      28.609 -16.953  -0.147  0.00  0.00     0.123 C 
BRANCH  17  18
ATOM     18  C   UNL d   1      29.334 -15.821  -0.895  0.00  0.00     0.134 C 
BRANCH  18  19
ATOM     19  N   UNL d   1      28.748 -15.416  -2.173  0.00  0.00    -0.336 N 
ATOM     20  C   UNL d   1      28.369 -14.102  -2.357  0.00  0.00     0.361 C 
ATOM     21  O   UNL d   1      28.512 -13.257  -1.479  0.00  0.00    -0.238 OA
ATOM     22  H   UNL d   1      28.604 -16.065  -2.932  0.00  0.00     0.164 HD
BRANCH  20  23
ATOM     23  O   UNL d   1      27.834 -13.860  -3.596  0.00  0.00    -0.294 OA
BRANCH  23  24
ATOM     24  C   UNL d   1      26.377 -13.985  -3.759  0.00  0.00     0.061 C 
ATOM     25  C   UNL d   1      25.845 -12.774  -4.559  0.00  0.00     0.046 C 
ATOM     26  C   UNL d   1      25.663 -13.973  -2.399  0.00  0.00     0.046 C 
ATOM     27  C   UNL d   1      26.015 -15.244  -4.562  0.00  0.00     0.046 C 
ENDBRANCH  23  24
ENDBRANCH  20  23
ENDBRANCH  18  19
ENDBRANCH  17  18
ENDBRANCH   1  17
TORSDOF 6
ENDMDL
MODEL 8
REMARK VINA RESULT:    -6.316      4.394      6.054
REMARK INTER + INTRA:          -9.459
REMARK INTER:                  -8.106
REMARK INTRA:                  -1.353
REMARK CONF_INDEPENDENT:        1.790
REMARK UNBOUND:                -1.353
REMARK  6 active torsions:
REMARK  status: ('A' for Active; 'I' for Inactive)
REMARK    1  A    between atoms: C_2  and  O_5 
REMARK    2  A    between atoms: O_5  and  C_6 
REMARK       I    between atoms: C_6  and  N_8 
REMARK    3  A    between atoms: N_8  and  C_9 
REMARK    4  A    between atoms: C_9  and  C_10 
REMARK    5  A    between atoms: C_10  and  C_11 
REMARK       I    between atoms: C_11  and  N_13 
REMARK    6  A    between atoms: N_13  and  C_14 
ROOT
ATOM      1  C   UNL d   1      28.425 -15.407  -0.948  0.00  0.00     0.223 C 
ATOM      2  O   UNL d   1      28.668 -16.414  -1.612  0.00  0.00    -0.273 OA
ATOM      3  N   UNL d   1      27.239 -15.235  -0.233  0.00  0.00    -0.327 N 
ATOM      4  H   UNL d   1      26.975 -14.304   0.068  0.00  0.00     0.169 HD
ENDROOT
BRANCH   3   5
ATOM      5  C   UNL d   1      26.233 -16.245  -0.204  0.00  0.00     0.037 A 
ATOM      6  C   UNL d   1      26.555 -17.557   0.230  0.00  0.00     0.032 A 
ATOM      7  C   UNL d   1      25.570 -18.563   0.316  0.00  0.00     0.034 A 
ATOM      8  C   UNL d   1      24.298 -18.232  -0.089  0.00  0.00     0.063 A 
ATOM      9  N   UNL d   1      23.139 -19.002  -0.143  0.00  0.00    -0.307 N 
ATOM     10  C   UNL d   1      23.986 -16.958  -0.548  0.00  0.00     0.065 A 
ATOM     11  C   UNL d   1      22.098 -18.212  -0.654  0.00  0.00     0.325 A 
ATOM     12  H   UNL d   1      23.024 -19.966   0.122  0.00  0.00     0.170 HD
ATOM     13  O   UNL d   1      20.945 -18.563  -0.850  0.00  0.00    -0.247 OA
ATOM     14  N   UNL d   1      22.641 -16.944  -0.903  0.00  0.00    -0.306 N 
ATOM     15  H   UNL d   1      22.115 -16.168  -1.270  0.00  0.00     0.170 HD
ATOM     16  C   UNL d   1      24.921 -15.948  -0.607  0.00  0.00     0.061 A 
ENDBRANCH   3   5
BRANCH   1  17
ATOM     17  C   UNL d   1      29.416 -14.238  -0.909  0.00  0.00     0.123 C 
BRANCH  17  18
ATOM     18  C   UNL d   1      30.269 -14.319   0.368  0.00  0.00     0.134 C 
BRANCH  18  19
ATOM     19  N   UNL d   1      29.581 -14.786   1.573  0.00  0.00    -0.336 N 
ATOM     20  C   UNL d   1      28.494 -14.082   2.047  0.00  0.00     0.361 C 
ATOM     21  O   UNL d   1      28.080 -13.072   1.486  0.00  0.00    -0.238 OA
ATOM     22  H   UNL d   1      29.875 -15.609   2.078  0.00  0.00     0.164 HD
BRANCH  20  23
ATOM     23  O   UNL d   1      27.947 -14.627   3.180  0.00  0.00    -0.294 OA
BRANCH  23  24
ATOM     24  C   UNL d   1      28.443 -14.160   4.484  0.00  0.00     0.061 C 
ATOM     25  C   UNL d   1      29.975 -13.965   4.409  0.00  0.00     0.046 C 
ATOM     26  C   UNL d   1      28.178 -15.200   5.583  0.00  0.00     0.046 C 
ATOM     27  C   UNL d   1      27.836 -12.798   4.854  0.00  0.00     0.046 C 
ENDBRANCH  23  24
ENDBRANCH  20  23
ENDBRANCH  18  19
ENDBRANCH  17  18
ENDBRANCH   1  17
TORSDOF 6
ENDMDL
MODEL 9
REMARK VINA RESULT:    -6.314      2.375      3.283
REMARK INTER + INTRA:          -9.748
REMARK INTER:                  -8.104
REMARK INTRA:                  -1.644
REMARK CONF_INDEPENDENT:        1.790
REMARK UNBOUND:                -1.644
REMARK  6 active torsions:
REMARK  status: ('A' for Active; 'I' for Inactive)
REMARK    1  A    between atoms: C_2  and  O_5 
REMARK    2  A    between atoms: O_5  and  C_6 
REMARK       I    between atoms: C_6  and  N_8 
REMARK    3  A    between atoms: N_8  and  C_9 
REMARK    4  A    between atoms: C_9  and  C_10 
REMARK    5  A    between atoms: C_10  and  C_11 
REMARK       I    between atoms: C_11  and  N_13 
REMARK    6  A    between atoms: N_13  and  C_14 
ROOT
ATOM      1  C   UNL d   1      25.391 -14.607  -2.506  0.00  0.00     0.223 C 
ATOM      2  O   UNL d   1      24.780 -15.078  -3.465  0.00  0.00    -0.273 OA
ATOM      3  N   UNL d   1      25.316 -15.143  -1.220  0.00  0.00    -0.327 N 
ATOM      4  H   UNL d   1      25.612 -14.578  -0.433  0.00  0.00     0.169 HD
ENDROOT
BRANCH   3   5
ATOM      5  C   UNL d   1      24.538 -16.304  -0.940  0.00  0.00     0.037 A 
ATOM      6  C   UNL d   1      25.140 -17.435  -0.331  0.00  0.00     0.032 A 
ATOM      7  C   UNL d   1      24.384 -18.578   0.002  0.00  0.00     0.034 A 
ATOM      8  C   UNL d   1      23.051 -18.570  -0.337  0.00  0.00     0.063 A 
ATOM      9  N   UNL d   1      22.070 -19.543  -0.165  0.00  0.00    -0.307 N 
ATOM     10  C   UNL d   1      22.465 -17.478  -0.967  0.00  0.00     0.065 A 
ATOM     11  C   UNL d   1      20.865 -19.066  -0.704  0.00  0.00     0.325 A 
ATOM     12  H   UNL d   1      22.166 -20.449   0.261  0.00  0.00     0.170 HD
ATOM     13  O   UNL d   1      19.798 -19.658  -0.738  0.00  0.00    -0.247 OA
ATOM     14  N   UNL d   1      21.128 -17.782  -1.200  0.00  0.00    -0.306 N 
ATOM     15  H   UNL d   1      20.437 -17.196  -1.639  0.00  0.00     0.170 HD
ATOM     16  C   UNL d   1      23.172 -16.336  -1.269  0.00  0.00     0.061 A 
ENDBRANCH   3   5
BRANCH   1  17
ATOM     17  C   UNL d   1      26.250 -13.348  -2.668  0.00  0.00     0.123 C 
BRANCH  17  18
ATOM     18  C   UNL d   1      27.067 -13.105  -1.388  0.00  0.00     0.134 C 
BRANCH  18  19
ATOM     19  N   UNL d   1      28.237 -13.964  -1.198  0.00  0.00    -0.336 N 
ATOM     20  C   UNL d   1      28.292 -14.800  -0.102  0.00  0.00     0.361 C 
ATOM     21  O   UNL d   1      27.384 -14.848   0.723  0.00  0.00    -0.238 OA
ATOM     22  H   UNL d   1      29.015 -13.969  -1.842  0.00  0.00     0.164 HD
BRANCH  20  23
ATOM     23  O   UNL d   1      29.440 -15.546  -0.045  0.00  0.00    -0.294 OA
BRANCH  23  24
ATOM     24  C   UNL d   1      29.470 -16.830  -0.763  0.00  0.00     0.061 C 
ATOM     25  C   UNL d   1      29.358 -16.569  -2.283  0.00  0.00     0.046 C 
ATOM     26  C   UNL d   1      28.277 -17.713  -0.371  0.00  0.00     0.046 C 
ATOM     27  C   UNL d   1      30.800 -17.563  -0.533  0.00  0.00     0.046 C 
ENDBRANCH  23  24
ENDBRANCH  20  23
ENDBRANCH  18  19
ENDBRANCH  17  18
ENDBRANCH   1  17
TORSDOF 6
ENDMDL
