MODEL 1
REMARK VINA RESULT:    -8.784      0.000      0.000
REMARK INTER + INTRA:         -13.126
REMARK INTER:                 -11.170
REMARK INTRA:                  -1.956
REMARK CONF_INDEPENDENT:        2.386
REMARK UNBOUND:                -1.956
REMARK  8 active torsions:
REMARK  status: ('A' for Active; 'I' for Inactive)
REMARK    1  A    between atoms: C_2  and  O_3 
REMARK    2  A    between atoms: O_3  and  C_4 
REMARK    3  A    between atoms: C_7  and  N_8 
REMARK    4  A    between atoms: N_8  and  C_9 
REMARK    5  A    between atoms: C_14  and  C_15 
REMARK       I    between atoms: C_15  and  N_17 
REMARK    6  A    between atoms: N_17  and  N_18 
REMARK       I    between atoms: N_18  and  C_19 
REMARK       I    between atoms: C_19  and  N_21 
REMARK    7  A    between atoms: N_21  and  C_22 
REMARK    8  A    between atoms: C_22  and  C_23 
ROOT
ATOM      1  C   UNL d   1      25.795 -15.580  -1.936  0.00  0.00     0.143 A 
ATOM      2  N   UNL d   1      25.147 -15.394  -3.124  0.00  0.00    -0.242 NA
ATOM      3  C   UNL d   1      25.863 -14.940  -4.180  0.00  0.00     0.119 A 
ATOM      4  C   UNL d   1      27.219 -14.686  -4.118  0.00  0.00     0.020 A 
ATOM      5  C   UNL d   1      27.888 -14.927  -2.914  0.00  0.00     0.022 A 
ATOM      6  C   UNL d   1      27.189 -15.391  -1.790  0.00  0.00     0.079 A 
ENDROOT
BRANCH   6   7
ATOM      7  C   UNL d   1      27.876 -15.688  -0.467  0.00  0.00     0.274 C 
ATOM      8  O   UNL d   1      28.728 -16.573  -0.330  0.00  0.00    -0.266 OA
ATOM      9  N   UNL d   1      27.542 -14.923   0.638  0.00  0.00    -0.262 N 
ATOM     10  H   UNL d   1      26.943 -14.104   0.639  0.00  0.00     0.190 HD
BRANCH   9  11
ATOM     11  N   UNL d   1      28.179 -15.200   1.874  0.00  0.00    -0.249 N 
ATOM     12  C   UNL d   1      27.809 -14.476   2.984  0.00  0.00     0.334 C 
ATOM     13  O   UNL d   1      26.940 -13.602   2.934  0.00  0.00    -0.246 OA
ATOM     14  N   UNL d   1      28.480 -14.808   4.126  0.00  0.00    -0.341 N 
ATOM     15  H   UNL d   1      29.181 -15.531   4.085  0.00  0.00     0.164 HD
ATOM     16  H   UNL d   1      28.872 -15.948   1.864  0.00  0.00     0.192 HD
BRANCH  14  17
ATOM     17  C   UNL d   1      28.206 -14.164   5.401  0.00  0.00     0.129 C 
BRANCH  17  18
ATOM     18  C   UNL d   1      29.367 -14.215   6.357  0.00  0.00     0.003 A 
ATOM     19  C   UNL d   1      29.862 -12.922   6.954  0.00  0.00     0.007 A 
ATOM     20  C   UNL d   1      29.277 -13.986   7.848  0.00  0.00     0.007 A 
ENDBRANCH  17  18
ENDBRANCH  14  17
ENDBRANCH   9  11
ENDBRANCH   6   7
BRANCH   1  21
ATOM     21  N   UNL d   1      24.981 -15.831  -0.812  0.00  0.00    -0.340 N 
ATOM     22  H   UNL d   1      25.500 -15.770   0.055  0.00  0.00     0.167 HD
BRANCH  21  23
ATOM     23  C   UNL d   1      23.969 -16.829  -0.788  0.00  0.00     0.033 A 
ATOM     24  C   UNL d   1      22.621 -16.470  -0.854  0.00  0.00     0.032 A 
ATOM     25  C   UNL d   1      21.622 -17.457  -0.895  0.00  0.00     0.039 A 
ATOM     26  C   UNL d   1      21.957 -18.812  -0.965  0.00  0.00     0.068 A 
ATOM     27  C   UNL d   1      23.294 -19.176  -0.972  0.00  0.00     0.039 A 
ATOM     28  C   UNL d   1      24.278 -18.198  -0.863  0.00  0.00     0.032 A 
BRANCH  26  29
ATOM     29  O   UNL d   1      20.928 -19.700  -1.121  0.00  0.00    -0.352 OA
BRANCH  29  30
ATOM     30  C   UNL d   1      19.685 -19.295  -0.542  0.00  0.00     0.171 C 
ATOM     31  C   UNL d   1      19.294 -20.317   0.510  0.00  0.00     0.034 C 
ENDBRANCH  29  30
ENDBRANCH  26  29
ENDBRANCH  21  23
ENDBRANCH   1  21
TORSDOF 8
ENDMDL
MODEL 2
REMARK VINA RESULT:    -8.130      3.901      6.524
REMARK INTER + INTRA:         -12.482
REMARK INTER:                 -10.517
REMARK INTRA:                  -1.965
REMARK CONF_INDEPENDENT:        2.386
REMARK UNBOUND:                -1.965
REMARK  8 active torsions:
REMARK  status: ('A' for Active; 'I' for Inactive)
REMARK    1  A    between atoms: C_2  and  O_3 
REMARK    2  A    between atoms: O_3  and  C_4 
REMARK    3  A    between atoms: C_7  and  N_8 
REMARK    4  A    between atoms: N_8  and  C_9 
REMARK    5  A    between atoms: C_14  and  C_15 
REMARK       I    between atoms: C_15  and  N_17 
REMARK    6  A    between atoms: N_17  and  N_18 
REMARK       I    between atoms: N_18  and  C_19 
REMARK       I    between atoms: C_19  and  N_21 
REMARK    7  A    between atoms: N_21  and  C_22 
REMARK    8  A    between atoms: C_22  and  C_23 
ROOT
ATOM      1  C   UNL d   1      26.344 -16.085  -0.888  0.00  0.00     0.143 A 
ATOM      2  N   UNL d   1      27.062 -16.958  -0.121  0.00  0.00    -0.242 NA
ATOM      3  C   UNL d   1      28.261 -17.381  -0.585  0.00  0.00     0.119 A 
ATOM      4  C   UNL d   1      28.803 -16.947  -1.780  0.00  0.00     0.020 A 
ATOM      5  C   UNL d   1      28.088 -16.015  -2.537  0.00  0.00     0.022 A 
ATOM      6  C   UNL d   1      26.837 -15.551  -2.101  0.00  0.00     0.079 A 
ENDROOT
BRANCH   6   7
ATOM      7  C   UNL d   1      26.033 -14.522  -2.878  0.00  0.00     0.274 C 
ATOM      8  O   UNL d   1      25.082 -14.819  -3.610  0.00  0.00    -0.266 OA
ATOM      9  N   UNL d   1      26.372 -13.185  -2.752  0.00  0.00    -0.262 N 
ATOM     10  H   UNL d   1      27.055 -12.800  -2.108  0.00  0.00     0.190 HD
BRANCH   9  11
ATOM     11  N   UNL d   1      25.625 -12.224  -3.479  0.00  0.00    -0.249 N 
ATOM     12  C   UNL d   1      25.935 -10.893  -3.324  0.00  0.00     0.334 C 
ATOM     13  O   UNL d   1      26.844 -10.515  -2.578  0.00  0.00    -0.246 OA
ATOM     14  N   UNL d   1      25.160 -10.040  -4.058  0.00  0.00    -0.341 N 
ATOM     15  H   UNL d   1      24.434 -10.425  -4.640  0.00  0.00     0.164 HD
ATOM     16  H   UNL d   1      24.904 -12.590  -4.099  0.00  0.00     0.192 HD
BRANCH  14  17
ATOM     17  C   UNL d   1      25.359  -8.600  -4.038  0.00  0.00     0.129 C 
BRANCH  17  18
ATOM     18  C   UNL d   1      24.748  -7.897  -5.219  0.00  0.00     0.003 A 
ATOM     19  C   UNL d   1      23.457  -8.432  -5.784  0.00  0.00     0.007 A 
ATOM     20  C   UNL d   1      23.496  -7.052  -5.178  0.00  0.00     0.007 A 
ENDBRANCH  17  18
ENDBRANCH  14  17
ENDBRANCH   9  11
ENDBRANCH   6   7
BRANCH   1  21
ATOM     21  N   UNL d   1      25.013 -15.847  -0.485  0.00  0.00    -0.340 N 
ATOM     22  H   UNL d   1      24.963 -15.269   0.344  0.00  0.00     0.167 HD
BRANCH  21  23
ATOM     23  C   UNL d   1      23.993 -16.835  -0.540  0.00  0.00     0.033 A 
ATOM     24  C   UNL d   1      22.666 -16.468  -0.778  0.00  0.00     0.032 A 
ATOM     25  C   UNL d   1      21.666 -17.449  -0.895  0.00  0.00     0.039 A 
ATOM     26  C   UNL d   1      21.990 -18.808  -0.869  0.00  0.00     0.068 A 
ATOM     27  C   UNL d   1      23.314 -19.183  -0.705  0.00  0.00     0.039 A 
ATOM     28  C   UNL d   1      24.291 -18.208  -0.521  0.00  0.00     0.032 A 
BRANCH  26  29
ATOM     29  O   UNL d   1      20.975 -19.694  -1.109  0.00  0.00    -0.352 OA
BRANCH  29  30
ATOM     30  C   UNL d   1      19.809 -19.512  -0.301  0.00  0.00     0.171 C 
ATOM     31  C   UNL d   1      19.663 -20.720   0.605  0.00  0.00     0.034 C 
ENDBRANCH  29  30
ENDBRANCH  26  29
ENDBRANCH  21  23
ENDBRANCH   1  21
TORSDOF 8
ENDMDL
MODEL 3
REMARK VINA RESULT:    -7.763      3.847      4.939
REMARK INTER + INTRA:         -12.706
REMARK INTER:                 -10.149
REMARK INTRA:                  -2.557
REMARK CONF_INDEPENDENT:        2.386
REMARK UNBOUND:                -2.557
REMARK  8 active torsions:
REMARK  status: ('A' for Active; 'I' for Inactive)
REMARK    1  A    between atoms: C_2  and  O_3 
REMARK    2  A    between atoms: O_3  and  C_4 
REMARK    3  A    between atoms: C_7  and  N_8 
REMARK    4  A    between atoms: N_8  and  C_9 
REMARK    5  A    between atoms: C_14  and  C_15 
REMARK       I    between atoms: C_15  and  N_17 
REMARK    6  A    between atoms: N_17  and  N_18 
REMARK       I    between atoms: N_18  and  C_19 
REMARK       I    between atoms: C_19  and  N_21 
REMARK    7  A    between atoms: N_21  and  C_22 
REMARK    8  A    between atoms: C_22  and  C_23 
ROOT
ATOM      1  C   UNL d   1      25.633 -15.543  -2.095  0.00  0.00     0.143 A 
ATOM      2  N   UNL d   1      24.861 -14.884  -3.009  0.00  0.00    -0.242 NA
ATOM      3  C   UNL d   1      25.473 -14.324  -4.079  0.00  0.00     0.119 A 
ATOM      4  C   UNL d   1      26.833 -14.415  -4.303  0.00  0.00     0.020 A 
ATOM      5  C   UNL d   1      27.613 -15.134  -3.392  0.00  0.00     0.022 A 
ATOM      6  C   UNL d   1      27.025 -15.727  -2.264  0.00  0.00     0.079 A 
ENDROOT
BRANCH   6   7
ATOM      7  C   UNL d   1      27.827 -16.536  -1.258  0.00  0.00     0.274 C 
ATOM      8  O   UNL d   1      27.486 -16.678  -0.077  0.00  0.00    -0.266 OA
ATOM      9  N   UNL d   1      28.991 -17.155  -1.683  0.00  0.00    -0.262 N 
ATOM     10  H   UNL d   1      29.325 -17.206  -2.640  0.00  0.00     0.190 HD
BRANCH   9  11
ATOM     11  N   UNL d   1      29.742 -17.907  -0.745  0.00  0.00    -0.249 N 
ATOM     12  C   UNL d   1      30.792 -18.671  -1.201  0.00  0.00     0.334 C 
ATOM     13  O   UNL d   1      31.098 -18.715  -2.396  0.00  0.00    -0.246 OA
ATOM     14  N   UNL d   1      31.453 -19.365  -0.228  0.00  0.00    -0.341 N 
ATOM     15  H   UNL d   1      31.139 -19.281   0.726  0.00  0.00     0.164 HD
ATOM     16  H   UNL d   1      29.463 -17.815   0.231  0.00  0.00     0.192 HD
BRANCH  14  17
ATOM     17  C   UNL d   1      32.602 -20.207  -0.521  0.00  0.00     0.129 C 
BRANCH  17  18
ATOM     18  C   UNL d   1      32.566 -21.532   0.190  0.00  0.00     0.003 A 
ATOM     19  C   UNL d   1      31.315 -21.910   0.942  0.00  0.00     0.007 A 
ATOM     20  C   UNL d   1      31.755 -22.731  -0.244  0.00  0.00     0.007 A 
ENDBRANCH  17  18
ENDBRANCH  14  17
ENDBRANCH   9  11
ENDBRANCH   6   7
BRANCH   1  21
ATOM     21  N   UNL d   1      25.000 -15.912  -0.890  0.00  0.00    -0.340 N 
ATOM     22  H   UNL d   1      25.652 -15.961  -0.117  0.00  0.00     0.167 HD
BRANCH  21  23
ATOM     23  C   UNL d   1      23.971 -16.889  -0.816  0.00  0.00     0.033 A 
ATOM     24  C   UNL d   1      22.629 -16.510  -0.903  0.00  0.00     0.032 A 
ATOM     25  C   UNL d   1      21.613 -17.480  -0.895  0.00  0.00     0.039 A 
ATOM     26  C   UNL d   1      21.924 -18.842  -0.894  0.00  0.00     0.068 A 
ATOM     27  C   UNL d   1      23.255 -19.230  -0.879  0.00  0.00     0.039 A 
ATOM     28  C   UNL d   1      24.256 -18.264  -0.819  0.00  0.00     0.032 A 
BRANCH  26  29
ATOM     29  O   UNL d   1      20.880 -19.719  -1.006  0.00  0.00    -0.352 OA
BRANCH  29  30
ATOM     30  C   UNL d   1      19.639 -19.257  -0.464  0.00  0.00     0.171 C 
ATOM     31  C   UNL d   1      18.900 -20.447   0.118  0.00  0.00     0.034 C 
ENDBRANCH  29  30
ENDBRANCH  26  29
ENDBRANCH  21  23
ENDBRANCH   1  21
TORSDOF 8
ENDMDL
MODEL 4
REMARK VINA RESULT:    -7.647      3.401      3.953
REMARK INTER + INTRA:         -12.592
REMARK INTER:                 -10.034
REMARK INTRA:                  -2.558
REMARK CONF_INDEPENDENT:        2.386
REMARK UNBOUND:                -2.558
REMARK  8 active torsions:
REMARK  status: ('A' for Active; 'I' for Inactive)
REMARK    1  A    between atoms: C_2  and  O_3 
REMARK    2  A    between atoms: O_3  and  C_4 
REMARK    3  A    between atoms: C_7  and  N_8 
REMARK    4  A    between atoms: N_8  and  C_9 
REMARK    5  A    between atoms: C_14  and  C_15 
REMARK       I    between atoms: C_15  and  N_17 
REMARK    6  A    between atoms: N_17  and  N_18 
REMARK       I    between atoms: N_18  and  C_19 
REMARK       I    between atoms: C_19  and  N_21 
REMARK    7  A    between atoms: N_21  and  C_22 
REMARK    8  A    between atoms: C_22  and  C_23 
ROOT
ATOM      1  C   UNL d   1      25.620 -15.585  -2.106  0.00  0.00     0.143 A 
ATOM      2  N   UNL d   1      24.886 -14.860  -3.001  0.00  0.00    -0.242 NA
ATOM      3  C   UNL d   1      25.525 -14.319  -4.065  0.00  0.00     0.119 A 
ATOM      4  C   UNL d   1      26.875 -14.492  -4.301  0.00  0.00     0.020 A 
ATOM      5  C   UNL d   1      27.613 -15.278  -3.411  0.00  0.00     0.022 A 
ATOM      6  C   UNL d   1      26.996 -15.854  -2.290  0.00  0.00     0.079 A 
ENDROOT
BRANCH   6   7
ATOM      7  C   UNL d   1      27.751 -16.733  -1.306  0.00  0.00     0.274 C 
ATOM      8  O   UNL d   1      27.199 -17.354  -0.391  0.00  0.00    -0.266 OA
ATOM      9  N   UNL d   1      29.124 -16.855  -1.446  0.00  0.00    -0.262 N 
ATOM     10  H   UNL d   1      29.681 -16.488  -2.211  0.00  0.00     0.190 HD
BRANCH   9  11
ATOM     11  N   UNL d   1      29.830 -17.671  -0.528  0.00  0.00    -0.249 N 
ATOM     12  C   UNL d   1      31.185 -17.841  -0.702  0.00  0.00     0.334 C 
ATOM     13  O   UNL d   1      31.798 -17.300  -1.626  0.00  0.00    -0.246 OA
ATOM     14  N   UNL d   1      31.779 -18.647   0.227  0.00  0.00    -0.341 N 
ATOM     15  H   UNL d   1      31.209 -19.057   0.950  0.00  0.00     0.164 HD
ATOM     16  H   UNL d   1      29.281 -18.073   0.231  0.00  0.00     0.192 HD
BRANCH  14  17
ATOM     17  C   UNL d   1      33.207 -18.922   0.214  0.00  0.00     0.129 C 
BRANCH  17  18
ATOM     18  C   UNL d   1      33.930 -18.375   1.415  0.00  0.00     0.003 A 
ATOM     19  C   UNL d   1      33.297 -17.240   2.180  0.00  0.00     0.007 A 
ATOM     20  C   UNL d   1      33.504 -18.573   2.852  0.00  0.00     0.007 A 
ENDBRANCH  17  18
ENDBRANCH  14  17
ENDBRANCH   9  11
ENDBRANCH   6   7
BRANCH   1  21
ATOM     21  N   UNL d   1      24.973 -15.936  -0.903  0.00  0.00    -0.340 N 
ATOM     22  H   UNL d   1      25.615 -15.972  -0.122  0.00  0.00     0.167 HD
BRANCH  21  23
ATOM     23  C   UNL d   1      23.945 -16.915  -0.828  0.00  0.00     0.033 A 
ATOM     24  C   UNL d   1      22.602 -16.538  -0.905  0.00  0.00     0.032 A 
ATOM     25  C   UNL d   1      21.588 -17.509  -0.895  0.00  0.00     0.039 A 
ATOM     26  C   UNL d   1      21.901 -18.871  -0.900  0.00  0.00     0.068 A 
ATOM     27  C   UNL d   1      23.232 -19.258  -0.895  0.00  0.00     0.039 A 
ATOM     28  C   UNL d   1      24.232 -18.291  -0.837  0.00  0.00     0.032 A 
BRANCH  26  29
ATOM     29  O   UNL d   1      20.857 -19.749  -1.009  0.00  0.00    -0.352 OA
BRANCH  29  30
ATOM     30  C   UNL d   1      19.593 -19.245  -0.570  0.00  0.00     0.171 C 
ATOM     31  C   UNL d   1      18.822 -20.385   0.070  0.00  0.00     0.034 C 
ENDBRANCH  29  30
ENDBRANCH  26  29
ENDBRANCH  21  23
ENDBRANCH   1  21
TORSDOF 8
ENDMDL
MODEL 5
REMARK VINA RESULT:    -7.614      2.032      8.373
REMARK INTER + INTRA:         -12.437
REMARK INTER:                 -10.001
REMARK INTRA:                  -2.436
REMARK CONF_INDEPENDENT:        2.386
REMARK UNBOUND:                -2.436
REMARK  8 active torsions:
REMARK  status: ('A' for Active; 'I' for Inactive)
REMARK    1  A    between atoms: C_2  and  O_3 
REMARK    2  A    between atoms: O_3  and  C_4 
REMARK    3  A    between atoms: C_7  and  N_8 
REMARK    4  A    between atoms: N_8  and  C_9 
REMARK    5  A    between atoms: C_14  and  C_15 
REMARK       I    between atoms: C_15  and  N_17 
REMARK    6  A    between atoms: N_17  and  N_18 
REMARK       I    between atoms: N_18  and  C_19 
REMARK       I    between atoms: C_19  and  N_21 
REMARK    7  A    between atoms: N_21  and  C_22 
REMARK    8  A    between atoms: C_22  and  C_23 
ROOT
ATOM      1  C   UNL d   1      26.532 -14.714  -0.985  0.00  0.00     0.143 A 
ATOM      2  N   UNL d   1      27.033 -13.570  -1.541  0.00  0.00    -0.242 NA
ATOM      3  C   UNL d   1      26.613 -13.224  -2.780  0.00  0.00     0.119 A 
ATOM      4  C   UNL d   1      25.682 -13.955  -3.493  0.00  0.00     0.020 A 
ATOM      5  C   UNL d   1      25.134 -15.096  -2.900  0.00  0.00     0.022 A 
ATOM      6  C   UNL d   1      25.542 -15.500  -1.619  0.00  0.00     0.079 A 
ENDROOT
BRANCH   6   7
ATOM      7  C   UNL d   1      24.960 -16.720  -0.925  0.00  0.00     0.274 C 
ATOM      8  O   UNL d   1      25.629 -17.476  -0.211  0.00  0.00    -0.266 OA
ATOM      9  N   UNL d   1      23.613 -16.994  -1.089  0.00  0.00    -0.262 N 
ATOM     10  H   UNL d   1      22.935 -16.402  -1.557  0.00  0.00     0.190 HD
BRANCH   9  11
ATOM     11  N   UNL d   1      23.068 -18.134  -0.446  0.00  0.00    -0.249 N 
ATOM     12  C   UNL d   1      21.726 -18.397  -0.592  0.00  0.00     0.334 C 
ATOM     13  O   UNL d   1      20.989 -17.675  -1.270  0.00  0.00    -0.246 OA
ATOM     14  N   UNL d   1      21.290 -19.511   0.068  0.00  0.00    -0.341 N 
ATOM     15  H   UNL d   1      21.953 -20.046   0.605  0.00  0.00     0.164 HD
ATOM     16  H   UNL d   1      23.725 -18.710   0.080  0.00  0.00     0.192 HD
BRANCH  14  17
ATOM     17  C   UNL d   1      19.907 -19.956   0.008  0.00  0.00     0.129 C 
BRANCH  17  18
ATOM     18  C   UNL d   1      19.486 -20.757   1.210  0.00  0.00     0.003 A 
ATOM     19  C   UNL d   1      18.408 -20.197   2.104  0.00  0.00     0.007 A 
ATOM     20  C   UNL d   1      18.169 -21.483   1.354  0.00  0.00     0.007 A 
ENDBRANCH  17  18
ENDBRANCH  14  17
ENDBRANCH   9  11
ENDBRANCH   6   7
BRANCH   1  21
ATOM     21  N   UNL d   1      27.157 -15.161   0.198  0.00  0.00    -0.340 N 
ATOM     22  H   UNL d   1      26.879 -16.102   0.443  0.00  0.00     0.167 HD
BRANCH  21  23
ATOM     23  C   UNL d   1      27.370 -14.329   1.330  0.00  0.00     0.033 A 
ATOM     24  C   UNL d   1      26.876 -13.022   1.349  0.00  0.00     0.032 A 
ATOM     25  C   UNL d   1      27.029 -12.219   2.492  0.00  0.00     0.039 A 
ATOM     26  C   UNL d   1      27.594 -12.738   3.661  0.00  0.00     0.068 A 
ATOM     27  C   UNL d   1      28.023 -14.056   3.675  0.00  0.00     0.039 A 
ATOM     28  C   UNL d   1      27.930 -14.826   2.519  0.00  0.00     0.032 A 
BRANCH  26  29
ATOM     29  O   UNL d   1      27.598 -11.927   4.763  0.00  0.00    -0.352 OA
BRANCH  29  30
ATOM     30  C   UNL d   1      27.865 -12.590   6.002  0.00  0.00     0.171 C 
ATOM     31  C   UNL d   1      28.958 -11.827   6.725  0.00  0.00     0.034 C 
ENDBRANCH  29  30
ENDBRANCH  26  29
ENDBRANCH  21  23
ENDBRANCH   1  21
TORSDOF 8
ENDMDL
MODEL 6
REMARK VINA RESULT:    -7.366      1.909      2.593
REMARK INTER + INTRA:         -12.037
REMARK INTER:                  -9.752
REMARK INTRA:                  -2.285
REMARK CONF_INDEPENDENT:        2.386
REMARK UNBOUND:                -2.285
REMARK  8 active torsions:
REMARK  status: ('A' for Active; 'I' for Inactive)
REMARK    1  A    between atoms: C_2  and  O_3 
REMARK    2  A    between atoms: O_3  and  C_4 
REMARK    3  A    between atoms: C_7  and  N_8 
REMARK    4  A    between atoms: N_8  and  C_9 
REMARK    5  A    between atoms: C_14  and  C_15 
REMARK       I    between atoms: C_15  and  N_17 
REMARK    6  A    between atoms: N_17  and  N_18 
REMARK       I    between atoms: N_18  and  C_19 
REMARK       I    between atoms: C_19  and  N_21 
REMARK    7  A    between atoms: N_21  and  C_22 
REMARK    8  A    between atoms: C_22  and  C_23 
ROOT
ATOM      1  C   UNL d   1      27.032 -16.026  -0.227  0.00  0.00     0.143 A 
ATOM      2  N   UNL d   1      27.404 -16.919  -1.191  0.00  0.00    -0.242 NA
ATOM      3  C   UNL d   1      28.725 -17.088  -1.433  0.00  0.00     0.119 A 
ATOM      4  C   UNL d   1      29.711 -16.423  -0.730  0.00  0.00     0.020 A 
ATOM      5  C   UNL d   1      29.328 -15.548   0.291  0.00  0.00     0.022 A 
ATOM      6  C   UNL d   1      27.970 -15.335   0.575  0.00  0.00     0.079 A 
ENDROOT
BRANCH   6   7
ATOM      7  C   UNL d   1      27.505 -14.411   1.688  0.00  0.00     0.274 C 
ATOM      8  O   UNL d   1      26.630 -13.552   1.534  0.00  0.00    -0.266 OA
ATOM      9  N   UNL d   1      28.080 -14.543   2.941  0.00  0.00    -0.262 N 
ATOM     10  H   UNL d   1      28.727 -15.271   3.228  0.00  0.00     0.190 HD
BRANCH   9  11
ATOM     11  N   UNL d   1      27.651 -13.680   3.980  0.00  0.00    -0.249 N 
ATOM     12  C   UNL d   1      28.322 -13.707   5.181  0.00  0.00     0.334 C 
ATOM     13  O   UNL d   1      29.286 -14.454   5.374  0.00  0.00    -0.246 OA
ATOM     14  N   UNL d   1      27.835 -12.847   6.123  0.00  0.00    -0.341 N 
ATOM     15  H   UNL d   1      27.041 -12.272   5.891  0.00  0.00     0.164 HD
ATOM     16  H   UNL d   1      26.867 -13.066   3.760  0.00  0.00     0.192 HD
BRANCH  14  17
ATOM     17  C   UNL d   1      28.433 -12.723   7.443  0.00  0.00     0.129 C 
BRANCH  17  18
ATOM     18  C   UNL d   1      28.905 -14.034   8.009  0.00  0.00     0.003 A 
ATOM     19  C   UNL d   1      30.385 -14.234   8.221  0.00  0.00     0.007 A 
ATOM     20  C   UNL d   1      29.450 -14.234   9.404  0.00  0.00     0.007 A 
ENDBRANCH  17  18
ENDBRANCH  14  17
ENDBRANCH   9  11
ENDBRANCH   6   7
BRANCH   1  21
ATOM     21  N   UNL d   1      25.659 -15.710  -0.161  0.00  0.00    -0.340 N 
ATOM     22  H   UNL d   1      25.444 -15.109   0.624  0.00  0.00     0.167 HD
BRANCH  21  23
ATOM     23  C   UNL d   1      24.628 -16.646  -0.447  0.00  0.00     0.033 A 
ATOM     24  C   UNL d   1      24.858 -18.016  -0.298  0.00  0.00     0.032 A 
ATOM     25  C   UNL d   1      23.822 -18.940  -0.518  0.00  0.00     0.039 A 
ATOM     26  C   UNL d   1      22.524 -18.505  -0.799  0.00  0.00     0.068 A 
ATOM     27  C   UNL d   1      22.270 -17.145  -0.879  0.00  0.00     0.039 A 
ATOM     28  C   UNL d   1      23.314 -16.237  -0.726  0.00  0.00     0.032 A 
BRANCH  26  29
ATOM     29  O   UNL d   1      21.551 -19.465  -0.882  0.00  0.00    -0.352 OA
BRANCH  29  30
ATOM     30  C   UNL d   1      20.272 -19.077  -0.372  0.00  0.00     0.171 C 
ATOM     31  C   UNL d   1      19.492 -20.334  -0.035  0.00  0.00     0.034 C 
ENDBRANCH  29  30
ENDBRANCH  26  29
ENDBRANCH  21  23
ENDBRANCH   1  21
TORSDOF 8
ENDMDL
MODEL 7
REMARK VINA RESULT:    -7.282      4.006      6.630
REMARK INTER + INTRA:         -12.081
REMARK INTER:                  -9.669
REMARK INTRA:                  -2.413
REMARK CONF_INDEPENDENT:        2.386
REMARK UNBOUND:                -2.413
REMARK  8 active torsions:
REMARK  status: ('A' for Active; 'I' for Inactive)
REMARK    1  A    between atoms: C_2  and  O_3 
REMARK    2  A    between atoms: O_3  and  C_4 
REMARK    3  A    between atoms: C_7  and  N_8 
REMARK    4  A    between atoms: N_8  and  C_9 
REMARK    5  A    between atoms: C_14  and  C_15 
REMARK       I    between atoms: C_15  and  N_17 
REMARK    6  A    between atoms: N_17  and  N_18 
REMARK       I    between atoms: N_18  and  C_19 
REMARK       I    between atoms: C_19  and  N_21 
REMARK    7  A    between atoms: N_21  and  C_22 
REMARK    8  A    between atoms: C_22  and  C_23 
ROOT
ATOM      1  C   UNL d   1      24.984 -17.496  -0.825  0.00  0.00     0.143 A 
ATOM      2  N   UNL d   1      25.423 -18.437   0.062  0.00  0.00    -0.242 NA
ATOM      3  C   UNL d   1      26.668 -18.301   0.576  0.00  0.00     0.119 A 
ATOM      4  C   UNL d   1      27.499 -17.241   0.269  0.00  0.00     0.020 A 
ATOM      5  C   UNL d   1      27.026 -16.253  -0.600  0.00  0.00     0.022 A 
ATOM      6  C   UNL d   1      25.745 -16.353  -1.164  0.00  0.00     0.079 A 
ENDROOT
BRANCH   6   7
ATOM      7  C   UNL d   1      25.180 -15.294  -2.096  0.00  0.00     0.274 C 
ATOM      8  O   UNL d   1      23.982 -15.225  -2.395  0.00  0.00    -0.266 OA
ATOM      9  N   UNL d   1      26.044 -14.353  -2.629  0.00  0.00    -0.262 N 
ATOM     10  H   UNL d   1      27.021 -14.232  -2.385  0.00  0.00     0.190 HD
BRANCH   9  11
ATOM     11  N   UNL d   1      25.519 -13.366  -3.502  0.00  0.00    -0.249 N 
ATOM     12  C   UNL d   1      26.337 -12.333  -3.898  0.00  0.00     0.334 C 
ATOM     13  O   UNL d   1      27.509 -12.246  -3.522  0.00  0.00    -0.246 OA
ATOM     14  N   UNL d   1      25.744 -11.429  -4.733  0.00  0.00    -0.341 N 
ATOM     15  H   UNL d   1      24.780 -11.567  -4.991  0.00  0.00     0.164 HD
ATOM     16  H   UNL d   1      24.553 -13.499  -3.801  0.00  0.00     0.192 HD
BRANCH  14  17
ATOM     17  C   UNL d   1      26.462 -10.285  -5.271  0.00  0.00     0.129 C 
BRANCH  17  18
ATOM     18  C   UNL d   1      25.558  -9.239  -5.865  0.00  0.00     0.003 A 
ATOM     19  C   UNL d   1      24.612  -8.503  -4.950  0.00  0.00     0.007 A 
ATOM     20  C   UNL d   1      25.703  -7.748  -5.666  0.00  0.00     0.007 A 
ENDBRANCH  17  18
ENDBRANCH  14  17
ENDBRANCH   9  11
ENDBRANCH   6   7
BRANCH   1  21
ATOM     21  N   UNL d   1      23.785 -17.790  -1.508  0.00  0.00    -0.340 N 
ATOM     22  H   UNL d   1      23.521 -17.052  -2.149  0.00  0.00     0.167 HD
BRANCH  21  23
ATOM     23  C   UNL d   1      22.670 -18.419  -0.891  0.00  0.00     0.033 A 
ATOM     24  C   UNL d   1      22.518 -18.384   0.497  0.00  0.00     0.032 A 
ATOM     25  C   UNL d   1      21.384 -18.950   1.104  0.00  0.00     0.039 A 
ATOM     26  C   UNL d   1      20.345 -19.475   0.330  0.00  0.00     0.068 A 
ATOM     27  C   UNL d   1      20.455 -19.451  -1.051  0.00  0.00     0.039 A 
ATOM     28  C   UNL d   1      21.610 -18.950  -1.645  0.00  0.00     0.032 A 
BRANCH  26  29
ATOM     29  O   UNL d   1      19.227 -19.899   0.995  0.00  0.00    -0.352 OA
BRANCH  29  30
ATOM     30  C   UNL d   1      18.407 -20.823   0.275  0.00  0.00     0.171 C 
ATOM     31  C   UNL d   1      17.906 -21.874   1.247  0.00  0.00     0.034 C 
ENDBRANCH  29  30
ENDBRANCH  26  29
ENDBRANCH  21  23
ENDBRANCH   1  21
TORSDOF 8
ENDMDL
MODEL 8
REMARK VINA RESULT:    -7.189      3.763      8.760
REMARK INTER + INTRA:         -11.951
REMARK INTER:                  -9.575
REMARK INTRA:                  -2.376
REMARK CONF_INDEPENDENT:        2.386
REMARK UNBOUND:                -2.376
REMARK  8 active torsions:
REMARK  status: ('A' for Active; 'I' for Inactive)
REMARK    1  A    between atoms: C_2  and  O_3 
REMARK    2  A    between atoms: O_3  and  C_4 
REMARK    3  A    between atoms: C_7  and  N_8 
REMARK    4  A    between atoms: N_8  and  C_9 
REMARK    5  A    between atoms: C_14  and  C_15 
REMARK       I    between atoms: C_15  and  N_17 
REMARK    6  A    between atoms: N_17  and  N_18 
REMARK       I    between atoms: N_18  and  C_19 
REMARK       I    between atoms: C_19  and  N_21 
REMARK    7  A    between atoms: N_21  and  C_22 
REMARK    8  A    between atoms: C_22  and  C_23 
ROOT
ATOM      1  C   UNL d   1      26.459 -15.717  -1.179  0.00  0.00     0.143 A 
ATOM      2  N   UNL d   1      27.812 -15.748  -0.992  0.00  0.00    -0.242 NA
ATOM      3  C   UNL d   1      28.333 -16.751  -0.247  0.00  0.00     0.119 A 
ATOM      4  C   UNL d   1      27.564 -17.757   0.306  0.00  0.00     0.020 A 
ATOM      5  C   UNL d   1      26.186 -17.751   0.069  0.00  0.00     0.022 A 
ATOM      6  C   UNL d   1      25.599 -16.729  -0.692  0.00  0.00     0.079 A 
ENDROOT
BRANCH   6   7
ATOM      7  C   UNL d   1      24.110 -16.691  -0.994  0.00  0.00     0.274 C 
ATOM      8  O   UNL d   1      23.570 -15.775  -1.625  0.00  0.00    -0.266 OA
ATOM      9  N   UNL d   1      23.318 -17.738  -0.552  0.00  0.00    -0.262 N 
ATOM     10  H   UNL d   1      23.647 -18.595  -0.120  0.00  0.00     0.190 HD
BRANCH   9  11
ATOM     11  N   UNL d   1      21.928 -17.702  -0.829  0.00  0.00    -0.249 N 
ATOM     12  C   UNL d   1      21.172 -18.819  -0.556  0.00  0.00     0.334 C 
ATOM     13  O   UNL d   1      21.667 -19.842  -0.074  0.00  0.00    -0.246 OA
ATOM     14  N   UNL d   1      19.846 -18.695  -0.861  0.00  0.00    -0.341 N 
ATOM     15  H   UNL d   1      19.519 -17.828  -1.257  0.00  0.00     0.164 HD
ATOM     16  H   UNL d   1      21.567 -16.825  -1.203  0.00  0.00     0.192 HD
BRANCH  14  17
ATOM     17  C   UNL d   1      18.892 -19.765  -0.619  0.00  0.00     0.129 C 
BRANCH  17  18
ATOM     18  C   UNL d   1      19.161 -20.529   0.648  0.00  0.00     0.003 A 
ATOM     19  C   UNL d   1      18.482 -20.078   1.917  0.00  0.00     0.007 A 
ATOM     20  C   UNL d   1      18.174 -21.438   1.343  0.00  0.00     0.007 A 
ENDBRANCH  17  18
ENDBRANCH  14  17
ENDBRANCH   9  11
ENDBRANCH   6   7
BRANCH   1  21
ATOM     21  N   UNL d   1      25.933 -14.545  -1.761  0.00  0.00    -0.340 N 
ATOM     22  H   UNL d   1      24.929 -14.486  -1.657  0.00  0.00     0.167 HD
BRANCH  21  23
ATOM     23  C   UNL d   1      26.400 -14.009  -2.992  0.00  0.00     0.033 A 
ATOM     24  C   UNL d   1      27.187 -14.784  -3.847  0.00  0.00     0.032 A 
ATOM     25  C   UNL d   1      27.596 -14.278  -5.092  0.00  0.00     0.039 A 
ATOM     26  C   UNL d   1      27.149 -13.031  -5.540  0.00  0.00     0.068 A 
ATOM     27  C   UNL d   1      26.309 -12.285  -4.729  0.00  0.00     0.039 A 
ATOM     28  C   UNL d   1      25.962 -12.761  -3.468  0.00  0.00     0.032 A 
BRANCH  26  29
ATOM     29  O   UNL d   1      27.498 -12.666  -6.812  0.00  0.00    -0.352 OA
BRANCH  29  30
ATOM     30  C   UNL d   1      28.506 -13.477  -7.421  0.00  0.00     0.171 C 
ATOM     31  C   UNL d   1      29.550 -12.562  -8.031  0.00  0.00     0.034 C 
ENDBRANCH  29  30
ENDBRANCH  26  29
ENDBRANCH  21  23
ENDBRANCH   1  21
TORSDOF 8
ENDMDL
MODEL 9
REMARK VINA RESULT:    -6.902      3.490      7.342
REMARK INTER + INTRA:         -11.809
REMARK INTER:                  -9.288
REMARK INTRA:                  -2.521
REMARK CONF_INDEPENDENT:        2.386
REMARK UNBOUND:                -2.521
REMARK  8 active torsions:
REMARK  status: ('A' for Active; 'I' for Inactive)
REMARK    1  A    between atoms: C_2  and  O_3 
REMARK    2  A    between atoms: O_3  and  C_4 
REMARK    3  A    between atoms: C_7  and  N_8 
REMARK    4  A    between atoms: N_8  and  C_9 
REMARK    5  A    between atoms: C_14  and  C_15 
REMARK       I    between atoms: C_15  and  N_17 
REMARK    6  A    between atoms: N_17  and  N_18 
REMARK       I    between atoms: N_18  and  C_19 
REMARK       I    between atoms: C_19  and  N_21 
REMARK    7  A    between atoms: N_21  and  C_22 
REMARK    8  A    between atoms: C_22  and  C_23 
ROOT
ATOM      1  C   UNL d   1      26.361 -15.366  -0.688  0.00  0.00     0.143 A 
ATOM      2  N   UNL d   1      26.897 -15.787   0.497  0.00  0.00    -0.242 NA
ATOM      3  C   UNL d   1      27.660 -14.917   1.199  0.00  0.00     0.119 A 
ATOM      4  C   UNL d   1      27.895 -13.619   0.790  0.00  0.00     0.020 A 
ATOM      5  C   UNL d   1      27.303 -13.176  -0.397  0.00  0.00     0.022 A 
ATOM      6  C   UNL d   1      26.509 -14.043  -1.164  0.00  0.00     0.079 A 
ENDROOT
BRANCH   6   7
ATOM      7  C   UNL d   1      25.828 -13.601  -2.448  0.00  0.00     0.274 C 
ATOM      8  O   UNL d   1      24.916 -14.241  -2.985  0.00  0.00    -0.266 OA
ATOM      9  N   UNL d   1      26.238 -12.419  -3.042  0.00  0.00    -0.262 N 
ATOM     10  H   UNL d   1      26.895 -11.751  -2.652  0.00  0.00     0.190 HD
BRANCH   9  11
ATOM     11  N   UNL d   1      25.606 -12.007  -4.243  0.00  0.00    -0.249 N 
ATOM     12  C   UNL d   1      26.146 -10.955  -4.945  0.00  0.00     0.334 C 
ATOM     13  O   UNL d   1      27.162 -10.368  -4.564  0.00  0.00    -0.246 OA
ATOM     14  N   UNL d   1      25.467 -10.625  -6.084  0.00  0.00    -0.341 N 
ATOM     15  H   UNL d   1      24.641 -11.150  -6.325  0.00  0.00     0.164 HD
ATOM     16  H   UNL d   1      24.785 -12.542  -4.524  0.00  0.00     0.192 HD
BRANCH  14  17
ATOM     17  C   UNL d   1      25.905  -9.554  -6.965  0.00  0.00     0.129 C 
BRANCH  17  18
ATOM     18  C   UNL d   1      26.933  -9.993  -7.972  0.00  0.00     0.003 A 
ATOM     19  C   UNL d   1      27.362 -11.438  -7.977  0.00  0.00     0.007 A 
ATOM     20  C   UNL d   1      26.656 -10.861  -9.177  0.00  0.00     0.007 A 
ENDBRANCH  17  18
ENDBRANCH  14  17
ENDBRANCH   9  11
ENDBRANCH   6   7
BRANCH   1  21
ATOM     21  N   UNL d   1      25.769 -16.359  -1.495  0.00  0.00    -0.340 N 
ATOM     22  H   UNL d   1      25.821 -16.130  -2.480  0.00  0.00     0.167 HD
BRANCH  21  23
ATOM     23  C   UNL d   1      24.573 -17.041  -1.143  0.00  0.00     0.033 A 
ATOM     24  C   UNL d   1      24.628 -18.306  -0.552  0.00  0.00     0.032 A 
ATOM     25  C   UNL d   1      23.450 -18.954  -0.145  0.00  0.00     0.039 A 
ATOM     26  C   UNL d   1      22.212 -18.312  -0.236  0.00  0.00     0.068 A 
ATOM     27  C   UNL d   1      22.155 -17.028  -0.755  0.00  0.00     0.039 A 
ATOM     28  C   UNL d   1      23.316 -16.417  -1.219  0.00  0.00     0.032 A 
BRANCH  26  29
ATOM     29  O   UNL d   1      21.132 -18.966   0.291  0.00  0.00    -0.352 OA
BRANCH  29  30
ATOM     30  C   UNL d   1      20.117 -19.319  -0.653  0.00  0.00     0.171 C 
ATOM     31  C   UNL d   1      19.073 -20.156   0.061  0.00  0.00     0.034 C 
ENDBRANCH  29  30
ENDBRANCH  26  29
ENDBRANCH  21  23
ENDBRANCH   1  21
TORSDOF 8
ENDMDL
