MODEL 1
REMARK VINA RESULT:    -6.904      0.000      0.000
REMARK INTER + INTRA:         -14.637
REMARK INTER:                 -10.782
REMARK INTRA:                  -3.856
REMARK CONF_INDEPENDENT:        3.878
REMARK UNBOUND:                -3.856
REMARK  13 active torsions:
REMARK  status: ('A' for Active; 'I' for Inactive)
REMARK    1  A    between atoms: C_2  and  C_3 
REMARK    2  A    between atoms: C_3  and  C_4 
REMARK       I    between atoms: C_4  and  N_6 
REMARK    3  A    between atoms: N_6  and  C_7 
REMARK    4  A    between atoms: N_6  and  C_14 
REMARK    5  A    between atoms: C_7  and  C_8 
REMARK    6  A    between atoms: C_14  and  C_15 
REMARK    7  A    between atoms: C_14  and  C_26 
REMARK       I    between atoms: C_15  and  N_17 
REMARK    8  A    between atoms: N_17  and  C_18 
REMARK    9  A    between atoms: C_18  and  C_21 
REMARK   10  A    between atoms: C_21  and  C_22 
REMARK   11  A    between atoms: C_27  and  O_28 
REMARK   12  A    between atoms: C_30  and  O_31 
REMARK   13  A    between atoms: C_33  and  O_34 
ROOT
ATOM      1  C   UNL d   1      26.168 -13.109  -4.857  0.00  0.00     0.218 C 
ENDROOT
BRANCH   1   2
ATOM      2  N   UNL d   1      27.555 -13.368  -5.374  0.00  0.00    -0.328 N 
ATOM      3  C   UNL d   1      27.855 -14.644  -5.861  0.00  0.00     0.221 C 
ATOM      4  O   UNL d   1      27.047 -15.575  -5.807  0.00  0.00    -0.273 OA
BRANCH   3   5
ATOM      5  C   UNL d   1      29.238 -14.902  -6.441  0.00  0.00     0.103 C 
BRANCH   5   6
ATOM      6  C   UNL d   1      30.232 -15.331  -5.367  0.00  0.00     0.005 C 
ATOM      7  C   UNL d   1      29.880 -16.716  -4.854  0.00  0.00     0.005 C 
ENDBRANCH   5   6
ENDBRANCH   3   5
BRANCH   2   8
ATOM      8  C   UNL d   1      28.424 -12.217  -5.679  0.00  0.00     0.192 C 
BRANCH   8   9
ATOM      9  C   UNL d   1      28.486 -11.945  -7.134  0.00  0.00     0.071 A 
ATOM     10  C   UNL d   1      29.529 -11.805  -8.025  0.00  0.00     0.037 A 
ATOM     11  C   UNL d   1      28.952 -11.709  -9.299  0.00  0.00     0.035 A 
ATOM     12  C   UNL d   1      27.592 -11.658  -9.107  0.00  0.00     0.049 A 
ATOM     13  C   UNL d   1      26.487 -11.476 -10.063  0.00  0.00     0.076 C 
ATOM     14  O   UNL d   1      27.290 -11.818  -7.787  0.00  0.00    -0.318 OA
ENDBRANCH   8   9
ENDBRANCH   2   8
ENDBRANCH   1   2
BRANCH   1  15
ATOM     15  C   UNL d   1      25.784 -14.126  -3.778  0.00  0.00     0.246 C 
ATOM     16  O   UNL d   1      24.605 -14.141  -3.377  0.00  0.00    -0.271 OA
ATOM     17  N   UNL d   1      26.638 -15.064  -3.264  0.00  0.00    -0.351 N 
ATOM     18  H   UNL d   1      27.552 -15.205  -3.707  0.00  0.00     0.163 HD
BRANCH  17  19
ATOM     19  C   UNL d   1      26.242 -15.821  -2.068  0.00  0.00     0.026 C 
ATOM     20  C   UNL d   1      27.460 -16.700  -1.700  0.00  0.00     0.038 C 
ATOM     21  C   UNL d   1      25.905 -14.804  -0.954  0.00  0.00     0.038 C 
BRANCH  19  22
ATOM     22  C   UNL d   1      24.986 -16.713  -2.370  0.00  0.00     0.038 C 
BRANCH  22  23
ATOM     23  C   UNL d   1      24.182 -17.309  -1.155  0.00  0.00    -0.049 C 
ATOM     24  C   UNL d   1      25.095 -17.840  -0.039  0.00  0.00     0.014 C 
ATOM     25  C   UNL d   1      23.164 -16.325  -0.558  0.00  0.00     0.014 C 
ATOM     26  C   UNL d   1      23.352 -18.513  -1.627  0.00  0.00     0.014 C 
ENDBRANCH  22  23
ENDBRANCH  19  22
ENDBRANCH  17  19
ENDBRANCH   1  15
BRANCH   1  27
ATOM     27  C   UNL d   1      25.950 -11.642  -4.339  0.00  0.00     0.040 A 
ATOM     28  C   UNL d   1      26.336 -11.114  -3.071  0.00  0.00     0.080 A 
ATOM     29  C   UNL d   1      26.301  -9.752  -2.785  0.00  0.00     0.073 A 
ATOM     30  C   UNL d   1      25.979  -8.856  -3.778  0.00  0.00     0.071 A 
ATOM     31  C   UNL d   1      25.594  -9.308  -5.030  0.00  0.00     0.073 A 
ATOM     32  C   UNL d   1      25.530 -10.684  -5.289  0.00  0.00     0.080 A 
BRANCH  28  33
ATOM     33  O   UNL d   1      26.882 -11.777  -2.002  0.00  0.00    -0.360 OA
ATOM     34  H   UNL d   1      26.748 -11.247  -1.192  0.00  0.00     0.217 HD
ENDBRANCH  28  33
BRANCH  30  35
ATOM     35  O   UNL d   1      26.078  -7.517  -3.554  0.00  0.00    -0.361 OA
ATOM     36  H   UNL d   1      25.333  -7.256  -2.984  0.00  0.00     0.217 HD
ENDBRANCH  30  35
BRANCH  32  37
ATOM     37  O   UNL d   1      25.215 -11.103  -6.555  0.00  0.00    -0.360 OA
ATOM     38  H   UNL d   1      25.705 -10.555  -7.194  0.00  0.00     0.217 HD
ENDBRANCH  32  37
ENDBRANCH   1  27
TORSDOF 13
ENDMDL
MODEL 2
REMARK VINA RESULT:    -6.449      1.671      3.192
REMARK INTER + INTRA:         -15.220
REMARK INTER:                 -10.327
REMARK INTRA:                  -4.893
REMARK CONF_INDEPENDENT:        3.878
REMARK UNBOUND:                -4.893
REMARK  13 active torsions:
REMARK  status: ('A' for Active; 'I' for Inactive)
REMARK    1  A    between atoms: C_2  and  C_3 
REMARK    2  A    between atoms: C_3  and  C_4 
REMARK       I    between atoms: C_4  and  N_6 
REMARK    3  A    between atoms: N_6  and  C_7 
REMARK    4  A    between atoms: N_6  and  C_14 
REMARK    5  A    between atoms: C_7  and  C_8 
REMARK    6  A    between atoms: C_14  and  C_15 
REMARK    7  A    between atoms: C_14  and  C_26 
REMARK       I    between atoms: C_15  and  N_17 
REMARK    8  A    between atoms: N_17  and  C_18 
REMARK    9  A    between atoms: C_18  and  C_21 
REMARK   10  A    between atoms: C_21  and  C_22 
REMARK   11  A    between atoms: C_27  and  O_28 
REMARK   12  A    between atoms: C_30  and  O_31 
REMARK   13  A    between atoms: C_33  and  O_34 
ROOT
ATOM      1  C   UNL d   1      26.367 -13.288  -4.553  0.00  0.00     0.218 C 
ENDROOT
BRANCH   1   2
ATOM      2  N   UNL d   1      27.817 -13.460  -4.909  0.00  0.00    -0.328 N 
ATOM      3  C   UNL d   1      28.171 -14.506  -5.767  0.00  0.00     0.221 C 
ATOM      4  O   UNL d   1      27.347 -15.329  -6.175  0.00  0.00    -0.273 OA
BRANCH   3   5
ATOM      5  C   UNL d   1      29.628 -14.656  -6.181  0.00  0.00     0.103 C 
BRANCH   5   6
ATOM      6  C   UNL d   1      30.206 -15.997  -5.742  0.00  0.00     0.005 C 
ATOM      7  C   UNL d   1      29.785 -16.304  -4.317  0.00  0.00     0.005 C 
ENDBRANCH   5   6
ENDBRANCH   3   5
BRANCH   2   8
ATOM      8  C   UNL d   1      28.749 -12.350  -4.643  0.00  0.00     0.192 C 
BRANCH   8   9
ATOM      9  C   UNL d   1      29.436 -12.509  -3.340  0.00  0.00     0.071 A 
ATOM     10  C   UNL d   1      30.446 -11.810  -2.713  0.00  0.00     0.037 A 
ATOM     11  C   UNL d   1      30.560 -12.349  -1.425  0.00  0.00     0.035 A 
ATOM     12  C   UNL d   1      29.716 -13.432  -1.380  0.00  0.00     0.049 A 
ATOM     13  C   UNL d   1      29.477 -14.428  -0.322  0.00  0.00     0.076 C 
ATOM     14  O   UNL d   1      29.008 -13.533  -2.540  0.00  0.00    -0.318 OA
ENDBRANCH   8   9
ENDBRANCH   2   8
ENDBRANCH   1   2
BRANCH   1  15
ATOM     15  C   UNL d   1      25.924 -14.332  -3.523  0.00  0.00     0.246 C 
ATOM     16  O   UNL d   1      24.706 -14.459  -3.300  0.00  0.00    -0.271 OA
ATOM     17  N   UNL d   1      26.777 -15.182  -2.872  0.00  0.00    -0.351 N 
ATOM     18  H   UNL d   1      27.756 -15.238  -3.173  0.00  0.00     0.163 HD
BRANCH  17  19
ATOM     19  C   UNL d   1      26.281 -15.969  -1.733  0.00  0.00     0.026 C 
ATOM     20  C   UNL d   1      27.447 -16.896  -1.318  0.00  0.00     0.038 C 
ATOM     21  C   UNL d   1      25.898 -14.981  -0.608  0.00  0.00     0.038 C 
BRANCH  19  22
ATOM     22  C   UNL d   1      25.024 -16.812  -2.151  0.00  0.00     0.038 C 
BRANCH  22  23
ATOM     23  C   UNL d   1      24.123 -17.422  -1.014  0.00  0.00    -0.049 C 
ATOM     24  C   UNL d   1      23.284 -18.615  -1.493  0.00  0.00     0.014 C 
ATOM     25  C   UNL d   1      24.915 -17.825   0.240  0.00  0.00     0.014 C 
ATOM     26  C   UNL d   1      23.115 -16.366  -0.533  0.00  0.00     0.014 C 
ENDBRANCH  22  23
ENDBRANCH  19  22
ENDBRANCH  17  19
ENDBRANCH   1  15
BRANCH   1  27
ATOM     27  C   UNL d   1      26.003 -11.840  -4.065  0.00  0.00     0.040 A 
ATOM     28  C   UNL d   1      26.303 -11.262  -2.795  0.00  0.00     0.080 A 
ATOM     29  C   UNL d   1      26.138  -9.905  -2.532  0.00  0.00     0.073 A 
ATOM     30  C   UNL d   1      25.767  -9.055  -3.548  0.00  0.00     0.071 A 
ATOM     31  C   UNL d   1      25.461  -9.556  -4.804  0.00  0.00     0.073 A 
ATOM     32  C   UNL d   1      25.529 -10.936  -5.042  0.00  0.00     0.080 A 
BRANCH  28  33
ATOM     33  O   UNL d   1      26.873 -11.859  -1.701  0.00  0.00    -0.360 OA
ATOM     34  H   UNL d   1      27.251 -12.721  -1.964  0.00  0.00     0.217 HD
ENDBRANCH  28  33
BRANCH  30  35
ATOM     35  O   UNL d   1      25.739  -7.710  -3.344  0.00  0.00    -0.361 OA
ATOM     36  H   UNL d   1      24.822  -7.461  -3.134  0.00  0.00     0.217 HD
ENDBRANCH  30  35
BRANCH  32  37
ATOM     37  O   UNL d   1      25.291 -11.398  -6.310  0.00  0.00    -0.360 OA
ATOM     38  H   UNL d   1      24.410 -11.811  -6.329  0.00  0.00     0.217 HD
ENDBRANCH  32  37
ENDBRANCH   1  27
TORSDOF 13
ENDMDL
MODEL 3
REMARK VINA RESULT:    -5.978      3.557      6.929
REMARK INTER + INTRA:         -14.833
REMARK INTER:                  -9.856
REMARK INTRA:                  -4.978
REMARK CONF_INDEPENDENT:        3.878
REMARK UNBOUND:                -4.978
REMARK  13 active torsions:
REMARK  status: ('A' for Active; 'I' for Inactive)
REMARK    1  A    between atoms: C_2  and  C_3 
REMARK    2  A    between atoms: C_3  and  C_4 
REMARK       I    between atoms: C_4  and  N_6 
REMARK    3  A    between atoms: N_6  and  C_7 
REMARK    4  A    between atoms: N_6  and  C_14 
REMARK    5  A    between atoms: C_7  and  C_8 
REMARK    6  A    between atoms: C_14  and  C_15 
REMARK    7  A    between atoms: C_14  and  C_26 
REMARK       I    between atoms: C_15  and  N_17 
REMARK    8  A    between atoms: N_17  and  C_18 
REMARK    9  A    between atoms: C_18  and  C_21 
REMARK   10  A    between atoms: C_21  and  C_22 
REMARK   11  A    between atoms: C_27  and  O_28 
REMARK   12  A    between atoms: C_30  and  O_31 
REMARK   13  A    between atoms: C_33  and  O_34 
ROOT
ATOM      1  C   UNL d   1      27.504 -15.406  -1.771  0.00  0.00     0.218 C 
ENDROOT
BRANCH   1   2
ATOM      2  N   UNL d   1      26.348 -16.366  -1.745  0.00  0.00    -0.328 N 
ATOM      3  C   UNL d   1      26.236 -17.243  -0.661  0.00  0.00     0.221 C 
ATOM      4  O   UNL d   1      27.091 -17.303   0.226  0.00  0.00    -0.273 OA
BRANCH   3   5
ATOM      5  C   UNL d   1      25.038 -18.178  -0.594  0.00  0.00     0.103 C 
BRANCH   5   6
ATOM      6  C   UNL d   1      23.775 -17.450  -0.145  0.00  0.00     0.005 C 
ATOM      7  C   UNL d   1      22.544 -18.202  -0.616  0.00  0.00     0.005 C 
ENDBRANCH   5   6
ENDBRANCH   3   5
BRANCH   2   8
ATOM      8  C   UNL d   1      25.206 -16.125  -2.645  0.00  0.00     0.192 C 
BRANCH   8   9
ATOM      9  C   UNL d   1      25.417 -14.928  -3.492  0.00  0.00     0.071 A 
ATOM     10  C   UNL d   1      24.780 -13.708  -3.578  0.00  0.00     0.037 A 
ATOM     11  C   UNL d   1      25.536 -12.928  -4.465  0.00  0.00     0.035 A 
ATOM     12  C   UNL d   1      26.509 -13.753  -4.976  0.00  0.00     0.049 A 
ATOM     13  C   UNL d   1      27.535 -13.515  -6.004  0.00  0.00     0.076 C 
ATOM     14  O   UNL d   1      26.459 -14.977  -4.377  0.00  0.00    -0.318 OA
ENDBRANCH   8   9
ENDBRANCH   2   8
ENDBRANCH   1   2
BRANCH   1  15
ATOM     15  C   UNL d   1      27.439 -14.433  -0.590  0.00  0.00     0.246 C 
ATOM     16  O   UNL d   1      27.282 -13.222  -0.834  0.00  0.00    -0.271 OA
ATOM     17  N   UNL d   1      27.482 -14.812   0.724  0.00  0.00    -0.351 N 
ATOM     18  H   UNL d   1      27.416 -15.808   0.961  0.00  0.00     0.163 HD
BRANCH  17  19
ATOM     19  C   UNL d   1      27.661 -13.789   1.765  0.00  0.00     0.026 C 
ATOM     20  C   UNL d   1      28.965 -13.040   1.404  0.00  0.00     0.038 C 
ATOM     21  C   UNL d   1      26.429 -12.857   1.728  0.00  0.00     0.038 C 
BRANCH  19  22
ATOM     22  C   UNL d   1      27.780 -14.458   3.180  0.00  0.00     0.038 C 
BRANCH  22  23
ATOM     23  C   UNL d   1      28.554 -13.682   4.310  0.00  0.00    -0.049 C 
ATOM     24  C   UNL d   1      30.079 -13.810   4.184  0.00  0.00     0.014 C 
ATOM     25  C   UNL d   1      28.171 -12.197   4.400  0.00  0.00     0.014 C 
ATOM     26  C   UNL d   1      28.194 -14.276   5.682  0.00  0.00     0.014 C 
ENDBRANCH  22  23
ENDBRANCH  19  22
ENDBRANCH  17  19
ENDBRANCH   1  15
BRANCH   1  27
ATOM     27  C   UNL d   1      28.908 -16.108  -1.835  0.00  0.00     0.040 A 
ATOM     28  C   UNL d   1      29.719 -16.505  -0.730  0.00  0.00     0.080 A 
ATOM     29  C   UNL d   1      30.841 -17.316  -0.878  0.00  0.00     0.073 A 
ATOM     30  C   UNL d   1      31.140 -17.845  -2.112  0.00  0.00     0.071 A 
ATOM     31  C   UNL d   1      30.391 -17.496  -3.224  0.00  0.00     0.073 A 
ATOM     32  C   UNL d   1      29.322 -16.599  -3.094  0.00  0.00     0.080 A 
BRANCH  28  33
ATOM     33  O   UNL d   1      29.509 -16.279   0.605  0.00  0.00    -0.360 OA
ATOM     34  H   UNL d   1      29.100 -17.070   1.006  0.00  0.00     0.217 HD
ENDBRANCH  28  33
BRANCH  30  35
ATOM     35  O   UNL d   1      32.147 -18.751  -2.246  0.00  0.00    -0.361 OA
ATOM     36  H   UNL d   1      32.757 -18.417  -2.928  0.00  0.00     0.217 HD
ENDBRANCH  30  35
BRANCH  32  37
ATOM     37  O   UNL d   1      28.553 -16.325  -4.195  0.00  0.00    -0.360 OA
ATOM     38  H   UNL d   1      28.216 -15.415  -4.120  0.00  0.00     0.217 HD
ENDBRANCH  32  37
ENDBRANCH   1  27
TORSDOF 13
ENDMDL
MODEL 4
REMARK VINA RESULT:    -5.874      1.806      3.944
REMARK INTER + INTRA:         -14.750
REMARK INTER:                  -9.752
REMARK INTRA:                  -4.998
REMARK CONF_INDEPENDENT:        3.878
REMARK UNBOUND:                -4.998
REMARK  13 active torsions:
REMARK  status: ('A' for Active; 'I' for Inactive)
REMARK    1  A    between atoms: C_2  and  C_3 
REMARK    2  A    between atoms: C_3  and  C_4 
REMARK       I    between atoms: C_4  and  N_6 
REMARK    3  A    between atoms: N_6  and  C_7 
REMARK    4  A    between atoms: N_6  and  C_14 
REMARK    5  A    between atoms: C_7  and  C_8 
REMARK    6  A    between atoms: C_14  and  C_15 
REMARK    7  A    between atoms: C_14  and  C_26 
REMARK       I    between atoms: C_15  and  N_17 
REMARK    8  A    between atoms: N_17  and  C_18 
REMARK    9  A    between atoms: C_18  and  C_21 
REMARK   10  A    between atoms: C_21  and  C_22 
REMARK   11  A    between atoms: C_27  and  O_28 
REMARK   12  A    between atoms: C_30  and  O_31 
REMARK   13  A    between atoms: C_33  and  O_34 
ROOT
ATOM      1  C   UNL d   1      26.875 -14.380  -4.587  0.00  0.00     0.218 C 
ENDROOT
BRANCH   1   2
ATOM      2  N   UNL d   1      28.360 -14.567  -4.448  0.00  0.00    -0.328 N 
ATOM      3  C   UNL d   1      29.059 -15.147  -5.512  0.00  0.00     0.221 C 
ATOM      4  O   UNL d   1      28.488 -15.574  -6.519  0.00  0.00    -0.273 OA
BRANCH   3   5
ATOM      5  C   UNL d   1      30.571 -15.288  -5.407  0.00  0.00     0.103 C 
BRANCH   5   6
ATOM      6  C   UNL d   1      31.027 -16.717  -5.685  0.00  0.00     0.005 C 
ATOM      7  C   UNL d   1      30.097 -17.702  -5.001  0.00  0.00     0.005 C 
ENDBRANCH   5   6
ENDBRANCH   3   5
BRANCH   2   8
ATOM      8  C   UNL d   1      29.070 -13.836  -3.384  0.00  0.00     0.192 C 
BRANCH   8   9
ATOM      9  C   UNL d   1      29.379 -14.710  -2.229  0.00  0.00     0.071 A 
ATOM     10  C   UNL d   1      29.328 -14.524  -0.863  0.00  0.00     0.037 A 
ATOM     11  C   UNL d   1      29.594 -15.772  -0.283  0.00  0.00     0.035 A 
ATOM     12  C   UNL d   1      29.927 -16.617  -1.314  0.00  0.00     0.049 A 
ATOM     13  C   UNL d   1      30.378 -18.019  -1.308  0.00  0.00     0.076 C 
ATOM     14  O   UNL d   1      29.784 -15.986  -2.514  0.00  0.00    -0.318 OA
ENDBRANCH   8   9
ENDBRANCH   2   8
ENDBRANCH   1   2
BRANCH   1  15
ATOM     15  C   UNL d   1      26.119 -15.142  -3.494  0.00  0.00     0.246 C 
ATOM     16  O   UNL d   1      24.886 -14.988  -3.414  0.00  0.00    -0.271 OA
ATOM     17  N   UNL d   1      26.702 -16.031  -2.631  0.00  0.00    -0.351 N 
ATOM     18  H   UNL d   1      27.671 -16.326  -2.794  0.00  0.00     0.163 HD
BRANCH  17  19
ATOM     19  C   UNL d   1      25.939 -16.515  -1.471  0.00  0.00     0.026 C 
ATOM     20  C   UNL d   1      26.888 -17.468  -0.708  0.00  0.00     0.038 C 
ATOM     21  C   UNL d   1      25.544 -15.288  -0.620  0.00  0.00     0.038 C 
BRANCH  19  22
ATOM     22  C   UNL d   1      24.648 -17.276  -1.939  0.00  0.00     0.038 C 
BRANCH  22  23
ATOM     23  C   UNL d   1      23.613 -17.734  -0.844  0.00  0.00    -0.049 C 
ATOM     24  C   UNL d   1      24.286 -18.198   0.456  0.00  0.00     0.014 C 
ATOM     25  C   UNL d   1      22.557 -16.666  -0.521  0.00  0.00     0.014 C 
ATOM     26  C   UNL d   1      22.819 -18.944  -1.361  0.00  0.00     0.014 C 
ENDBRANCH  22  23
ENDBRANCH  19  22
ENDBRANCH  17  19
ENDBRANCH   1  15
BRANCH   1  27
ATOM     27  C   UNL d   1      26.428 -12.875  -4.625  0.00  0.00     0.040 A 
ATOM     28  C   UNL d   1      25.879 -12.116  -3.548  0.00  0.00     0.080 A 
ATOM     29  C   UNL d   1      25.718 -10.735  -3.610  0.00  0.00     0.073 A 
ATOM     30  C   UNL d   1      26.190 -10.044  -4.702  0.00  0.00     0.071 A 
ATOM     31  C   UNL d   1      26.732 -10.725  -5.781  0.00  0.00     0.073 A 
ATOM     32  C   UNL d   1      26.801 -12.124  -5.762  0.00  0.00     0.080 A 
BRANCH  28  33
ATOM     33  O   UNL d   1      25.530 -12.546  -2.294  0.00  0.00    -0.360 OA
ATOM     34  H   UNL d   1      24.918 -13.303  -2.371  0.00  0.00     0.217 HD
ENDBRANCH  28  33
BRANCH  30  35
ATOM     35  O   UNL d   1      26.169  -8.683  -4.716  0.00  0.00    -0.361 OA
ATOM     36  H   UNL d   1      27.088  -8.374  -4.811  0.00  0.00     0.217 HD
ENDBRANCH  30  35
BRANCH  32  37
ATOM     37  O   UNL d   1      27.407 -12.769  -6.809  0.00  0.00    -0.360 OA
ATOM     38  H   UNL d   1      28.010 -13.443  -6.451  0.00  0.00     0.217 HD
ENDBRANCH  32  37
ENDBRANCH   1  27
TORSDOF 13
ENDMDL
MODEL 5
REMARK VINA RESULT:    -5.729      3.802      6.871
REMARK INTER + INTRA:         -14.413
REMARK INTER:                  -9.607
REMARK INTRA:                  -4.806
REMARK CONF_INDEPENDENT:        3.878
REMARK UNBOUND:                -4.806
REMARK  13 active torsions:
REMARK  status: ('A' for Active; 'I' for Inactive)
REMARK    1  A    between atoms: C_2  and  C_3 
REMARK    2  A    between atoms: C_3  and  C_4 
REMARK       I    between atoms: C_4  and  N_6 
REMARK    3  A    between atoms: N_6  and  C_7 
REMARK    4  A    between atoms: N_6  and  C_14 
REMARK    5  A    between atoms: C_7  and  C_8 
REMARK    6  A    between atoms: C_14  and  C_15 
REMARK    7  A    between atoms: C_14  and  C_26 
REMARK       I    between atoms: C_15  and  N_17 
REMARK    8  A    between atoms: N_17  and  C_18 
REMARK    9  A    between atoms: C_18  and  C_21 
REMARK   10  A    between atoms: C_21  and  C_22 
REMARK   11  A    between atoms: C_27  and  O_28 
REMARK   12  A    between atoms: C_30  and  O_31 
REMARK   13  A    between atoms: C_33  and  O_34 
ROOT
ATOM      1  C   UNL d   1      28.072 -16.016   0.415  0.00  0.00     0.218 C 
ENDROOT
BRANCH   1   2
ATOM      2  N   UNL d   1      26.788 -16.569  -0.138  0.00  0.00    -0.328 N 
ATOM      3  C   UNL d   1      26.549 -17.941  -0.017  0.00  0.00     0.221 C 
ATOM      4  O   UNL d   1      27.384 -18.715   0.457  0.00  0.00    -0.273 OA
BRANCH   3   5
ATOM      5  C   UNL d   1      25.227 -18.503  -0.520  0.00  0.00     0.103 C 
BRANCH   5   6
ATOM      6  C   UNL d   1      24.081 -18.200   0.440  0.00  0.00     0.005 C 
ATOM      7  C   UNL d   1      22.833 -17.830  -0.340  0.00  0.00     0.005 C 
ENDBRANCH   5   6
ENDBRANCH   3   5
BRANCH   2   8
ATOM      8  C   UNL d   1      25.695 -15.634  -0.460  0.00  0.00     0.192 C 
BRANCH   8   9
ATOM      9  C   UNL d   1      25.691 -15.267  -1.895  0.00  0.00     0.071 A 
ATOM     10  C   UNL d   1      24.761 -14.661  -2.713  0.00  0.00     0.037 A 
ATOM     11  C   UNL d   1      25.396 -14.443  -3.943  0.00  0.00     0.035 A 
ATOM     12  C   UNL d   1      26.627 -15.047  -3.857  0.00  0.00     0.049 A 
ATOM     13  C   UNL d   1      27.692 -15.217  -4.859  0.00  0.00     0.076 C 
ATOM     14  O   UNL d   1      26.829 -15.542  -2.603  0.00  0.00    -0.318 OA
ENDBRANCH   8   9
ENDBRANCH   2   8
ENDBRANCH   1   2
BRANCH   1  15
ATOM     15  C   UNL d   1      29.248 -16.313  -0.520  0.00  0.00     0.246 C 
ATOM     16  O   UNL d   1      29.755 -15.364  -1.148  0.00  0.00    -0.271 OA
ATOM     17  N   UNL d   1      29.821 -17.547  -0.669  0.00  0.00    -0.351 N 
ATOM     18  H   UNL d   1      29.557 -18.303  -0.028  0.00  0.00     0.163 HD
BRANCH  17  19
ATOM     19  C   UNL d   1      30.773 -17.772  -1.767  0.00  0.00     0.026 C 
ATOM     20  C   UNL d   1      31.993 -16.873  -1.462  0.00  0.00     0.038 C 
ATOM     21  C   UNL d   1      31.146 -19.272  -1.769  0.00  0.00     0.038 C 
BRANCH  19  22
ATOM     22  C   UNL d   1      30.128 -17.383  -3.144  0.00  0.00     0.038 C 
BRANCH  22  23
ATOM     23  C   UNL d   1      30.815 -17.899  -4.463  0.00  0.00    -0.049 C 
ATOM     24  C   UNL d   1      32.347 -17.801  -4.415  0.00  0.00     0.014 C 
ATOM     25  C   UNL d   1      30.406 -19.331  -4.842  0.00  0.00     0.014 C 
ATOM     26  C   UNL d   1      30.374 -17.025  -5.649  0.00  0.00     0.014 C 
ENDBRANCH  22  23
ENDBRANCH  19  22
ENDBRANCH  17  19
ENDBRANCH   1  15
BRANCH   1  27
ATOM     27  C   UNL d   1      28.006 -14.484   0.755  0.00  0.00     0.040 A 
ATOM     28  C   UNL d   1      27.920 -13.403  -0.173  0.00  0.00     0.080 A 
ATOM     29  C   UNL d   1      27.645 -12.097   0.223  0.00  0.00     0.073 A 
ATOM     30  C   UNL d   1      27.345 -11.833   1.539  0.00  0.00     0.071 A 
ATOM     31  C   UNL d   1      27.413 -12.841   2.488  0.00  0.00     0.073 A 
ATOM     32  C   UNL d   1      27.790 -14.136   2.107  0.00  0.00     0.080 A 
BRANCH  28  33
ATOM     33  O   UNL d   1      27.976 -13.448  -1.542  0.00  0.00    -0.360 OA
ATOM     34  H   UNL d   1      27.953 -14.380  -1.834  0.00  0.00     0.217 HD
ENDBRANCH  28  33
BRANCH  30  35
ATOM     35  O   UNL d   1      26.936 -10.591   1.916  0.00  0.00    -0.361 OA
ATOM     36  H   UNL d   1      26.151 -10.365   1.387  0.00  0.00     0.217 HD
ENDBRANCH  30  35
BRANCH  32  37
ATOM     37  O   UNL d   1      27.780 -15.130   3.051  0.00  0.00    -0.360 OA
ATOM     38  H   UNL d   1      28.646 -15.575   3.042  0.00  0.00     0.217 HD
ENDBRANCH  32  37
ENDBRANCH   1  27
TORSDOF 13
ENDMDL
MODEL 6
REMARK VINA RESULT:    -5.712      3.200      6.295
REMARK INTER + INTRA:         -14.823
REMARK INTER:                  -9.590
REMARK INTRA:                  -5.233
REMARK CONF_INDEPENDENT:        3.878
REMARK UNBOUND:                -5.233
REMARK  13 active torsions:
REMARK  status: ('A' for Active; 'I' for Inactive)
REMARK    1  A    between atoms: C_2  and  C_3 
REMARK    2  A    between atoms: C_3  and  C_4 
REMARK       I    between atoms: C_4  and  N_6 
REMARK    3  A    between atoms: N_6  and  C_7 
REMARK    4  A    between atoms: N_6  and  C_14 
REMARK    5  A    between atoms: C_7  and  C_8 
REMARK    6  A    between atoms: C_14  and  C_15 
REMARK    7  A    between atoms: C_14  and  C_26 
REMARK       I    between atoms: C_15  and  N_17 
REMARK    8  A    between atoms: N_17  and  C_18 
REMARK    9  A    between atoms: C_18  and  C_21 
REMARK   10  A    between atoms: C_21  and  C_22 
REMARK   11  A    between atoms: C_27  and  O_28 
REMARK   12  A    between atoms: C_30  and  O_31 
REMARK   13  A    between atoms: C_33  and  O_34 
ROOT
ATOM      1  C   UNL d   1      26.726 -14.750  -1.381  0.00  0.00     0.218 C 
ENDROOT
BRANCH   1   2
ATOM      2  N   UNL d   1      27.884 -15.554  -1.903  0.00  0.00    -0.328 N 
ATOM      3  C   UNL d   1      29.035 -14.874  -2.312  0.00  0.00     0.221 C 
ATOM      4  O   UNL d   1      29.100 -13.642  -2.329  0.00  0.00    -0.273 OA
BRANCH   3   5
ATOM      5  C   UNL d   1      30.235 -15.680  -2.787  0.00  0.00     0.103 C 
BRANCH   5   6
ATOM      6  C   UNL d   1      29.965 -16.363  -4.124  0.00  0.00     0.005 C 
ATOM      7  C   UNL d   1      28.937 -15.573  -4.914  0.00  0.00     0.005 C 
ENDBRANCH   5   6
ENDBRANCH   3   5
BRANCH   2   8
ATOM      8  C   UNL d   1      27.913 -17.005  -1.645  0.00  0.00     0.192 C 
BRANCH   8   9
ATOM      9  C   UNL d   1      26.726 -17.451  -0.878  0.00  0.00     0.071 A 
ATOM     10  C   UNL d   1      26.559 -17.965   0.390  0.00  0.00     0.037 A 
ATOM     11  C   UNL d   1      25.177 -18.051   0.604  0.00  0.00     0.035 A 
ATOM     12  C   UNL d   1      24.578 -17.718  -0.586  0.00  0.00     0.049 A 
ATOM     13  C   UNL d   1      23.161 -17.710  -0.986  0.00  0.00     0.076 C 
ATOM     14  O   UNL d   1      25.513 -17.332  -1.500  0.00  0.00    -0.318 OA
ENDBRANCH   8   9
ENDBRANCH   2   8
ENDBRANCH   1   2
BRANCH   1  15
ATOM     15  C   UNL d   1      27.003 -14.241   0.036  0.00  0.00     0.246 C 
ATOM     16  O   UNL d   1      26.280 -14.654   0.962  0.00  0.00    -0.271 OA
ATOM     17  N   UNL d   1      28.036 -13.405   0.366  0.00  0.00    -0.351 N 
ATOM     18  H   UNL d   1      28.760 -13.203  -0.331  0.00  0.00     0.163 HD
BRANCH  17  19
ATOM     19  C   UNL d   1      28.064 -12.785   1.699  0.00  0.00     0.026 C 
ATOM     20  C   UNL d   1      29.348 -11.925   1.741  0.00  0.00     0.038 C 
ATOM     21  C   UNL d   1      26.787 -11.926   1.848  0.00  0.00     0.038 C 
BRANCH  19  22
ATOM     22  C   UNL d   1      28.097 -13.886   2.818  0.00  0.00     0.038 C 
BRANCH  22  23
ATOM     23  C   UNL d   1      28.617 -13.482   4.248  0.00  0.00    -0.049 C 
ATOM     24  C   UNL d   1      30.144 -13.577   4.376  0.00  0.00     0.014 C 
ATOM     25  C   UNL d   1      28.153 -12.086   4.692  0.00  0.00     0.014 C 
ATOM     26  C   UNL d   1      28.046 -14.450   5.296  0.00  0.00     0.014 C 
ENDBRANCH  22  23
ENDBRANCH  19  22
ENDBRANCH  17  19
ENDBRANCH   1  15
BRANCH   1  27
ATOM     27  C   UNL d   1      26.302 -13.567  -2.323  0.00  0.00     0.040 A 
ATOM     28  C   UNL d   1      26.761 -12.217  -2.263  0.00  0.00     0.080 A 
ATOM     29  C   UNL d   1      26.500 -11.293  -3.271  0.00  0.00     0.073 A 
ATOM     30  C   UNL d   1      25.864 -11.700  -4.420  0.00  0.00     0.071 A 
ATOM     31  C   UNL d   1      25.394 -12.999  -4.538  0.00  0.00     0.073 A 
ATOM     32  C   UNL d   1      25.565 -13.903  -3.481  0.00  0.00     0.080 A 
BRANCH  28  33
ATOM     33  O   UNL d   1      27.578 -11.636  -1.329  0.00  0.00    -0.360 OA
ATOM     34  H   UNL d   1      28.499 -11.928  -1.480  0.00  0.00     0.217 HD
ENDBRANCH  28  33
BRANCH  30  35
ATOM     35  O   UNL d   1      25.729 -10.845  -5.471  0.00  0.00    -0.361 OA
ATOM     36  H   UNL d   1      24.779 -10.670  -5.590  0.00  0.00     0.217 HD
ENDBRANCH  30  35
BRANCH  32  37
ATOM     37  O   UNL d   1      25.155 -15.200  -3.650  0.00  0.00    -0.360 OA
ATOM     38  H   UNL d   1      25.550 -15.744  -2.947  0.00  0.00     0.217 HD
ENDBRANCH  32  37
ENDBRANCH   1  27
TORSDOF 13
ENDMDL
MODEL 7
REMARK VINA RESULT:    -5.390      3.068      7.116
REMARK INTER + INTRA:         -14.755
REMARK INTER:                  -9.268
REMARK INTRA:                  -5.487
REMARK CONF_INDEPENDENT:        3.878
REMARK UNBOUND:                -5.487
REMARK  13 active torsions:
REMARK  status: ('A' for Active; 'I' for Inactive)
REMARK    1  A    between atoms: C_2  and  C_3 
REMARK    2  A    between atoms: C_3  and  C_4 
REMARK       I    between atoms: C_4  and  N_6 
REMARK    3  A    between atoms: N_6  and  C_7 
REMARK    4  A    between atoms: N_6  and  C_14 
REMARK    5  A    between atoms: C_7  and  C_8 
REMARK    6  A    between atoms: C_14  and  C_15 
REMARK    7  A    between atoms: C_14  and  C_26 
REMARK       I    between atoms: C_15  and  N_17 
REMARK    8  A    between atoms: N_17  and  C_18 
REMARK    9  A    between atoms: C_18  and  C_21 
REMARK   10  A    between atoms: C_21  and  C_22 
REMARK   11  A    between atoms: C_27  and  O_28 
REMARK   12  A    between atoms: C_30  and  O_31 
REMARK   13  A    between atoms: C_33  and  O_34 
ROOT
ATOM      1  C   UNL d   1      25.177 -15.573  -0.787  0.00  0.00     0.218 C 
ENDROOT
BRANCH   1   2
ATOM      2  N   UNL d   1      26.542 -15.777  -0.192  0.00  0.00    -0.328 N 
ATOM      3  C   UNL d   1      27.494 -16.481  -0.937  0.00  0.00     0.221 C 
ATOM      4  O   UNL d   1      27.226 -17.000  -2.023  0.00  0.00    -0.273 OA
BRANCH   3   5
ATOM      5  C   UNL d   1      28.897 -16.643  -0.370  0.00  0.00     0.103 C 
BRANCH   5   6
ATOM      6  C   UNL d   1      29.799 -17.437  -1.310  0.00  0.00     0.005 C 
ATOM      7  C   UNL d   1      31.256 -17.148  -1.001  0.00  0.00     0.005 C 
ENDBRANCH   5   6
ENDBRANCH   3   5
BRANCH   2   8
ATOM      8  C   UNL d   1      26.942 -14.953   0.963  0.00  0.00     0.192 C 
BRANCH   8   9
ATOM      9  C   UNL d   1      27.135 -13.534   0.585  0.00  0.00     0.071 A 
ATOM     10  C   UNL d   1      27.378 -12.387   1.311  0.00  0.00     0.037 A 
ATOM     11  C   UNL d   1      27.619 -11.370   0.378  0.00  0.00     0.035 A 
ATOM     12  C   UNL d   1      27.377 -11.913  -0.860  0.00  0.00     0.049 A 
ATOM     13  C   UNL d   1      27.386 -11.305  -2.201  0.00  0.00     0.076 C 
ATOM     14  O   UNL d   1      27.095 -13.242  -0.752  0.00  0.00    -0.318 OA
ENDBRANCH   8   9
ENDBRANCH   2   8
ENDBRANCH   1   2
BRANCH   1  15
ATOM     15  C   UNL d   1      25.274 -14.972  -2.193  0.00  0.00     0.246 C 
ATOM     16  O   UNL d   1      24.216 -14.701  -2.791  0.00  0.00    -0.271 OA
ATOM     17  N   UNL d   1      26.450 -14.654  -2.816  0.00  0.00    -0.351 N 
ATOM     18  H   UNL d   1      27.325 -14.683  -2.281  0.00  0.00     0.163 HD
BRANCH  17  19
ATOM     19  C   UNL d   1      26.440 -14.317  -4.248  0.00  0.00     0.026 C 
ATOM     20  C   UNL d   1      25.946 -15.586  -4.979  0.00  0.00     0.038 C 
ATOM     21  C   UNL d   1      25.479 -13.123  -4.445  0.00  0.00     0.038 C 
BRANCH  19  22
ATOM     22  C   UNL d   1      27.882 -13.925  -4.731  0.00  0.00     0.038 C 
BRANCH  22  23
ATOM     23  C   UNL d   1      29.105 -14.744  -4.174  0.00  0.00    -0.049 C 
ATOM     24  C   UNL d   1      29.486 -14.348  -2.740  0.00  0.00     0.014 C 
ATOM     25  C   UNL d   1      28.902 -16.266  -4.247  0.00  0.00     0.014 C 
ATOM     26  C   UNL d   1      30.348 -14.461  -5.033  0.00  0.00     0.014 C 
ENDBRANCH  22  23
ENDBRANCH  19  22
ENDBRANCH  17  19
ENDBRANCH   1  15
BRANCH   1  27
ATOM     27  C   UNL d   1      24.292 -16.869  -0.798  0.00  0.00     0.040 A 
ATOM     28  C   UNL d   1      24.695 -18.186  -0.424  0.00  0.00     0.080 A 
ATOM     29  C   UNL d   1      23.787 -19.228  -0.254  0.00  0.00     0.073 A 
ATOM     30  C   UNL d   1      22.438 -18.977  -0.350  0.00  0.00     0.071 A 
ATOM     31  C   UNL d   1      21.984 -17.718  -0.711  0.00  0.00     0.073 A 
ATOM     32  C   UNL d   1      22.902 -16.694  -0.982  0.00  0.00     0.080 A 
BRANCH  28  33
ATOM     33  O   UNL d   1      25.945 -18.628  -0.076  0.00  0.00    -0.360 OA
ATOM     34  H   UNL d   1      26.545 -18.534  -0.842  0.00  0.00     0.217 HD
ENDBRANCH  28  33
BRANCH  30  35
ATOM     35  O   UNL d   1      21.534 -19.949  -0.048  0.00  0.00    -0.361 OA
ATOM     36  H   UNL d   1      21.948 -20.546   0.601  0.00  0.00     0.217 HD
ENDBRANCH  30  35
BRANCH  32  37
ATOM     37  O   UNL d   1      22.426 -15.440  -1.268  0.00  0.00    -0.360 OA
ATOM     38  H   UNL d   1      22.774 -15.167  -2.134  0.00  0.00     0.217 HD
ENDBRANCH  32  37
ENDBRANCH   1  27
TORSDOF 13
ENDMDL
MODEL 8
REMARK VINA RESULT:    -5.350      2.076      4.899
REMARK INTER + INTRA:         -14.386
REMARK INTER:                  -9.227
REMARK INTRA:                  -5.159
REMARK CONF_INDEPENDENT:        3.878
REMARK UNBOUND:                -5.159
REMARK  13 active torsions:
REMARK  status: ('A' for Active; 'I' for Inactive)
REMARK    1  A    between atoms: C_2  and  C_3 
REMARK    2  A    between atoms: C_3  and  C_4 
REMARK       I    between atoms: C_4  and  N_6 
REMARK    3  A    between atoms: N_6  and  C_7 
REMARK    4  A    between atoms: N_6  and  C_14 
REMARK    5  A    between atoms: C_7  and  C_8 
REMARK    6  A    between atoms: C_14  and  C_15 
REMARK    7  A    between atoms: C_14  and  C_26 
REMARK       I    between atoms: C_15  and  N_17 
REMARK    8  A    between atoms: N_17  and  C_18 
REMARK    9  A    between atoms: C_18  and  C_21 
REMARK   10  A    between atoms: C_21  and  C_22 
REMARK   11  A    between atoms: C_27  and  O_28 
REMARK   12  A    between atoms: C_30  and  O_31 
REMARK   13  A    between atoms: C_33  and  O_34 
ROOT
ATOM      1  C   UNL d   1      27.756 -14.945  -4.909  0.00  0.00     0.218 C 
ENDROOT
BRANCH   1   2
ATOM      2  N   UNL d   1      28.989 -14.782  -4.065  0.00  0.00    -0.328 N 
ATOM      3  C   UNL d   1      28.976 -13.823  -3.047  0.00  0.00     0.221 C 
ATOM      4  O   UNL d   1      28.021 -13.062  -2.873  0.00  0.00    -0.273 OA
BRANCH   3   5
ATOM      5  C   UNL d   1      30.198 -13.689  -2.149  0.00  0.00     0.103 C 
BRANCH   5   6
ATOM      6  C   UNL d   1      29.821 -13.214  -0.749  0.00  0.00     0.005 C 
ATOM      7  C   UNL d   1      28.892 -14.217  -0.091  0.00  0.00     0.005 C 
ENDBRANCH   5   6
ENDBRANCH   3   5
BRANCH   2   8
ATOM      8  C   UNL d   1      30.013 -15.841  -4.095  0.00  0.00     0.192 C 
BRANCH   8   9
ATOM      9  C   UNL d   1      29.968 -16.684  -2.877  0.00  0.00     0.071 A 
ATOM     10  C   UNL d   1      30.894 -17.491  -2.252  0.00  0.00     0.037 A 
ATOM     11  C   UNL d   1      30.309 -17.908  -1.049  0.00  0.00     0.035 A 
ATOM     12  C   UNL d   1      29.015 -17.449  -1.067  0.00  0.00     0.049 A 
ATOM     13  C   UNL d   1      27.906 -17.648  -0.118  0.00  0.00     0.076 C 
ATOM     14  O   UNL d   1      28.795 -16.684  -2.173  0.00  0.00    -0.318 OA
ENDBRANCH   8   9
ENDBRANCH   2   8
ENDBRANCH   1   2
BRANCH   1  15
ATOM     15  C   UNL d   1      26.561 -15.386  -4.058  0.00  0.00     0.246 C 
ATOM     16  O   UNL d   1      25.561 -15.846  -4.642  0.00  0.00    -0.271 OA
ATOM     17  N   UNL d   1      26.539 -15.365  -2.690  0.00  0.00    -0.351 N 
ATOM     18  H   UNL d   1      27.408 -15.177  -2.178  0.00  0.00     0.163 HD
BRANCH  17  19
ATOM     19  C   UNL d   1      25.266 -15.574  -1.985  0.00  0.00     0.026 C 
ATOM     20  C   UNL d   1      25.533 -15.205  -0.508  0.00  0.00     0.038 C 
ATOM     21  C   UNL d   1      24.210 -14.648  -2.632  0.00  0.00     0.038 C 
BRANCH  19  22
ATOM     22  C   UNL d   1      24.807 -17.070  -2.109  0.00  0.00     0.038 C 
BRANCH  22  23
ATOM     23  C   UNL d   1      23.861 -17.656  -0.994  0.00  0.00    -0.049 C 
ATOM     24  C   UNL d   1      24.632 -18.194   0.220  0.00  0.00     0.014 C 
ATOM     25  C   UNL d   1      22.791 -16.660  -0.521  0.00  0.00     0.014 C 
ATOM     26  C   UNL d   1      23.079 -18.852  -1.560  0.00  0.00     0.014 C 
ENDBRANCH  22  23
ENDBRANCH  19  22
ENDBRANCH  17  19
ENDBRANCH   1  15
BRANCH   1  27
ATOM     27  C   UNL d   1      27.395 -13.671  -5.754  0.00  0.00     0.040 A 
ATOM     28  C   UNL d   1      26.502 -12.621  -5.383  0.00  0.00     0.080 A 
ATOM     29  C   UNL d   1      26.414 -11.428  -6.096  0.00  0.00     0.073 A 
ATOM     30  C   UNL d   1      27.277 -11.193  -7.140  0.00  0.00     0.071 A 
ATOM     31  C   UNL d   1      28.166 -12.174  -7.548  0.00  0.00     0.073 A 
ATOM     32  C   UNL d   1      28.186 -13.415  -6.896  0.00  0.00     0.080 A 
BRANCH  28  33
ATOM     33  O   UNL d   1      25.699 -12.536  -4.276  0.00  0.00    -0.360 OA
ATOM     34  H   UNL d   1      26.001 -13.183  -3.609  0.00  0.00     0.217 HD
ENDBRANCH  28  33
BRANCH  30  35
ATOM     35  O   UNL d   1      27.299  -9.978  -7.754  0.00  0.00    -0.361 OA
ATOM     36  H   UNL d   1      27.063  -9.306  -7.090  0.00  0.00     0.217 HD
ENDBRANCH  30  35
BRANCH  32  37
ATOM     37  O   UNL d   1      29.122 -14.343  -7.273  0.00  0.00    -0.360 OA
ATOM     38  H   UNL d   1      28.952 -14.598  -8.196  0.00  0.00     0.217 HD
ENDBRANCH  32  37
ENDBRANCH   1  27
TORSDOF 13
ENDMDL
MODEL 9
REMARK VINA RESULT:    -5.314      2.834      6.930
REMARK INTER + INTRA:         -14.642
REMARK INTER:                  -9.192
REMARK INTRA:                  -5.450
REMARK CONF_INDEPENDENT:        3.878
REMARK UNBOUND:                -5.450
REMARK  13 active torsions:
REMARK  status: ('A' for Active; 'I' for Inactive)
REMARK    1  A    between atoms: C_2  and  C_3 
REMARK    2  A    between atoms: C_3  and  C_4 
REMARK       I    between atoms: C_4  and  N_6 
REMARK    3  A    between atoms: N_6  and  C_7 
REMARK    4  A    between atoms: N_6  and  C_14 
REMARK    5  A    between atoms: C_7  and  C_8 
REMARK    6  A    between atoms: C_14  and  C_15 
REMARK    7  A    between atoms: C_14  and  C_26 
REMARK       I    between atoms: C_15  and  N_17 
REMARK    8  A    between atoms: N_17  and  C_18 
REMARK    9  A    between atoms: C_18  and  C_21 
REMARK   10  A    between atoms: C_21  and  C_22 
REMARK   11  A    between atoms: C_27  and  O_28 
REMARK   12  A    between atoms: C_30  and  O_31 
REMARK   13  A    between atoms: C_33  and  O_34 
ROOT
ATOM      1  C   UNL d   1      25.342 -15.339  -1.068  0.00  0.00     0.218 C 
ENDROOT
BRANCH   1   2
ATOM      2  N   UNL d   1      26.689 -15.497  -0.420  0.00  0.00    -0.328 N 
ATOM      3  C   UNL d   1      27.622 -16.346  -1.025  0.00  0.00     0.221 C 
ATOM      4  O   UNL d   1      27.348 -17.021  -2.020  0.00  0.00    -0.273 OA
BRANCH   3   5
ATOM      5  C   UNL d   1      29.009 -16.469  -0.410  0.00  0.00     0.103 C 
BRANCH   5   6
ATOM      6  C   UNL d   1      29.876 -17.469  -1.167  0.00  0.00     0.005 C 
ATOM      7  C   UNL d   1      30.360 -16.859  -2.469  0.00  0.00     0.005 C 
ENDBRANCH   5   6
ENDBRANCH   3   5
BRANCH   2   8
ATOM      8  C   UNL d   1      27.105 -14.516   0.597  0.00  0.00     0.192 C 
BRANCH   8   9
ATOM      9  C   UNL d   1      27.837 -13.376  -0.005  0.00  0.00     0.071 A 
ATOM     10  C   UNL d   1      27.874 -12.026   0.270  0.00  0.00     0.037 A 
ATOM     11  C   UNL d   1      28.874 -11.482  -0.547  0.00  0.00     0.035 A 
ATOM     12  C   UNL d   1      29.298 -12.497  -1.371  0.00  0.00     0.049 A 
ATOM     13  C   UNL d   1      30.264 -12.500  -2.482  0.00  0.00     0.076 C 
ATOM     14  O   UNL d   1      28.683 -13.668  -1.040  0.00  0.00    -0.318 OA
ENDBRANCH   8   9
ENDBRANCH   2   8
ENDBRANCH   1   2
BRANCH   1  15
ATOM     15  C   UNL d   1      25.481 -14.894  -2.527  0.00  0.00     0.246 C 
ATOM     16  O   UNL d   1      24.442 -14.660  -3.173  0.00  0.00    -0.271 OA
ATOM     17  N   UNL d   1      26.677 -14.677  -3.156  0.00  0.00    -0.351 N 
ATOM     18  H   UNL d   1      27.541 -14.673  -2.603  0.00  0.00     0.163 HD
BRANCH  17  19
ATOM     19  C   UNL d   1      26.703 -14.495  -4.615  0.00  0.00     0.026 C 
ATOM     20  C   UNL d   1      28.194 -14.526  -5.020  0.00  0.00     0.038 C 
ATOM     21  C   UNL d   1      25.906 -15.655  -5.251  0.00  0.00     0.038 C 
BRANCH  19  22
ATOM     22  C   UNL d   1      26.050 -13.122  -5.009  0.00  0.00     0.038 C 
BRANCH  22  23
ATOM     23  C   UNL d   1      26.606 -11.810  -4.340  0.00  0.00    -0.049 C 
ATOM     24  C   UNL d   1      26.333 -11.749  -2.830  0.00  0.00     0.014 C 
ATOM     25  C   UNL d   1      28.104 -11.584  -4.598  0.00  0.00     0.014 C 
ATOM     26  C   UNL d   1      25.902 -10.585  -4.945  0.00  0.00     0.014 C 
ENDBRANCH  22  23
ENDBRANCH  19  22
ENDBRANCH  17  19
ENDBRANCH   1  15
BRANCH   1  27
ATOM     27  C   UNL d   1      24.435 -16.617  -0.962  0.00  0.00     0.040 A 
ATOM     28  C   UNL d   1      24.806 -17.890  -0.434  0.00  0.00     0.080 A 
ATOM     29  C   UNL d   1      23.876 -18.894  -0.177  0.00  0.00     0.073 A 
ATOM     30  C   UNL d   1      22.535 -18.637  -0.340  0.00  0.00     0.071 A 
ATOM     31  C   UNL d   1      22.112 -17.420  -0.851  0.00  0.00     0.073 A 
ATOM     32  C   UNL d   1      23.054 -16.445  -1.206  0.00  0.00     0.080 A 
BRANCH  28  33
ATOM     33  O   UNL d   1      26.038 -18.307  -0.002  0.00  0.00    -0.360 OA
ATOM     34  H   UNL d   1      26.599 -18.510  -0.776  0.00  0.00     0.217 HD
ENDBRANCH  28  33
BRANCH  30  35
ATOM     35  O   UNL d   1      21.607 -19.557   0.040  0.00  0.00    -0.361 OA
ATOM     36  H   UNL d   1      22.063 -20.235   0.571  0.00  0.00     0.217 HD
ENDBRANCH  30  35
BRANCH  32  37
ATOM     37  O   UNL d   1      22.607 -15.224  -1.642  0.00  0.00    -0.360 OA
ATOM     38  H   UNL d   1      23.011 -15.038  -2.508  0.00  0.00     0.217 HD
ENDBRANCH  32  37
ENDBRANCH   1  27
TORSDOF 13
ENDMDL
