MODEL 1
REMARK VINA RESULT:    -6.476      0.000      0.000
REMARK INTER + INTRA:         -10.382
REMARK INTER:                  -8.266
REMARK INTRA:                  -2.116
REMARK CONF_INDEPENDENT:        1.790
REMARK UNBOUND:                -2.116
REMARK  6 active torsions:
REMARK  status: ('A' for Active; 'I' for Inactive)
REMARK    1  A    between atoms: C_4  and  C_2 
REMARK    2  A    between atoms: C_4  and  C_9 
REMARK    3  A    between atoms: C_4  and  N_5 
REMARK       I    between atoms: N_5  and  C_6 
REMARK       I    between atoms: C_6  and  N_7 
REMARK       I    between atoms: C_9  and  N_11 
REMARK    4  A    between atoms: N_11  and  N_12 
REMARK       I    between atoms: N_12  and  C_13 
REMARK    5  A    between atoms: C_13  and  C_15 
REMARK    6  A    between atoms: C_19  and  N_20 
ROOT
ATOM      1  C   UNL d   1      25.539 -10.466  -3.963  0.00  0.00     0.259 C 
ATOM      2  O   UNL d   1      25.874 -10.165  -2.812  0.00  0.00    -0.269 OA
ATOM      3  N   UNL d   1      25.287 -11.786  -4.257  0.00  0.00    -0.265 N 
ATOM      4  H   UNL d   1      25.017 -12.164  -5.161  0.00  0.00     0.190 HD
ENDROOT
BRANCH   3   5
ATOM      5  N   UNL d   1      25.415 -12.723  -3.211  0.00  0.00    -0.263 N 
ATOM      6  C   UNL d   1      25.301 -14.067  -3.509  0.00  0.00     0.270 C 
ATOM      7  O   UNL d   1      25.037 -14.471  -4.639  0.00  0.00    -0.266 OA
ATOM      8  H   UNL d   1      25.742 -12.358  -2.315  0.00  0.00     0.190 HD
BRANCH   6   9
ATOM      9  C   UNL d   1      25.484 -15.029  -2.387  0.00  0.00     0.035 A 
ATOM     10  C   UNL d   1      26.748 -15.210  -1.832  0.00  0.00     0.017 A 
ATOM     11  C   UNL d   1      26.944 -16.232  -0.912  0.00  0.00     0.003 A 
ATOM     12  C   UNL d   1      25.870 -17.033  -0.507  0.00  0.00     0.029 A 
ATOM     13  C   UNL d   1      24.577 -16.892  -1.039  0.00  0.00     0.030 A 
ATOM     14  C   UNL d   1      24.424 -15.856  -1.984  0.00  0.00     0.046 A 
BRANCH  13  15
ATOM     15  N   UNL d   1      23.529 -17.727  -0.679  0.00  0.00    -0.390 N 
ATOM     16  C   UNL d   1      23.677 -19.176  -0.520  0.00  0.00     0.149 C 
ATOM     17  C   UNL d   1      22.155 -17.249  -0.521  0.00  0.00     0.149 C 
ENDBRANCH  13  15
ENDBRANCH   6   9
ENDBRANCH   3   5
BRANCH   1  18
ATOM     18  C   UNL d   1      25.227  -9.403  -5.069  0.00  0.00     0.183 C 
BRANCH  18  19
ATOM     19  N   UNL d   1      24.241  -8.444  -4.538  0.00  0.00    -0.330 N 
ATOM     20  C   UNL d   1      23.285  -7.772  -5.225  0.00  0.00     0.314 C 
ATOM     21  N   UNL d   1      23.299  -7.866  -6.572  0.00  0.00    -0.352 N 
ATOM     22  O   UNL d   1      22.436  -7.096  -4.645  0.00  0.00    -0.248 OA
ATOM     23  H   UNL d   1      23.750  -8.651  -7.009  0.00  0.00     0.160 HD
ATOM     24  H   UNL d   1      22.403  -7.656  -6.993  0.00  0.00     0.160 HD
ATOM     25  H   UNL d   1      24.277  -8.177  -3.560  0.00  0.00     0.165 HD
ENDBRANCH  18  19
BRANCH  18  26
ATOM     26  C   UNL d   1      26.476  -8.663  -5.619  0.00  0.00     0.009 C 
ATOM     27  C   UNL d   1      27.098  -9.409  -6.801  0.00  0.00     0.012 C 
ATOM     28  C   UNL d   1      27.567  -8.319  -4.599  0.00  0.00     0.012 C 
ENDBRANCH  18  26
ENDBRANCH   1  18
TORSDOF 6
ENDMDL
MODEL 2
REMARK VINA RESULT:    -6.261      1.752      2.279
REMARK INTER + INTRA:          -9.990
REMARK INTER:                  -8.050
REMARK INTRA:                  -1.939
REMARK CONF_INDEPENDENT:        1.790
REMARK UNBOUND:                -1.939
REMARK  6 active torsions:
REMARK  status: ('A' for Active; 'I' for Inactive)
REMARK    1  A    between atoms: C_4  and  C_2 
REMARK    2  A    between atoms: C_4  and  C_9 
REMARK    3  A    between atoms: C_4  and  N_5 
REMARK       I    between atoms: N_5  and  C_6 
REMARK       I    between atoms: C_6  and  N_7 
REMARK       I    between atoms: C_9  and  N_11 
REMARK    4  A    between atoms: N_11  and  N_12 
REMARK       I    between atoms: N_12  and  C_13 
REMARK    5  A    between atoms: C_13  and  C_15 
REMARK    6  A    between atoms: C_19  and  N_20 
ROOT
ATOM      1  C   UNL d   1      26.070 -10.930  -3.814  0.00  0.00     0.259 C 
ATOM      2  O   UNL d   1      26.720 -10.792  -2.772  0.00  0.00    -0.269 OA
ATOM      3  N   UNL d   1      25.364 -12.095  -4.008  0.00  0.00    -0.265 N 
ATOM      4  H   UNL d   1      24.803 -12.334  -4.820  0.00  0.00     0.190 HD
ENDROOT
BRANCH   3   5
ATOM      5  N   UNL d   1      25.417 -13.066  -2.986  0.00  0.00    -0.263 N 
ATOM      6  C   UNL d   1      25.131 -14.379  -3.307  0.00  0.00     0.270 C 
ATOM      7  O   UNL d   1      24.779 -14.720  -4.434  0.00  0.00    -0.266 OA
ATOM      8  H   UNL d   1      25.819 -12.765  -2.097  0.00  0.00     0.190 HD
BRANCH   6   9
ATOM      9  C   UNL d   1      25.240 -15.383  -2.213  0.00  0.00     0.035 A 
ATOM     10  C   UNL d   1      26.463 -15.588  -1.581  0.00  0.00     0.017 A 
ATOM     11  C   UNL d   1      26.598 -16.644  -0.690  0.00  0.00     0.003 A 
ATOM     12  C   UNL d   1      25.500 -17.458  -0.390  0.00  0.00     0.029 A 
ATOM     13  C   UNL d   1      24.246 -17.296  -1.002  0.00  0.00     0.030 A 
ATOM     14  C   UNL d   1      24.156 -16.224  -1.915  0.00  0.00     0.046 A 
BRANCH  13  15
ATOM     15  N   UNL d   1      23.177 -18.143  -0.747  0.00  0.00    -0.390 N 
ATOM     16  C   UNL d   1      23.332 -19.583  -0.519  0.00  0.00     0.149 C 
ATOM     17  C   UNL d   1      21.785 -17.693  -0.780  0.00  0.00     0.149 C 
ENDBRANCH  13  15
ENDBRANCH   6   9
ENDBRANCH   3   5
BRANCH   1  18
ATOM     18  C   UNL d   1      25.871  -9.779  -4.858  0.00  0.00     0.183 C 
BRANCH  18  19
ATOM     19  N   UNL d   1      25.515 -10.377  -6.158  0.00  0.00    -0.330 N 
ATOM     20  C   UNL d   1      26.285 -10.459  -7.270  0.00  0.00     0.314 C 
ATOM     21  N   UNL d   1      27.468  -9.809  -7.263  0.00  0.00    -0.352 N 
ATOM     22  O   UNL d   1      25.919 -11.099  -8.256  0.00  0.00    -0.248 OA
ATOM     23  H   UNL d   1      27.905  -9.586  -6.386  0.00  0.00     0.160 HD
ATOM     24  H   UNL d   1      28.128 -10.179  -7.936  0.00  0.00     0.160 HD
ATOM     25  H   UNL d   1      24.576 -10.728  -6.308  0.00  0.00     0.165 HD
ENDBRANCH  18  19
BRANCH  18  26
ATOM     26  C   UNL d   1      24.829  -8.707  -4.439  0.00  0.00     0.009 C 
ATOM     27  C   UNL d   1      24.084  -8.142  -5.651  0.00  0.00     0.012 C 
ATOM     28  C   UNL d   1      25.349  -7.553  -3.575  0.00  0.00     0.012 C 
ENDBRANCH  18  26
ENDBRANCH   1  18
TORSDOF 6
ENDMDL
MODEL 3
REMARK VINA RESULT:    -6.039      1.549      2.095
REMARK INTER + INTRA:         -10.385
REMARK INTER:                  -7.829
REMARK INTRA:                  -2.556
REMARK CONF_INDEPENDENT:        1.790
REMARK UNBOUND:                -2.556
REMARK  6 active torsions:
REMARK  status: ('A' for Active; 'I' for Inactive)
REMARK    1  A    between atoms: C_4  and  C_2 
REMARK    2  A    between atoms: C_4  and  C_9 
REMARK    3  A    between atoms: C_4  and  N_5 
REMARK       I    between atoms: N_5  and  C_6 
REMARK       I    between atoms: C_6  and  N_7 
REMARK       I    between atoms: C_9  and  N_11 
REMARK    4  A    between atoms: N_11  and  N_12 
REMARK       I    between atoms: N_12  and  C_13 
REMARK    5  A    between atoms: C_13  and  C_15 
REMARK    6  A    between atoms: C_19  and  N_20 
ROOT
ATOM      1  C   UNL d   1      25.932 -11.547  -4.782  0.00  0.00     0.259 C 
ATOM      2  O   UNL d   1      25.715 -11.095  -3.652  0.00  0.00    -0.269 OA
ATOM      3  N   UNL d   1      26.061 -12.907  -4.940  0.00  0.00    -0.265 N 
ATOM      4  H   UNL d   1      26.250 -13.401  -5.808  0.00  0.00     0.190 HD
ENDROOT
BRANCH   3   5
ATOM      5  N   UNL d   1      25.924 -13.713  -3.789  0.00  0.00    -0.263 N 
ATOM      6  C   UNL d   1      26.255 -15.051  -3.876  0.00  0.00     0.270 C 
ATOM      7  O   UNL d   1      26.609 -15.575  -4.930  0.00  0.00    -0.266 OA
ATOM      8  H   UNL d   1      25.738 -13.222  -2.914  0.00  0.00     0.190 HD
BRANCH   6   9
ATOM      9  C   UNL d   1      26.140 -15.860  -2.632  0.00  0.00     0.035 A 
ATOM     10  C   UNL d   1      27.290 -16.247  -1.950  0.00  0.00     0.017 A 
ATOM     11  C   UNL d   1      27.184 -17.146  -0.896  0.00  0.00     0.003 A 
ATOM     12  C   UNL d   1      25.928 -17.612  -0.490  0.00  0.00     0.029 A 
ATOM     13  C   UNL d   1      24.738 -17.254  -1.147  0.00  0.00     0.030 A 
ATOM     14  C   UNL d   1      24.892 -16.356  -2.223  0.00  0.00     0.046 A 
BRANCH  13  15
ATOM     15  N   UNL d   1      23.502 -17.766  -0.779  0.00  0.00    -0.390 N 
ATOM     16  C   UNL d   1      22.331 -16.923  -0.520  0.00  0.00     0.149 C 
ATOM     17  C   UNL d   1      23.280 -19.188  -0.520  0.00  0.00     0.149 C 
ENDBRANCH  13  15
ENDBRANCH   6   9
ENDBRANCH   3   5
BRANCH   1  18
ATOM     18  C   UNL d   1      25.903 -10.666  -6.076  0.00  0.00     0.183 C 
BRANCH  18  19
ATOM     19  N   UNL d   1      26.294  -9.290  -5.720  0.00  0.00    -0.330 N 
ATOM     20  C   UNL d   1      25.663  -8.444  -4.869  0.00  0.00     0.314 C 
ATOM     21  N   UNL d   1      24.464  -8.825  -4.379  0.00  0.00    -0.352 N 
ATOM     22  O   UNL d   1      26.162  -7.364  -4.554  0.00  0.00    -0.248 OA
ATOM     23  H   UNL d   1      24.226  -9.802  -4.359  0.00  0.00     0.160 HD
ATOM     24  H   UNL d   1      24.219  -8.354  -3.518  0.00  0.00     0.160 HD
ATOM     25  H   UNL d   1      27.086  -8.857  -6.182  0.00  0.00     0.165 HD
ENDBRANCH  18  19
BRANCH  18  26
ATOM     26  C   UNL d   1      26.780 -11.205  -7.238  0.00  0.00     0.009 C 
ATOM     27  C   UNL d   1      28.184 -11.580  -6.757  0.00  0.00     0.012 C 
ATOM     28  C   UNL d   1      26.886 -10.314  -8.481  0.00  0.00     0.012 C 
ENDBRANCH  18  26
ENDBRANCH   1  18
TORSDOF 6
ENDMDL
MODEL 4
REMARK VINA RESULT:    -5.984      1.406      1.764
REMARK INTER + INTRA:         -10.133
REMARK INTER:                  -7.774
REMARK INTRA:                  -2.359
REMARK CONF_INDEPENDENT:        1.790
REMARK UNBOUND:                -2.359
REMARK  6 active torsions:
REMARK  status: ('A' for Active; 'I' for Inactive)
REMARK    1  A    between atoms: C_4  and  C_2 
REMARK    2  A    between atoms: C_4  and  C_9 
REMARK    3  A    between atoms: C_4  and  N_5 
REMARK       I    between atoms: N_5  and  C_6 
REMARK       I    between atoms: C_6  and  N_7 
REMARK       I    between atoms: C_9  and  N_11 
REMARK    4  A    between atoms: N_11  and  N_12 
REMARK       I    between atoms: N_12  and  C_13 
REMARK    5  A    between atoms: C_13  and  C_15 
REMARK    6  A    between atoms: C_19  and  N_20 
ROOT
ATOM      1  C   UNL d   1      25.846 -10.561  -3.484  0.00  0.00     0.259 C 
ATOM      2  O   UNL d   1      26.460 -10.446  -2.417  0.00  0.00    -0.269 OA
ATOM      3  N   UNL d   1      25.309 -11.784  -3.813  0.00  0.00    -0.265 N 
ATOM      4  H   UNL d   1      24.795 -12.011  -4.659  0.00  0.00     0.190 HD
ENDROOT
BRANCH   3   5
ATOM      5  N   UNL d   1      25.484 -12.841  -2.895  0.00  0.00    -0.263 N 
ATOM      6  C   UNL d   1      25.221 -14.131  -3.314  0.00  0.00     0.270 C 
ATOM      7  O   UNL d   1      24.787 -14.383  -4.436  0.00  0.00    -0.266 OA
ATOM      8  H   UNL d   1      25.949 -12.605  -2.017  0.00  0.00     0.190 HD
BRANCH   6   9
ATOM      9  C   UNL d   1      25.458 -15.225  -2.332  0.00  0.00     0.035 A 
ATOM     10  C   UNL d   1      26.761 -15.555  -1.967  0.00  0.00     0.017 A 
ATOM     11  C   UNL d   1      26.981 -16.687  -1.192  0.00  0.00     0.003 A 
ATOM     12  C   UNL d   1      25.901 -17.452  -0.737  0.00  0.00     0.029 A 
ATOM     13  C   UNL d   1      24.569 -17.162  -1.080  0.00  0.00     0.030 A 
ATOM     14  C   UNL d   1      24.390 -16.017  -1.884  0.00  0.00     0.046 A 
BRANCH  13  15
ATOM     15  N   UNL d   1      23.507 -17.958  -0.677  0.00  0.00    -0.390 N 
ATOM     16  C   UNL d   1      23.609 -19.412  -0.520  0.00  0.00     0.149 C 
ATOM     17  C   UNL d   1      22.158 -17.431  -0.466  0.00  0.00     0.149 C 
ENDBRANCH  13  15
ENDBRANCH   6   9
ENDBRANCH   3   5
BRANCH   1  18
ATOM     18  C   UNL d   1      25.503  -9.345  -4.408  0.00  0.00     0.183 C 
BRANCH  18  19
ATOM     19  N   UNL d   1      25.156  -8.190  -3.560  0.00  0.00    -0.330 N 
ATOM     20  C   UNL d   1      25.959  -7.529  -2.691  0.00  0.00     0.314 C 
ATOM     21  N   UNL d   1      27.183  -8.047  -2.451  0.00  0.00    -0.352 N 
ATOM     22  O   UNL d   1      25.588  -6.495  -2.136  0.00  0.00    -0.248 OA
ATOM     23  H   UNL d   1      27.601  -8.663  -3.127  0.00  0.00     0.160 HD
ATOM     24  H   UNL d   1      27.841  -7.363  -2.099  0.00  0.00     0.160 HD
ATOM     25  H   UNL d   1      24.201  -7.848  -3.543  0.00  0.00     0.165 HD
ENDBRANCH  18  19
BRANCH  18  26
ATOM     26  C   UNL d   1      26.621  -8.972  -5.418  0.00  0.00     0.009 C 
ATOM     27  C   UNL d   1      26.085  -8.895  -6.850  0.00  0.00     0.012 C 
ATOM     28  C   UNL d   1      27.882  -9.842  -5.390  0.00  0.00     0.012 C 
ENDBRANCH  18  26
ENDBRANCH   1  18
TORSDOF 6
ENDMDL
MODEL 5
REMARK VINA RESULT:    -5.919      4.473      6.002
REMARK INTER + INTRA:          -9.717
REMARK INTER:                  -7.708
REMARK INTRA:                  -2.008
REMARK CONF_INDEPENDENT:        1.790
REMARK UNBOUND:                -2.008
REMARK  6 active torsions:
REMARK  status: ('A' for Active; 'I' for Inactive)
REMARK    1  A    between atoms: C_4  and  C_2 
REMARK    2  A    between atoms: C_4  and  C_9 
REMARK    3  A    between atoms: C_4  and  N_5 
REMARK       I    between atoms: N_5  and  C_6 
REMARK       I    between atoms: C_6  and  N_7 
REMARK       I    between atoms: C_9  and  N_11 
REMARK    4  A    between atoms: N_11  and  N_12 
REMARK       I    between atoms: N_12  and  C_13 
REMARK    5  A    between atoms: C_13  and  C_15 
REMARK    6  A    between atoms: C_19  and  N_20 
ROOT
ATOM      1  C   UNL d   1      28.115 -14.995  -5.303  0.00  0.00     0.259 C 
ATOM      2  O   UNL d   1      27.027 -15.469  -5.650  0.00  0.00    -0.269 OA
ATOM      3  N   UNL d   1      28.514 -15.138  -3.994  0.00  0.00    -0.265 N 
ATOM      4  H   UNL d   1      29.374 -14.788  -3.582  0.00  0.00     0.190 HD
ENDROOT
BRANCH   3   5
ATOM      5  N   UNL d   1      27.652 -15.835  -3.122  0.00  0.00    -0.263 N 
ATOM      6  C   UNL d   1      28.010 -15.953  -1.793  0.00  0.00     0.270 C 
ATOM      7  O   UNL d   1      29.076 -15.524  -1.357  0.00  0.00    -0.266 OA
ATOM      8  H   UNL d   1      26.732 -16.076  -3.493  0.00  0.00     0.190 HD
BRANCH   6   9
ATOM      9  C   UNL d   1      27.055 -16.657  -0.893  0.00  0.00     0.035 A 
ATOM     10  C   UNL d   1      27.538 -17.415   0.170  0.00  0.00     0.017 A 
ATOM     11  C   UNL d   1      26.656 -18.208   0.893  0.00  0.00     0.003 A 
ATOM     12  C   UNL d   1      25.289 -18.200   0.591  0.00  0.00     0.029 A 
ATOM     13  C   UNL d   1      24.753 -17.455  -0.473  0.00  0.00     0.030 A 
ATOM     14  C   UNL d   1      25.684 -16.679  -1.195  0.00  0.00     0.046 A 
BRANCH  13  15
ATOM     15  N   UNL d   1      23.407 -17.497  -0.808  0.00  0.00    -0.390 N 
ATOM     16  C   UNL d   1      22.529 -16.324  -0.749  0.00  0.00     0.149 C 
ATOM     17  C   UNL d   1      22.716 -18.739  -1.156  0.00  0.00     0.149 C 
ENDBRANCH  13  15
ENDBRANCH   6   9
ENDBRANCH   3   5
BRANCH   1  18
ATOM     18  C   UNL d   1      29.143 -14.384  -6.312  0.00  0.00     0.183 C 
BRANCH  18  19
ATOM     19  N   UNL d   1      29.707 -15.473  -7.131  0.00  0.00    -0.330 N 
ATOM     20  C   UNL d   1      30.454 -16.523  -6.711  0.00  0.00     0.314 C 
ATOM     21  N   UNL d   1      30.859 -16.529  -5.423  0.00  0.00    -0.352 N 
ATOM     22  O   UNL d   1      30.757 -17.439  -7.475  0.00  0.00    -0.248 OA
ATOM     23  H   UNL d   1      30.352 -15.990  -4.742  0.00  0.00     0.160 HD
ATOM     24  H   UNL d   1      31.089 -17.454  -5.083  0.00  0.00     0.160 HD
ATOM     25  H   UNL d   1      29.603 -15.449  -8.139  0.00  0.00     0.165 HD
ENDBRANCH  18  19
BRANCH  18  26
ATOM     26  C   UNL d   1      28.566 -13.259  -7.214  0.00  0.00     0.009 C 
ATOM     27  C   UNL d   1      29.657 -12.599  -8.059  0.00  0.00     0.012 C 
ATOM     28  C   UNL d   1      27.740 -12.178  -6.508  0.00  0.00     0.012 C 
ENDBRANCH  18  26
ENDBRANCH   1  18
TORSDOF 6
ENDMDL
MODEL 6
REMARK VINA RESULT:    -5.768      2.646      8.895
REMARK INTER + INTRA:         -10.065
REMARK INTER:                  -7.558
REMARK INTRA:                  -2.507
REMARK CONF_INDEPENDENT:        1.790
REMARK UNBOUND:                -2.507
REMARK  6 active torsions:
REMARK  status: ('A' for Active; 'I' for Inactive)
REMARK    1  A    between atoms: C_4  and  C_2 
REMARK    2  A    between atoms: C_4  and  C_9 
REMARK    3  A    between atoms: C_4  and  N_5 
REMARK       I    between atoms: N_5  and  C_6 
REMARK       I    between atoms: C_6  and  N_7 
REMARK       I    between atoms: C_9  and  N_11 
REMARK    4  A    between atoms: N_11  and  N_12 
REMARK       I    between atoms: N_12  and  C_13 
REMARK    5  A    between atoms: C_13  and  C_15 
REMARK    6  A    between atoms: C_19  and  N_20 
ROOT
ATOM      1  C   UNL d   1      25.187 -16.434  -1.061  0.00  0.00     0.259 C 
ATOM      2  O   UNL d   1      25.898 -15.876  -0.218  0.00  0.00    -0.269 OA
ATOM      3  N   UNL d   1      24.971 -15.809  -2.268  0.00  0.00    -0.265 N 
ATOM      4  H   UNL d   1      24.402 -16.154  -3.035  0.00  0.00     0.190 HD
ENDROOT
BRANCH   3   5
ATOM      5  N   UNL d   1      25.594 -14.560  -2.475  0.00  0.00    -0.263 N 
ATOM      6  C   UNL d   1      25.352 -13.889  -3.658  0.00  0.00     0.270 C 
ATOM      7  O   UNL d   1      24.662 -14.365  -4.556  0.00  0.00    -0.266 OA
ATOM      8  H   UNL d   1      26.065 -14.150  -1.667  0.00  0.00     0.190 HD
BRANCH   6   9
ATOM      9  C   UNL d   1      25.992 -12.554  -3.823  0.00  0.00     0.035 A 
ATOM     10  C   UNL d   1      26.536 -11.906  -2.718  0.00  0.00     0.017 A 
ATOM     11  C   UNL d   1      26.968 -10.593  -2.846  0.00  0.00     0.003 A 
ATOM     12  C   UNL d   1      26.909  -9.949  -4.088  0.00  0.00     0.029 A 
ATOM     13  C   UNL d   1      26.366 -10.557  -5.232  0.00  0.00     0.030 A 
ATOM     14  C   UNL d   1      25.921 -11.884  -5.054  0.00  0.00     0.046 A 
BRANCH  13  15
ATOM     15  N   UNL d   1      26.254  -9.894  -6.446  0.00  0.00    -0.390 N 
ATOM     16  C   UNL d   1      26.669 -10.483  -7.722  0.00  0.00     0.149 C 
ATOM     17  C   UNL d   1      25.801  -8.507  -6.550  0.00  0.00     0.149 C 
ENDBRANCH  13  15
ENDBRANCH   6   9
ENDBRANCH   3   5
BRANCH   1  18
ATOM     18  C   UNL d   1      24.648 -17.894  -0.895  0.00  0.00     0.183 C 
BRANCH  18  19
ATOM     19  N   UNL d   1      25.124 -18.429   0.395  0.00  0.00    -0.330 N 
ATOM     20  C   UNL d   1      26.399 -18.482   0.850  0.00  0.00     0.314 C 
ATOM     21  N   UNL d   1      27.385 -18.138  -0.006  0.00  0.00    -0.352 N 
ATOM     22  O   UNL d   1      26.654 -18.834   2.001  0.00  0.00    -0.248 OA
ATOM     23  H   UNL d   1      27.174 -17.550  -0.793  0.00  0.00     0.160 HD
ATOM     24  H   UNL d   1      28.238 -17.860   0.462  0.00  0.00     0.160 HD
ATOM     25  H   UNL d   1      24.467 -18.874   1.026  0.00  0.00     0.165 HD
ENDBRANCH  18  19
BRANCH  18  26
ATOM     26  C   UNL d   1      23.106 -18.027  -1.012  0.00  0.00     0.009 C 
ATOM     27  C   UNL d   1      22.396 -16.738  -0.590  0.00  0.00     0.012 C 
ATOM     28  C   UNL d   1      22.468 -19.221  -0.293  0.00  0.00     0.012 C 
ENDBRANCH  18  26
ENDBRANCH   1  18
TORSDOF 6
ENDMDL
MODEL 7
REMARK VINA RESULT:    -5.643      3.913      8.965
REMARK INTER + INTRA:          -9.826
REMARK INTER:                  -7.433
REMARK INTRA:                  -2.394
REMARK CONF_INDEPENDENT:        1.790
REMARK UNBOUND:                -2.394
REMARK  6 active torsions:
REMARK  status: ('A' for Active; 'I' for Inactive)
REMARK    1  A    between atoms: C_4  and  C_2 
REMARK    2  A    between atoms: C_4  and  C_9 
REMARK    3  A    between atoms: C_4  and  N_5 
REMARK       I    between atoms: N_5  and  C_6 
REMARK       I    between atoms: C_6  and  N_7 
REMARK       I    between atoms: C_9  and  N_11 
REMARK    4  A    between atoms: N_11  and  N_12 
REMARK       I    between atoms: N_12  and  C_13 
REMARK    5  A    between atoms: C_13  and  C_15 
REMARK    6  A    between atoms: C_19  and  N_20 
ROOT
ATOM      1  C   UNL d   1      25.259 -16.645  -1.418  0.00  0.00     0.259 C 
ATOM      2  O   UNL d   1      25.915 -15.925  -0.656  0.00  0.00    -0.269 OA
ATOM      3  N   UNL d   1      25.260 -16.362  -2.764  0.00  0.00    -0.265 N 
ATOM      4  H   UNL d   1      24.758 -16.866  -3.489  0.00  0.00     0.190 HD
ENDROOT
BRANCH   3   5
ATOM      5  N   UNL d   1      26.030 -15.261  -3.198  0.00  0.00    -0.263 N 
ATOM      6  C   UNL d   1      26.124 -15.015  -4.554  0.00  0.00     0.270 C 
ATOM      7  O   UNL d   1      25.611 -15.750  -5.395  0.00  0.00    -0.266 OA
ATOM      8  H   UNL d   1      26.344 -14.616  -2.473  0.00  0.00     0.190 HD
BRANCH   6   9
ATOM      9  C   UNL d   1      26.908 -13.820  -4.973  0.00  0.00     0.035 A 
ATOM     10  C   UNL d   1      26.671 -12.590  -4.366  0.00  0.00     0.017 A 
ATOM     11  C   UNL d   1      27.276 -11.451  -4.882  0.00  0.00     0.003 A 
ATOM     12  C   UNL d   1      28.158 -11.550  -5.964  0.00  0.00     0.029 A 
ATOM     13  C   UNL d   1      28.429 -12.767  -6.613  0.00  0.00     0.030 A 
ATOM     14  C   UNL d   1      27.779 -13.895  -6.071  0.00  0.00     0.046 A 
BRANCH  13  15
ATOM     15  N   UNL d   1      29.257 -12.850  -7.723  0.00  0.00    -0.390 N 
ATOM     16  C   UNL d   1      28.805 -12.546  -9.084  0.00  0.00     0.149 C 
ATOM     17  C   UNL d   1      30.631 -13.346  -7.650  0.00  0.00     0.149 C 
ENDBRANCH  13  15
ENDBRANCH   6   9
ENDBRANCH   3   5
BRANCH   1  18
ATOM     18  C   UNL d   1      24.556 -17.965  -0.955  0.00  0.00     0.183 C 
BRANCH  18  19
ATOM     19  N   UNL d   1      25.069 -18.330   0.379  0.00  0.00    -0.330 N 
ATOM     20  C   UNL d   1      26.362 -18.381   0.784  0.00  0.00     0.314 C 
ATOM     21  N   UNL d   1      27.319 -18.216  -0.153  0.00  0.00    -0.352 N 
ATOM     22  O   UNL d   1      26.655 -18.575   1.963  0.00  0.00    -0.248 OA
ATOM     23  H   UNL d   1      27.097 -17.737  -1.009  0.00  0.00     0.160 HD
ATOM     24  H   UNL d   1      28.205 -17.916   0.233  0.00  0.00     0.160 HD
ATOM     25  H   UNL d   1      24.425 -18.645   1.095  0.00  0.00     0.165 HD
ENDBRANCH  18  19
BRANCH  18  26
ATOM     26  C   UNL d   1      23.005 -17.898  -0.950  0.00  0.00     0.009 C 
ATOM     27  C   UNL d   1      22.502 -16.518  -0.520  0.00  0.00     0.012 C 
ATOM     28  C   UNL d   1      22.280 -18.981  -0.145  0.00  0.00     0.012 C 
ENDBRANCH  18  26
ENDBRANCH   1  18
TORSDOF 6
ENDMDL
MODEL 8
REMARK VINA RESULT:    -5.583      2.688      8.775
REMARK INTER + INTRA:          -9.925
REMARK INTER:                  -7.372
REMARK INTRA:                  -2.553
REMARK CONF_INDEPENDENT:        1.790
REMARK UNBOUND:                -2.553
REMARK  6 active torsions:
REMARK  status: ('A' for Active; 'I' for Inactive)
REMARK    1  A    between atoms: C_4  and  C_2 
REMARK    2  A    between atoms: C_4  and  C_9 
REMARK    3  A    between atoms: C_4  and  N_5 
REMARK       I    between atoms: N_5  and  C_6 
REMARK       I    between atoms: C_6  and  N_7 
REMARK       I    between atoms: C_9  and  N_11 
REMARK    4  A    between atoms: N_11  and  N_12 
REMARK       I    between atoms: N_12  and  C_13 
REMARK    5  A    between atoms: C_13  and  C_15 
REMARK    6  A    between atoms: C_19  and  N_20 
ROOT
ATOM      1  C   UNL d   1      25.510 -16.534  -1.344  0.00  0.00     0.259 C 
ATOM      2  O   UNL d   1      26.425 -16.036  -0.677  0.00  0.00    -0.269 OA
ATOM      3  N   UNL d   1      25.141 -15.927  -2.522  0.00  0.00    -0.265 N 
ATOM      4  H   UNL d   1      24.403 -16.228  -3.152  0.00  0.00     0.190 HD
ENDROOT
BRANCH   3   5
ATOM      5  N   UNL d   1      25.847 -14.768  -2.908  0.00  0.00    -0.263 N 
ATOM      6  C   UNL d   1      25.379 -14.037  -3.982  0.00  0.00     0.270 C 
ATOM      7  O   UNL d   1      24.407 -14.390  -4.647  0.00  0.00    -0.266 OA
ATOM      8  H   UNL d   1      26.575 -14.449  -2.268  0.00  0.00     0.190 HD
BRANCH   6   9
ATOM      9  C   UNL d   1      26.124 -12.796  -4.333  0.00  0.00     0.035 A 
ATOM     10  C   UNL d   1      27.458 -12.877  -4.722  0.00  0.00     0.017 A 
ATOM     11  C   UNL d   1      28.192 -11.708  -4.875  0.00  0.00     0.003 A 
ATOM     12  C   UNL d   1      27.580 -10.462  -4.695  0.00  0.00     0.029 A 
ATOM     13  C   UNL d   1      26.238 -10.327  -4.300  0.00  0.00     0.030 A 
ATOM     14  C   UNL d   1      25.534 -11.538  -4.137  0.00  0.00     0.046 A 
BRANCH  13  15
ATOM     15  N   UNL d   1      25.652  -9.091  -4.064  0.00  0.00    -0.390 N 
ATOM     16  C   UNL d   1      24.681  -8.478  -4.974  0.00  0.00     0.149 C 
ATOM     17  C   UNL d   1      26.026  -8.242  -2.933  0.00  0.00     0.149 C 
ENDBRANCH  13  15
ENDBRANCH   6   9
ENDBRANCH   3   5
BRANCH   1  18
ATOM     18  C   UNL d   1      24.856 -17.914  -1.002  0.00  0.00     0.183 C 
BRANCH  18  19
ATOM     19  N   UNL d   1      25.227 -18.285   0.377  0.00  0.00    -0.330 N 
ATOM     20  C   UNL d   1      26.473 -18.446   0.884  0.00  0.00     0.314 C 
ATOM     21  N   UNL d   1      27.512 -18.403   0.022  0.00  0.00    -0.352 N 
ATOM     22  O   UNL d   1      26.655 -18.630   2.087  0.00  0.00    -0.248 OA
ATOM     23  H   UNL d   1      27.403 -17.933  -0.860  0.00  0.00     0.160 HD
ATOM     24  H   UNL d   1      28.391 -18.178   0.470  0.00  0.00     0.160 HD
ATOM     25  H   UNL d   1      24.502 -18.513   1.047  0.00  0.00     0.165 HD
ENDBRANCH  18  19
BRANCH  18  26
ATOM     26  C   UNL d   1      23.316 -17.958  -1.189  0.00  0.00     0.009 C 
ATOM     27  C   UNL d   1      22.634 -16.756  -0.531  0.00  0.00     0.012 C 
ATOM     28  C   UNL d   1      22.613 -19.248  -0.752  0.00  0.00     0.012 C 
ENDBRANCH  18  26
ENDBRANCH   1  18
TORSDOF 6
ENDMDL
MODEL 9
REMARK VINA RESULT:    -5.496      2.481      3.727
REMARK INTER + INTRA:          -9.898
REMARK INTER:                  -7.286
REMARK INTRA:                  -2.612
REMARK CONF_INDEPENDENT:        1.790
REMARK UNBOUND:                -2.612
REMARK  6 active torsions:
REMARK  status: ('A' for Active; 'I' for Inactive)
REMARK    1  A    between atoms: C_4  and  C_2 
REMARK    2  A    between atoms: C_4  and  C_9 
REMARK    3  A    between atoms: C_4  and  N_5 
REMARK       I    between atoms: N_5  and  C_6 
REMARK       I    between atoms: C_6  and  N_7 
REMARK       I    between atoms: C_9  and  N_11 
REMARK    4  A    between atoms: N_11  and  N_12 
REMARK       I    between atoms: N_12  and  C_13 
REMARK    5  A    between atoms: C_13  and  C_15 
REMARK    6  A    between atoms: C_19  and  N_20 
ROOT
ATOM      1  C   UNL d   1      26.607 -13.672  -4.892  0.00  0.00     0.259 C 
ATOM      2  O   UNL d   1      25.396 -13.903  -4.975  0.00  0.00    -0.269 OA
ATOM      3  N   UNL d   1      27.330 -14.266  -3.883  0.00  0.00    -0.265 N 
ATOM      4  H   UNL d   1      28.322 -14.151  -3.700  0.00  0.00     0.190 HD
ENDROOT
BRANCH   3   5
ATOM      5  N   UNL d   1      26.636 -15.125  -3.004  0.00  0.00    -0.263 N 
ATOM      6  C   UNL d   1      27.338 -15.727  -1.978  0.00  0.00     0.270 C 
ATOM      7  O   UNL d   1      28.552 -15.587  -1.839  0.00  0.00    -0.266 OA
ATOM      8  H   UNL d   1      25.619 -15.126  -3.083  0.00  0.00     0.190 HD
BRANCH   6   9
ATOM      9  C   UNL d   1      26.566 -16.592  -1.044  0.00  0.00     0.035 A 
ATOM     10  C   UNL d   1      27.240 -17.404  -0.136  0.00  0.00     0.017 A 
ATOM     11  C   UNL d   1      26.522 -18.334   0.605  0.00  0.00     0.003 A 
ATOM     12  C   UNL d   1      25.130 -18.412   0.481  0.00  0.00     0.029 A 
ATOM     13  C   UNL d   1      24.404 -17.616  -0.421  0.00  0.00     0.030 A 
ATOM     14  C   UNL d   1      25.172 -16.700  -1.169  0.00  0.00     0.046 A 
BRANCH  13  15
ATOM     15  N   UNL d   1      23.031 -17.739  -0.584  0.00  0.00    -0.390 N 
ATOM     16  C   UNL d   1      22.155 -16.604  -0.886  0.00  0.00     0.149 C 
ATOM     17  C   UNL d   1      22.319 -19.000  -0.373  0.00  0.00     0.149 C 
ENDBRANCH  13  15
ENDBRANCH   6   9
ENDBRANCH   3   5
BRANCH   1  18
ATOM     18  C   UNL d   1      27.400 -12.865  -5.974  0.00  0.00     0.183 C 
BRANCH  18  19
ATOM     19  N   UNL d   1      27.665 -11.511  -5.453  0.00  0.00    -0.330 N 
ATOM     20  C   UNL d   1      26.760 -10.584  -5.057  0.00  0.00     0.314 C 
ATOM     21  N   UNL d   1      25.454 -10.848  -5.277  0.00  0.00    -0.352 N 
ATOM     22  O   UNL d   1      27.112  -9.535  -4.517  0.00  0.00    -0.248 OA
ATOM     23  H   UNL d   1      25.155 -11.801  -5.394  0.00  0.00     0.160 HD
ATOM     24  H   UNL d   1      24.835 -10.325  -4.672  0.00  0.00     0.160 HD
ATOM     25  H   UNL d   1      28.617 -11.162  -5.424  0.00  0.00     0.165 HD
ENDBRANCH  18  19
BRANCH  18  26
ATOM     26  C   UNL d   1      28.716 -13.543  -6.443  0.00  0.00     0.009 C 
ATOM     27  C   UNL d   1      29.167 -13.013  -7.806  0.00  0.00     0.012 C 
ATOM     28  C   UNL d   1      28.723 -15.075  -6.461  0.00  0.00     0.012 C 
ENDBRANCH  18  26
ENDBRANCH   1  18
TORSDOF 6
ENDMDL
