MODEL 1
REMARK VINA RESULT:   -19.584      0.000      0.000
REMARK INTER + INTRA:         -23.132
REMARK INTER:                 -21.374
REMARK INTRA:                  -1.759
REMARK CONF_INDEPENDENT:        1.790
REMARK UNBOUND:                -1.759
REMARK  6 active torsions:
REMARK  status: ('A' for Active; 'I' for Inactive)
REMARK    1  A    between atoms: C_4  and  C_5 
REMARK    2  A    between atoms: C_8  and  C_9 
REMARK    3  A    between atoms: C_9  and  C_10 
REMARK    4  A    between atoms: C_10  and  C_11 
REMARK       I    between atoms: C_11  and  N_13 
REMARK    5  A    between atoms: N_13  and  N_14 
REMARK       I    between atoms: N_14  and  C_15 
REMARK       I    between atoms: C_15  and  N_17 
REMARK    6  A    between atoms: N_17  and  C_18 
ROOT
ATOM      1  C   UNL d   1      24.636 -16.438  -1.733  0.00  0.00     0.236 C 
ATOM      2  O   UNL d   1      24.678 -15.627  -0.807  0.00  0.00    -0.272 OA
ATOM      3  N   UNL d   1      25.212 -16.171  -2.967  0.00  0.00    -0.266 N 
ATOM      4  H   UNL d   1      25.209 -16.818  -3.756  0.00  0.00     0.190 HD
ENDROOT
BRANCH   1   5
ATOM      5  C   UNL d   1      23.946 -17.798  -1.599  0.00  0.00     0.112 C 
BRANCH   5   6
ATOM      6  C   UNL d   1      23.339 -18.021  -0.199  0.00  0.00     0.098 C 
BRANCH   6   7
ATOM      7  C   UNL d   1      21.904 -18.421  -0.278  0.00  0.00     0.173 A 
ATOM      8  O   UNL d   1      21.197 -18.052  -1.391  0.00  0.00    -0.196 OA
ATOM      9  N   UNL d   1      19.905 -18.577  -1.235  0.00  0.00    -0.106 NA
ATOM     10  C   UNL d   1      19.959 -19.188  -0.041  0.00  0.00     0.189 A 
ATOM     11  N   UNL d   1      21.182 -19.101   0.584  0.00  0.00    -0.204 NA
BRANCH  10  12
ATOM     12  C   UNL d   1      18.851 -19.899   0.580  0.00  0.00     0.015 A 
ATOM     13  C   UNL d   1      18.357 -19.464   1.823  0.00  0.00     0.025 A 
ATOM     14  C   UNL d   1      17.329 -20.165   2.474  0.00  0.00    -0.022 A 
ATOM     15  C   UNL d   1      16.777 -19.700   3.787  0.00  0.00     0.051 C 
ATOM     16  C   UNL d   1      16.818 -21.315   1.871  0.00  0.00     0.122 A 
ATOM     17  C   UNL d   1      17.298 -21.761   0.643  0.00  0.00     0.044 A 
ATOM     18  F   UNL d   1      15.845 -22.011   2.479  0.00  0.00    -0.206 F 
ATOM     19  C   UNL d   1      18.307 -21.047  -0.011  0.00  0.00     0.018 A 
ENDBRANCH  10  12
ENDBRANCH   6   7
ENDBRANCH   5   6
ENDBRANCH   1   5
BRANCH   3  20
ATOM     20  N   UNL d   1      25.828 -14.892  -3.222  0.00  0.00    -0.249 N 
ATOM     21  C   UNL d   1      26.529 -14.740  -4.415  0.00  0.00     0.339 C 
ATOM     22  O   UNL d   1      26.614 -15.698  -5.188  0.00  0.00    -0.245 OA
ATOM     23  N   UNL d   1      27.056 -13.471  -4.642  0.00  0.00    -0.307 N 
ATOM     24  H   UNL d   1      27.316 -12.934  -3.825  0.00  0.00     0.170 HD
ATOM     25  H   UNL d   1      25.914 -14.272  -2.422  0.00  0.00     0.192 HD
BRANCH  23  26
ATOM     26  C   UNL d   1      27.653 -13.053  -5.881  0.00  0.00     0.042 A 
ATOM     27  C   UNL d   1      28.854 -13.659  -6.309  0.00  0.00     0.030 A 
ATOM     28  C   UNL d   1      29.502 -13.251  -7.492  0.00  0.00     0.002 A 
ATOM     29  C   UNL d   1      28.985 -12.207  -8.250  0.00  0.00     0.001 A 
ATOM     30  C   UNL d   1      27.819 -11.579  -7.827  0.00  0.00     0.009 A 
ATOM     31  C   UNL d   1      27.147 -11.985  -6.651  0.00  0.00    -0.035 A 
ATOM     32  C   UNL d   1      25.959 -11.169  -6.231  0.00  0.00     0.050 C 
ENDBRANCH  23  26
ENDBRANCH   3  20
TORSDOF 6
ENDMDL
MODEL 2
REMARK VINA RESULT:   -19.488      3.723      4.254
REMARK INTER + INTRA:         -22.092
REMARK INTER:                 -21.278
REMARK INTRA:                  -0.814
REMARK CONF_INDEPENDENT:        1.790
REMARK UNBOUND:                -0.814
REMARK  6 active torsions:
REMARK  status: ('A' for Active; 'I' for Inactive)
REMARK    1  A    between atoms: C_4  and  C_5 
REMARK    2  A    between atoms: C_8  and  C_9 
REMARK    3  A    between atoms: C_9  and  C_10 
REMARK    4  A    between atoms: C_10  and  C_11 
REMARK       I    between atoms: C_11  and  N_13 
REMARK    5  A    between atoms: N_13  and  N_14 
REMARK       I    between atoms: N_14  and  C_15 
REMARK       I    between atoms: C_15  and  N_17 
REMARK    6  A    between atoms: N_17  and  C_18 
ROOT
ATOM      1  C   UNL d   1      25.211 -16.589  -0.309  0.00  0.00     0.236 C 
ATOM      2  O   UNL d   1      25.689 -15.469  -0.495  0.00  0.00    -0.272 OA
ATOM      3  N   UNL d   1      25.959 -17.621   0.238  0.00  0.00    -0.266 N 
ATOM      4  H   UNL d   1      25.600 -18.560   0.418  0.00  0.00     0.190 HD
ENDROOT
BRANCH   1   5
ATOM      5  C   UNL d   1      23.763 -16.931  -0.669  0.00  0.00     0.112 C 
BRANCH   5   6
ATOM      6  C   UNL d   1      23.459 -18.437  -0.541  0.00  0.00     0.098 C 
BRANCH   6   7
ATOM      7  C   UNL d   1      21.991 -18.703  -0.513  0.00  0.00     0.173 A 
ATOM      8  O   UNL d   1      21.221 -18.145  -1.497  0.00  0.00    -0.196 OA
ATOM      9  N   UNL d   1      19.905 -18.576  -1.268  0.00  0.00    -0.106 NA
ATOM     10  C   UNL d   1      20.013 -19.329  -0.161  0.00  0.00     0.189 A 
ATOM     11  N   UNL d   1      21.293 -19.420   0.338  0.00  0.00    -0.204 NA
BRANCH  10  12
ATOM     12  C   UNL d   1      18.906 -20.015   0.489  0.00  0.00     0.015 A 
ATOM     13  C   UNL d   1      18.419 -19.537   1.717  0.00  0.00     0.025 A 
ATOM     14  C   UNL d   1      17.392 -20.212   2.396  0.00  0.00    -0.022 A 
ATOM     15  C   UNL d   1      16.847 -19.700   3.695  0.00  0.00     0.051 C 
ATOM     16  C   UNL d   1      16.876 -21.381   1.836  0.00  0.00     0.122 A 
ATOM     17  C   UNL d   1      17.349 -21.870   0.622  0.00  0.00     0.044 A 
ATOM     18  F   UNL d   1      15.904 -22.053   2.472  0.00  0.00    -0.206 F 
ATOM     19  C   UNL d   1      18.357 -21.182  -0.060  0.00  0.00     0.018 A 
ENDBRANCH  10  12
ENDBRANCH   6   7
ENDBRANCH   5   6
ENDBRANCH   1   5
BRANCH   3  20
ATOM     20  N   UNL d   1      27.353 -17.426   0.549  0.00  0.00    -0.249 N 
ATOM     21  C   UNL d   1      28.211 -17.108  -0.500  0.00  0.00     0.339 C 
ATOM     22  O   UNL d   1      27.755 -17.027  -1.645  0.00  0.00    -0.245 OA
ATOM     23  N   UNL d   1      29.535 -16.873  -0.142  0.00  0.00    -0.307 N 
ATOM     24  H   UNL d   1      29.882 -17.371   0.667  0.00  0.00     0.170 HD
ATOM     25  H   UNL d   1      27.659 -17.763   1.457  0.00  0.00     0.192 HD
BRANCH  23  26
ATOM     26  C   UNL d   1      30.536 -16.358  -1.037  0.00  0.00     0.042 A 
ATOM     27  C   UNL d   1      30.404 -16.582  -2.424  0.00  0.00     0.030 A 
ATOM     28  C   UNL d   1      31.383 -16.139  -3.336  0.00  0.00     0.002 A 
ATOM     29  C   UNL d   1      32.528 -15.497  -2.878  0.00  0.00     0.001 A 
ATOM     30  C   UNL d   1      32.688 -15.295  -1.512  0.00  0.00     0.009 A 
ATOM     31  C   UNL d   1      31.710 -15.719  -0.584  0.00  0.00    -0.035 A 
ATOM     32  C   UNL d   1      32.034 -15.547   0.872  0.00  0.00     0.050 C 
ENDBRANCH  23  26
ENDBRANCH   3  20
TORSDOF 6
ENDMDL
MODEL 3
REMARK VINA RESULT:   -19.251      1.806      2.589
REMARK INTER + INTRA:         -21.872
REMARK INTER:                 -21.041
REMARK INTRA:                  -0.832
REMARK CONF_INDEPENDENT:        1.790
REMARK UNBOUND:                -0.832
REMARK  6 active torsions:
REMARK  status: ('A' for Active; 'I' for Inactive)
REMARK    1  A    between atoms: C_4  and  C_5 
REMARK    2  A    between atoms: C_8  and  C_9 
REMARK    3  A    between atoms: C_9  and  C_10 
REMARK    4  A    between atoms: C_10  and  C_11 
REMARK       I    between atoms: C_11  and  N_13 
REMARK    5  A    between atoms: N_13  and  N_14 
REMARK       I    between atoms: N_14  and  C_15 
REMARK       I    between atoms: C_15  and  N_17 
REMARK    6  A    between atoms: N_17  and  C_18 
ROOT
ATOM      1  C   UNL d   1      24.801 -16.270  -0.682  0.00  0.00     0.236 C 
ATOM      2  O   UNL d   1      24.555 -15.907  -1.833  0.00  0.00    -0.272 OA
ATOM      3  N   UNL d   1      25.985 -15.932  -0.044  0.00  0.00    -0.266 N 
ATOM      4  H   UNL d   1      26.223 -16.203   0.911  0.00  0.00     0.190 HD
ENDROOT
BRANCH   1   5
ATOM      5  C   UNL d   1      23.824 -17.124   0.132  0.00  0.00     0.112 C 
BRANCH   5   6
ATOM      6  C   UNL d   1      23.464 -18.449  -0.571  0.00  0.00     0.098 C 
BRANCH   6   7
ATOM      7  C   UNL d   1      21.996 -18.712  -0.533  0.00  0.00     0.173 A 
ATOM      8  O   UNL d   1      21.220 -18.146  -1.508  0.00  0.00    -0.196 OA
ATOM      9  N   UNL d   1      19.905 -18.576  -1.270  0.00  0.00    -0.106 NA
ATOM     10  C   UNL d   1      20.020 -19.336  -0.169  0.00  0.00     0.189 A 
ATOM     11  N   UNL d   1      21.304 -19.433   0.319  0.00  0.00    -0.204 NA
BRANCH  10  12
ATOM     12  C   UNL d   1      18.917 -20.023   0.485  0.00  0.00     0.015 A 
ATOM     13  C   UNL d   1      18.427 -19.540   1.711  0.00  0.00     0.025 A 
ATOM     14  C   UNL d   1      17.405 -20.217   2.395  0.00  0.00    -0.022 A 
ATOM     15  C   UNL d   1      16.857 -19.700   3.690  0.00  0.00     0.051 C 
ATOM     16  C   UNL d   1      16.894 -21.392   1.842  0.00  0.00     0.122 A 
ATOM     17  C   UNL d   1      17.370 -21.886   0.630  0.00  0.00     0.044 A 
ATOM     18  F   UNL d   1      15.926 -22.065   2.482  0.00  0.00    -0.206 F 
ATOM     19  C   UNL d   1      18.374 -21.196  -0.056  0.00  0.00     0.018 A 
ENDBRANCH  10  12
ENDBRANCH   6   7
ENDBRANCH   5   6
ENDBRANCH   1   5
BRANCH   3  20
ATOM     20  N   UNL d   1      27.003 -15.188  -0.744  0.00  0.00    -0.249 N 
ATOM     21  C   UNL d   1      27.394 -15.652  -1.997  0.00  0.00     0.339 C 
ATOM     22  O   UNL d   1      26.877 -16.679  -2.446  0.00  0.00    -0.245 OA
ATOM     23  N   UNL d   1      28.337 -14.869  -2.658  0.00  0.00    -0.307 N 
ATOM     24  H   UNL d   1      28.987 -14.355  -2.079  0.00  0.00     0.170 HD
ATOM     25  H   UNL d   1      27.533 -14.525  -0.187  0.00  0.00     0.192 HD
BRANCH  23  26
ATOM     26  C   UNL d   1      28.738 -15.067  -4.025  0.00  0.00     0.042 A 
ATOM     27  C   UNL d   1      28.113 -14.317  -5.044  0.00  0.00     0.030 A 
ATOM     28  C   UNL d   1      28.438 -14.509  -6.402  0.00  0.00     0.002 A 
ATOM     29  C   UNL d   1      29.363 -15.478  -6.770  0.00  0.00     0.001 A 
ATOM     30  C   UNL d   1      29.966 -16.247  -5.781  0.00  0.00     0.009 A 
ATOM     31  C   UNL d   1      29.664 -16.058  -4.413  0.00  0.00    -0.035 A 
ATOM     32  C   UNL d   1      30.291 -17.013  -3.440  0.00  0.00     0.050 C 
ENDBRANCH  23  26
ENDBRANCH   3  20
TORSDOF 6
ENDMDL
MODEL 4
REMARK VINA RESULT:   -18.867      1.973      2.679
REMARK INTER + INTRA:         -21.572
REMARK INTER:                 -20.657
REMARK INTRA:                  -0.915
REMARK CONF_INDEPENDENT:        1.790
REMARK UNBOUND:                -0.915
REMARK  6 active torsions:
REMARK  status: ('A' for Active; 'I' for Inactive)
REMARK    1  A    between atoms: C_4  and  C_5 
REMARK    2  A    between atoms: C_8  and  C_9 
REMARK    3  A    between atoms: C_9  and  C_10 
REMARK    4  A    between atoms: C_10  and  C_11 
REMARK       I    between atoms: C_11  and  N_13 
REMARK    5  A    between atoms: N_13  and  N_14 
REMARK       I    between atoms: N_14  and  C_15 
REMARK       I    between atoms: C_15  and  N_17 
REMARK    6  A    between atoms: N_17  and  C_18 
ROOT
ATOM      1  C   UNL d   1      24.869 -16.567  -1.479  0.00  0.00     0.236 C 
ATOM      2  O   UNL d   1      24.854 -15.919  -0.432  0.00  0.00    -0.272 OA
ATOM      3  N   UNL d   1      25.781 -16.303  -2.490  0.00  0.00    -0.266 N 
ATOM      4  H   UNL d   1      25.835 -16.821  -3.368  0.00  0.00     0.190 HD
ENDROOT
BRANCH   1   5
ATOM      5  C   UNL d   1      23.885 -17.708  -1.750  0.00  0.00     0.112 C 
BRANCH   5   6
ATOM      6  C   UNL d   1      23.442 -18.430  -0.461  0.00  0.00     0.098 C 
BRANCH   6   7
ATOM      7  C   UNL d   1      21.974 -18.700  -0.456  0.00  0.00     0.173 A 
ATOM      8  O   UNL d   1      21.221 -18.156  -1.462  0.00  0.00    -0.196 OA
ATOM      9  N   UNL d   1      19.902 -18.588  -1.250  0.00  0.00    -0.106 NA
ATOM     10  C   UNL d   1      19.992 -19.327  -0.132  0.00  0.00     0.189 A 
ATOM     11  N   UNL d   1      21.263 -19.407   0.391  0.00  0.00    -0.204 NA
BRANCH  10  12
ATOM     12  C   UNL d   1      18.876 -20.007   0.507  0.00  0.00     0.015 A 
ATOM     13  C   UNL d   1      18.383 -19.531   1.734  0.00  0.00     0.025 A 
ATOM     14  C   UNL d   1      17.347 -20.202   2.403  0.00  0.00    -0.022 A 
ATOM     15  C   UNL d   1      16.797 -19.692   3.700  0.00  0.00     0.051 C 
ATOM     16  C   UNL d   1      16.825 -21.364   1.833  0.00  0.00     0.122 A 
ATOM     17  C   UNL d   1      17.303 -21.851   0.620  0.00  0.00     0.044 A 
ATOM     18  F   UNL d   1      15.844 -22.031   2.459  0.00  0.00    -0.206 F 
ATOM     19  C   UNL d   1      18.321 -21.167  -0.052  0.00  0.00     0.018 A 
ENDBRANCH  10  12
ENDBRANCH   6   7
ENDBRANCH   5   6
ENDBRANCH   1   5
BRANCH   3  20
ATOM     20  N   UNL d   1      26.708 -15.205  -2.367  0.00  0.00    -0.249 N 
ATOM     21  C   UNL d   1      26.266 -13.941  -2.749  0.00  0.00     0.339 C 
ATOM     22  O   UNL d   1      25.122 -13.814  -3.193  0.00  0.00    -0.245 OA
ATOM     23  N   UNL d   1      27.176 -12.905  -2.557  0.00  0.00    -0.307 N 
ATOM     24  H   UNL d   1      28.157 -13.144  -2.622  0.00  0.00     0.170 HD
ATOM     25  H   UNL d   1      27.683 -15.457  -2.239  0.00  0.00     0.192 HD
BRANCH  23  26
ATOM     26  C   UNL d   1      26.860 -11.511  -2.714  0.00  0.00     0.042 A 
ATOM     27  C   UNL d   1      27.028 -10.637  -1.619  0.00  0.00     0.030 A 
ATOM     28  C   UNL d   1      26.686  -9.272  -1.709  0.00  0.00     0.002 A 
ATOM     29  C   UNL d   1      26.137  -8.764  -2.880  0.00  0.00     0.001 A 
ATOM     30  C   UNL d   1      25.937  -9.618  -3.959  0.00  0.00     0.009 A 
ATOM     31  C   UNL d   1      26.288 -10.986  -3.892  0.00  0.00    -0.035 A 
ATOM     32  C   UNL d   1      25.930 -11.838  -5.074  0.00  0.00     0.050 C 
ENDBRANCH  23  26
ENDBRANCH   3  20
TORSDOF 6
ENDMDL
MODEL 5
REMARK VINA RESULT:   -18.766      3.824      4.824
REMARK INTER + INTRA:         -21.608
REMARK INTER:                 -20.556
REMARK INTRA:                  -1.052
REMARK CONF_INDEPENDENT:        1.790
REMARK UNBOUND:                -1.052
REMARK  6 active torsions:
REMARK  status: ('A' for Active; 'I' for Inactive)
REMARK    1  A    between atoms: C_4  and  C_5 
REMARK    2  A    between atoms: C_8  and  C_9 
REMARK    3  A    between atoms: C_9  and  C_10 
REMARK    4  A    between atoms: C_10  and  C_11 
REMARK       I    between atoms: C_11  and  N_13 
REMARK    5  A    between atoms: N_13  and  N_14 
REMARK       I    between atoms: N_14  and  C_15 
REMARK       I    between atoms: C_15  and  N_17 
REMARK    6  A    between atoms: N_17  and  C_18 
ROOT
ATOM      1  C   UNL d   1      24.774 -16.595  -1.801  0.00  0.00     0.236 C 
ATOM      2  O   UNL d   1      24.334 -15.490  -2.122  0.00  0.00    -0.272 OA
ATOM      3  N   UNL d   1      26.079 -16.764  -1.363  0.00  0.00    -0.266 N 
ATOM      4  H   UNL d   1      26.480 -17.658  -1.078  0.00  0.00     0.190 HD
ENDROOT
BRANCH   1   5
ATOM      5  C   UNL d   1      23.920 -17.865  -1.862  0.00  0.00     0.112 C 
BRANCH   5   6
ATOM      6  C   UNL d   1      23.437 -18.323  -0.471  0.00  0.00     0.098 C 
BRANCH   6   7
ATOM      7  C   UNL d   1      21.977 -18.628  -0.467  0.00  0.00     0.173 A 
ATOM      8  O   UNL d   1      21.214 -18.115  -1.481  0.00  0.00    -0.196 OA
ATOM      9  N   UNL d   1      19.905 -18.576  -1.267  0.00  0.00    -0.106 NA
ATOM     10  C   UNL d   1      20.009 -19.297  -0.139  0.00  0.00     0.189 A 
ATOM     11  N   UNL d   1      21.280 -19.341   0.388  0.00  0.00    -0.204 NA
BRANCH  10  12
ATOM     12  C   UNL d   1      18.907 -19.996   0.506  0.00  0.00     0.015 A 
ATOM     13  C   UNL d   1      18.406 -19.521   1.730  0.00  0.00     0.025 A 
ATOM     14  C   UNL d   1      17.384 -20.208   2.405  0.00  0.00    -0.022 A 
ATOM     15  C   UNL d   1      16.825 -19.700   3.699  0.00  0.00     0.051 C 
ATOM     16  C   UNL d   1      16.886 -21.384   1.844  0.00  0.00     0.122 A 
ATOM     17  C   UNL d   1      17.373 -21.870   0.633  0.00  0.00     0.044 A 
ATOM     18  F   UNL d   1      15.918 -22.067   2.475  0.00  0.00    -0.206 F 
ATOM     19  C   UNL d   1      18.376 -21.170  -0.044  0.00  0.00     0.018 A 
ENDBRANCH  10  12
ENDBRANCH   6   7
ENDBRANCH   5   6
ENDBRANCH   1   5
BRANCH   3  20
ATOM     20  N   UNL d   1      26.988 -15.645  -1.334  0.00  0.00    -0.249 N 
ATOM     21  C   UNL d   1      26.789 -14.677  -0.353  0.00  0.00     0.339 C 
ATOM     22  O   UNL d   1      25.842 -14.801   0.429  0.00  0.00    -0.245 OA
ATOM     23  N   UNL d   1      27.726 -13.648  -0.329  0.00  0.00    -0.307 N 
ATOM     24  H   UNL d   1      28.150 -13.399  -1.212  0.00  0.00     0.170 HD
ATOM     25  H   UNL d   1      27.559 -15.512  -2.164  0.00  0.00     0.192 HD
BRANCH  23  26
ATOM     26  C   UNL d   1      27.809 -12.654   0.708  0.00  0.00     0.042 A 
ATOM     27  C   UNL d   1      27.277 -11.367   0.476  0.00  0.00     0.030 A 
ATOM     28  C   UNL d   1      27.377 -10.346   1.442  0.00  0.00     0.002 A 
ATOM     29  C   UNL d   1      28.040 -10.579   2.641  0.00  0.00     0.001 A 
ATOM     30  C   UNL d   1      28.596 -11.831   2.873  0.00  0.00     0.009 A 
ATOM     31  C   UNL d   1      28.493 -12.872   1.922  0.00  0.00    -0.035 A 
ATOM     32  C   UNL d   1      29.221 -14.148   2.230  0.00  0.00     0.050 C 
ENDBRANCH  23  26
ENDBRANCH   3  20
TORSDOF 6
ENDMDL
MODEL 6
REMARK VINA RESULT:   -18.292      4.101      5.267
REMARK INTER + INTRA:         -21.822
REMARK INTER:                 -20.082
REMARK INTRA:                  -1.740
REMARK CONF_INDEPENDENT:        1.790
REMARK UNBOUND:                -1.740
REMARK  6 active torsions:
REMARK  status: ('A' for Active; 'I' for Inactive)
REMARK    1  A    between atoms: C_4  and  C_5 
REMARK    2  A    between atoms: C_8  and  C_9 
REMARK    3  A    between atoms: C_9  and  C_10 
REMARK    4  A    between atoms: C_10  and  C_11 
REMARK       I    between atoms: C_11  and  N_13 
REMARK    5  A    between atoms: N_13  and  N_14 
REMARK       I    between atoms: N_14  and  C_15 
REMARK       I    between atoms: C_15  and  N_17 
REMARK    6  A    between atoms: N_17  and  C_18 
ROOT
ATOM      1  C   UNL d   1      24.938 -16.604  -1.712  0.00  0.00     0.236 C 
ATOM      2  O   UNL d   1      24.853 -15.631  -2.463  0.00  0.00    -0.272 OA
ATOM      3  N   UNL d   1      25.970 -16.731  -0.794  0.00  0.00    -0.266 N 
ATOM      4  H   UNL d   1      26.073 -17.514  -0.147  0.00  0.00     0.190 HD
ENDROOT
BRANCH   1   5
ATOM      5  C   UNL d   1      23.919 -17.746  -1.733  0.00  0.00     0.112 C 
BRANCH   5   6
ATOM      6  C   UNL d   1      23.376 -18.085  -0.330  0.00  0.00     0.098 C 
BRANCH   6   7
ATOM      7  C   UNL d   1      21.935 -18.469  -0.374  0.00  0.00     0.173 A 
ATOM      8  O   UNL d   1      21.197 -18.060  -1.451  0.00  0.00    -0.196 OA
ATOM      9  N   UNL d   1      19.905 -18.579  -1.270  0.00  0.00    -0.106 NA
ATOM     10  C   UNL d   1      19.992 -19.228  -0.097  0.00  0.00     0.189 A 
ATOM     11  N   UNL d   1      21.236 -19.171   0.489  0.00  0.00    -0.204 NA
BRANCH  10  12
ATOM     12  C   UNL d   1      18.899 -19.949   0.537  0.00  0.00     0.015 A 
ATOM     13  C   UNL d   1      18.380 -19.487   1.759  0.00  0.00     0.025 A 
ATOM     14  C   UNL d   1      17.366 -20.195   2.424  0.00  0.00    -0.022 A 
ATOM     15  C   UNL d   1      16.787 -19.701   3.715  0.00  0.00     0.051 C 
ATOM     16  C   UNL d   1      16.894 -21.379   1.856  0.00  0.00     0.122 A 
ATOM     17  C   UNL d   1      17.399 -21.852   0.648  0.00  0.00     0.044 A 
ATOM     18  F   UNL d   1      15.935 -22.081   2.478  0.00  0.00    -0.206 F 
ATOM     19  C   UNL d   1      18.394 -21.132  -0.020  0.00  0.00     0.018 A 
ENDBRANCH  10  12
ENDBRANCH   6   7
ENDBRANCH   5   6
ENDBRANCH   1   5
BRANCH   3  20
ATOM     20  N   UNL d   1      27.021 -15.746  -0.738  0.00  0.00    -0.249 N 
ATOM     21  C   UNL d   1      28.011 -15.910   0.227  0.00  0.00     0.339 C 
ATOM     22  O   UNL d   1      27.940 -16.869   1.001  0.00  0.00    -0.245 OA
ATOM     23  N   UNL d   1      29.034 -14.967   0.204  0.00  0.00    -0.307 N 
ATOM     24  H   UNL d   1      28.791 -14.041  -0.124  0.00  0.00     0.170 HD
ATOM     25  H   UNL d   1      26.847 -14.878  -1.238  0.00  0.00     0.192 HD
BRANCH  23  26
ATOM     26  C   UNL d   1      30.236 -15.057   0.988  0.00  0.00     0.042 A 
ATOM     27  C   UNL d   1      30.578 -13.995   1.852  0.00  0.00     0.030 A 
ATOM     28  C   UNL d   1      31.770 -14.015   2.605  0.00  0.00     0.002 A 
ATOM     29  C   UNL d   1      32.657 -15.078   2.483  0.00  0.00     0.001 A 
ATOM     30  C   UNL d   1      32.350 -16.118   1.613  0.00  0.00     0.009 A 
ATOM     31  C   UNL d   1      31.153 -16.122   0.861  0.00  0.00    -0.035 A 
ATOM     32  C   UNL d   1      30.972 -17.239  -0.124  0.00  0.00     0.050 C 
ENDBRANCH  23  26
ENDBRANCH   3  20
TORSDOF 6
ENDMDL
