MODEL 1
REMARK VINA RESULT:    -8.280      0.000      0.000
REMARK INTER + INTRA:         -13.808
REMARK INTER:                 -10.666
REMARK INTRA:                  -3.141
REMARK CONF_INDEPENDENT:        2.386
REMARK UNBOUND:                -3.141
REMARK  8 active torsions:
REMARK  status: ('A' for Active; 'I' for Inactive)
REMARK    1  A    between atoms: C_2  and  C_5 
REMARK    2  A    between atoms: C_5  and  N_6 
REMARK    3  A    between atoms: N_6  and  C_7 
REMARK    4  A    between atoms: C_7  and  O_8 
REMARK    5  A    between atoms: C_7  and  C_9 
REMARK    6  A    between atoms: C_9  and  O_10 
REMARK    7  A    between atoms: O_10  and  N_11 
REMARK    8  A    between atoms: N_11  and  C_12 
ROOT
ATOM      1  N   UNL d   1      28.994 -15.735   0.677  0.00  0.00    -0.170 NA
ATOM      2  H   UNL d   1      29.533 -16.270   1.355  0.00  0.00     0.160 HD
ENDROOT
BRANCH   1   3
ATOM      3  O   UNL d   1      28.944 -14.360   0.983  0.00  0.00    -0.297 OA
BRANCH   3   4
ATOM      4  C   UNL d   1      30.281 -13.848   1.007  0.00  0.00     0.257 C 
BRANCH   4   5
ATOM      5  C   UNL d   1      31.075 -14.536   2.141  0.00  0.00     0.379 C 
BRANCH   5   6
ATOM      6  N   UNL d   1      30.185 -14.823   3.256  0.00  0.00     0.115 N 
ATOM      7  H   UNL d   1      29.370 -15.314   2.893  0.00  0.00     0.319 HD
BRANCH   6   8
ATOM      8  C   UNL d   1      29.731 -13.604   3.934  0.00  0.00     0.281 C 
BRANCH   8   9
ATOM      9  C   UNL d   1      28.318 -13.788   4.550  0.00  0.00    -0.025 C 
ATOM     10  C   UNL d   1      27.267 -13.596   3.441  0.00  0.00     0.016 C 
ATOM     11  C   UNL d   1      28.076 -12.738   5.649  0.00  0.00     0.016 C 
ATOM     12  C   UNL d   1      28.155 -15.200   5.138  0.00  0.00     0.016 C 
ENDBRANCH   8   9
ENDBRANCH   6   8
ENDBRANCH   5   6
BRANCH   5  13
ATOM     13  O   UNL d   1      31.627 -15.752   1.674  0.00  0.00    -0.366 OA
ATOM     14  H   UNL d   1      30.865 -16.345   1.566  0.00  0.00     0.212 HD
ENDBRANCH   5  13
ENDBRANCH   4   5
ENDBRANCH   3   4
ENDBRANCH   1   3
BRANCH   1  15
ATOM     15  C   UNL d   1      27.782 -16.323   0.412  0.00  0.00     0.045 A 
ATOM     16  C   UNL d   1      27.183 -17.453   0.877  0.00  0.00     0.038 A 
ATOM     17  C   UNL d   1      25.855 -17.614   0.160  0.00  0.00    -0.022 A 
ATOM     18  C   UNL d   1      24.843 -18.567   0.227  0.00  0.00     0.012 A 
ATOM     19  C   UNL d   1      25.734 -16.544  -0.720  0.00  0.00    -0.004 A 
ATOM     20  C   UNL d   1      23.741 -18.383  -0.638  0.00  0.00     0.002 A 
ATOM     21  C   UNL d   1      23.655 -17.292  -1.529  0.00  0.00     0.012 A 
ATOM     22  C   UNL d   1      24.688 -16.340  -1.571  0.00  0.00    -0.024 A 
ATOM     23  C   UNL d   1      24.767 -15.203  -2.395  0.00  0.00     0.012 A 
ATOM     24  C   UNL d   1      25.888 -14.351  -2.317  0.00  0.00     0.002 A 
ATOM     25  C   UNL d   1      26.951 -14.594  -1.429  0.00  0.00     0.014 A 
ATOM     26  C   UNL d   1      26.850 -15.721  -0.624  0.00  0.00    -0.001 A 
ENDBRANCH   1  15
TORSDOF 8
ENDMDL
MODEL 2
REMARK VINA RESULT:    -7.753      0.948      2.528
REMARK INTER + INTRA:         -12.844
REMARK INTER:                 -10.139
REMARK INTRA:                  -2.705
REMARK CONF_INDEPENDENT:        2.386
REMARK UNBOUND:                -2.705
REMARK  8 active torsions:
REMARK  status: ('A' for Active; 'I' for Inactive)
REMARK    1  A    between atoms: C_2  and  C_5 
REMARK    2  A    between atoms: C_5  and  N_6 
REMARK    3  A    between atoms: N_6  and  C_7 
REMARK    4  A    between atoms: C_7  and  O_8 
REMARK    5  A    between atoms: C_7  and  C_9 
REMARK    6  A    between atoms: C_9  and  O_10 
REMARK    7  A    between atoms: O_10  and  N_11 
REMARK    8  A    between atoms: N_11  and  C_12 
ROOT
ATOM      1  N   UNL d   1      29.631 -15.184   0.951  0.00  0.00    -0.170 NA
ATOM      2  H   UNL d   1      29.584 -15.993   1.566  0.00  0.00     0.160 HD
ENDROOT
BRANCH   1   3
ATOM      3  O   UNL d   1      29.921 -13.989   1.641  0.00  0.00    -0.297 OA
BRANCH   3   4
ATOM      4  C   UNL d   1      31.324 -13.954   1.924  0.00  0.00     0.257 C 
BRANCH   4   5
ATOM      5  C   UNL d   1      31.664 -15.032   2.978  0.00  0.00     0.379 C 
BRANCH   5   6
ATOM      6  N   UNL d   1      30.546 -15.187   3.896  0.00  0.00     0.115 N 
ATOM      7  H   UNL d   1      29.706 -15.362   3.347  0.00  0.00     0.319 HD
BRANCH   6   8
ATOM      8  C   UNL d   1      30.326 -13.989   4.714  0.00  0.00     0.281 C 
BRANCH   8   9
ATOM      9  C   UNL d   1      28.906 -13.979   5.340  0.00  0.00    -0.025 C 
ATOM     10  C   UNL d   1      28.126 -15.199   4.815  0.00  0.00     0.016 C 
ATOM     11  C   UNL d   1      28.155 -12.699   4.934  0.00  0.00     0.016 C 
ATOM     12  C   UNL d   1      28.982 -14.070   6.874  0.00  0.00     0.016 C 
ENDBRANCH   8   9
ENDBRANCH   6   8
ENDBRANCH   5   6
BRANCH   5  13
ATOM     13  O   UNL d   1      31.904 -16.272   2.339  0.00  0.00    -0.366 OA
ATOM     14  H   UNL d   1      31.147 -16.394   1.744  0.00  0.00     0.212 HD
ENDBRANCH   5  13
ENDBRANCH   4   5
ENDBRANCH   3   4
ENDBRANCH   1   3
BRANCH   1  15
ATOM     15  C   UNL d   1      28.554 -15.126   0.102  0.00  0.00     0.045 A 
ATOM     16  C   UNL d   1      28.140 -14.195  -0.802  0.00  0.00     0.038 A 
ATOM     17  C   UNL d   1      26.829 -14.670  -1.402  0.00  0.00    -0.022 A 
ATOM     18  C   UNL d   1      25.965 -14.134  -2.353  0.00  0.00     0.012 A 
ATOM     19  C   UNL d   1      26.523 -15.887  -0.804  0.00  0.00    -0.004 A 
ATOM     20  C   UNL d   1      24.799 -14.877  -2.640  0.00  0.00     0.002 A 
ATOM     21  C   UNL d   1      24.512 -16.105  -2.006  0.00  0.00     0.012 A 
ATOM     22  C   UNL d   1      25.404 -16.627  -1.054  0.00  0.00    -0.024 A 
ATOM     23  C   UNL d   1      25.274 -17.824  -0.327  0.00  0.00     0.012 A 
ATOM     24  C   UNL d   1      26.265 -18.196   0.603  0.00  0.00     0.002 A 
ATOM     25  C   UNL d   1      27.405 -17.407   0.838  0.00  0.00     0.014 A 
ATOM     26  C   UNL d   1      27.513 -16.231   0.107  0.00  0.00    -0.001 A 
ENDBRANCH   1  15
TORSDOF 8
ENDMDL
MODEL 3
REMARK VINA RESULT:    -7.663      1.732      2.235
REMARK INTER + INTRA:         -13.256
REMARK INTER:                 -10.049
REMARK INTRA:                  -3.207
REMARK CONF_INDEPENDENT:        2.386
REMARK UNBOUND:                -3.207
REMARK  8 active torsions:
REMARK  status: ('A' for Active; 'I' for Inactive)
REMARK    1  A    between atoms: C_2  and  C_5 
REMARK    2  A    between atoms: C_5  and  N_6 
REMARK    3  A    between atoms: N_6  and  C_7 
REMARK    4  A    between atoms: C_7  and  O_8 
REMARK    5  A    between atoms: C_7  and  C_9 
REMARK    6  A    between atoms: C_9  and  O_10 
REMARK    7  A    between atoms: O_10  and  N_11 
REMARK    8  A    between atoms: N_11  and  C_12 
ROOT
ATOM      1  N   UNL d   1      29.111 -17.520  -0.308  0.00  0.00    -0.170 NA
ATOM      2  H   UNL d   1      29.550 -17.826   0.557  0.00  0.00     0.160 HD
ENDROOT
BRANCH   1   3
ATOM      3  O   UNL d   1      29.636 -16.302  -0.785  0.00  0.00    -0.297 OA
BRANCH   3   4
ATOM      4  C   UNL d   1      31.022 -16.489  -1.089  0.00  0.00     0.257 C 
BRANCH   4   5
ATOM      5  C   UNL d   1      31.774 -16.933   0.187  0.00  0.00     0.379 C 
BRANCH   5   6
ATOM      6  N   UNL d   1      31.155 -16.324   1.355  0.00  0.00     0.115 N 
ATOM      7  H   UNL d   1      30.162 -16.552   1.344  0.00  0.00     0.319 HD
BRANCH   6   8
ATOM      8  C   UNL d   1      31.296 -14.863   1.362  0.00  0.00     0.281 C 
BRANCH   8   9
ATOM      9  C   UNL d   1      30.096 -14.179   2.068  0.00  0.00    -0.025 C 
ATOM     10  C   UNL d   1      30.176 -12.661   1.819  0.00  0.00     0.016 C 
ATOM     11  C   UNL d   1      30.155 -14.435   3.585  0.00  0.00     0.016 C 
ATOM     12  C   UNL d   1      28.760 -14.697   1.507  0.00  0.00     0.016 C 
ENDBRANCH   8   9
ENDBRANCH   6   8
ENDBRANCH   5   6
BRANCH   5  13
ATOM     13  O   UNL d   1      31.709 -18.340   0.320  0.00  0.00    -0.366 OA
ATOM     14  H   UNL d   1      30.762 -18.550   0.273  0.00  0.00     0.212 HD
ENDBRANCH   5  13
ENDBRANCH   4   5
ENDBRANCH   3   4
ENDBRANCH   1   3
BRANCH   1  15
ATOM     15  C   UNL d   1      27.742 -17.582  -0.236  0.00  0.00     0.045 A 
ATOM     16  C   UNL d   1      26.889 -18.404   0.437  0.00  0.00     0.038 A 
ATOM     17  C   UNL d   1      25.469 -18.014   0.069  0.00  0.00    -0.022 A 
ATOM     18  C   UNL d   1      24.219 -18.501   0.442  0.00  0.00     0.012 A 
ATOM     19  C   UNL d   1      25.555 -16.957  -0.829  0.00  0.00    -0.004 A 
ATOM     20  C   UNL d   1      23.096 -17.878  -0.146  0.00  0.00     0.002 A 
ATOM     21  C   UNL d   1      23.218 -16.814  -1.065  0.00  0.00     0.012 A 
ATOM     22  C   UNL d   1      24.492 -16.337  -1.419  0.00  0.00    -0.024 A 
ATOM     23  C   UNL d   1      24.796 -15.297  -2.316  0.00  0.00     0.012 A 
ATOM     24  C   UNL d   1      26.140 -14.952  -2.566  0.00  0.00     0.002 A 
ATOM     25  C   UNL d   1      27.212 -15.614  -1.942  0.00  0.00     0.014 A 
ATOM     26  C   UNL d   1      26.887 -16.636  -1.059  0.00  0.00    -0.001 A 
ENDBRANCH   1  15
TORSDOF 8
ENDMDL
MODEL 4
REMARK VINA RESULT:    -7.575      2.962      3.674
REMARK INTER + INTRA:         -12.706
REMARK INTER:                  -9.961
REMARK INTRA:                  -2.745
REMARK CONF_INDEPENDENT:        2.386
REMARK UNBOUND:                -2.745
REMARK  8 active torsions:
REMARK  status: ('A' for Active; 'I' for Inactive)
REMARK    1  A    between atoms: C_2  and  C_5 
REMARK    2  A    between atoms: C_5  and  N_6 
REMARK    3  A    between atoms: N_6  and  C_7 
REMARK    4  A    between atoms: C_7  and  O_8 
REMARK    5  A    between atoms: C_7  and  C_9 
REMARK    6  A    between atoms: C_9  and  O_10 
REMARK    7  A    between atoms: O_10  and  N_11 
REMARK    8  A    between atoms: N_11  and  C_12 
ROOT
ATOM      1  N   UNL d   1      29.016 -17.521  -0.202  0.00  0.00    -0.170 NA
ATOM      2  H   UNL d   1      29.440 -17.978   0.602  0.00  0.00     0.160 HD
ENDROOT
BRANCH   1   3
ATOM      3  O   UNL d   1      29.593 -16.265  -0.482  0.00  0.00    -0.297 OA
BRANCH   3   4
ATOM      4  C   UNL d   1      30.872 -16.476  -1.090  0.00  0.00     0.257 C 
BRANCH   4   5
ATOM      5  C   UNL d   1      31.698 -17.457  -0.226  0.00  0.00     0.379 C 
BRANCH   5   6
ATOM      6  N   UNL d   1      31.530 -17.128   1.181  0.00  0.00     0.115 N 
ATOM      7  H   UNL d   1      30.538 -16.971   1.355  0.00  0.00     0.319 HD
BRANCH   6   8
ATOM      8  C   UNL d   1      32.267 -15.917   1.562  0.00  0.00     0.281 C 
BRANCH   8   9
ATOM      9  C   UNL d   1      33.753 -16.231   1.878  0.00  0.00    -0.025 C 
ATOM     10  C   UNL d   1      34.560 -16.176   0.568  0.00  0.00     0.016 C 
ATOM     11  C   UNL d   1      33.882 -17.641   2.480  0.00  0.00     0.016 C 
ATOM     12  C   UNL d   1      34.337 -15.196   2.855  0.00  0.00     0.016 C 
ENDBRANCH   8   9
ENDBRANCH   6   8
ENDBRANCH   5   6
BRANCH   5  13
ATOM     13  O   UNL d   1      31.250 -18.782  -0.441  0.00  0.00    -0.366 OA
ATOM     14  H   UNL d   1      30.333 -18.788  -0.122  0.00  0.00     0.212 HD
ENDBRANCH   5  13
ENDBRANCH   4   5
ENDBRANCH   3   4
ENDBRANCH   1   3
BRANCH   1  15
ATOM     15  C   UNL d   1      27.645 -17.536  -0.133  0.00  0.00     0.045 A 
ATOM     16  C   UNL d   1      26.765 -18.279   0.592  0.00  0.00     0.038 A 
ATOM     17  C   UNL d   1      25.359 -17.874   0.188  0.00  0.00    -0.022 A 
ATOM     18  C   UNL d   1      24.093 -18.293   0.588  0.00  0.00     0.012 A 
ATOM     19  C   UNL d   1      25.481 -16.889  -0.786  0.00  0.00    -0.004 A 
ATOM     20  C   UNL d   1      22.992 -17.681  -0.052  0.00  0.00     0.002 A 
ATOM     21  C   UNL d   1      23.151 -16.692  -1.046  0.00  0.00     0.012 A 
ATOM     22  C   UNL d   1      24.440 -16.283  -1.426  0.00  0.00    -0.024 A 
ATOM     23  C   UNL d   1      24.780 -15.321  -2.395  0.00  0.00     0.012 A 
ATOM     24  C   UNL d   1      26.135 -15.036  -2.662  0.00  0.00     0.002 A 
ATOM     25  C   UNL d   1      27.183 -15.683  -1.984  0.00  0.00     0.014 A 
ATOM     26  C   UNL d   1      26.824 -16.627  -1.030  0.00  0.00    -0.001 A 
ENDBRANCH   1  15
TORSDOF 8
ENDMDL
MODEL 5
REMARK VINA RESULT:    -7.431      1.468      3.070
REMARK INTER + INTRA:         -11.970
REMARK INTER:                  -9.818
REMARK INTRA:                  -2.152
REMARK CONF_INDEPENDENT:        2.386
REMARK UNBOUND:                -2.152
REMARK  8 active torsions:
REMARK  status: ('A' for Active; 'I' for Inactive)
REMARK    1  A    between atoms: C_2  and  C_5 
REMARK    2  A    between atoms: C_5  and  N_6 
REMARK    3  A    between atoms: N_6  and  C_7 
REMARK    4  A    between atoms: C_7  and  O_8 
REMARK    5  A    between atoms: C_7  and  C_9 
REMARK    6  A    between atoms: C_9  and  O_10 
REMARK    7  A    between atoms: O_10  and  N_11 
REMARK    8  A    between atoms: N_11  and  C_12 
ROOT
ATOM      1  N   UNL d   1      29.632 -15.251   0.960  0.00  0.00    -0.170 NA
ATOM      2  H   UNL d   1      29.435 -15.928   1.693  0.00  0.00     0.160 HD
ENDROOT
BRANCH   1   3
ATOM      3  O   UNL d   1      30.170 -14.047   1.459  0.00  0.00    -0.297 OA
BRANCH   3   4
ATOM      4  C   UNL d   1      31.069 -14.357   2.530  0.00  0.00     0.257 C 
BRANCH   4   5
ATOM      5  C   UNL d   1      30.259 -14.816   3.764  0.00  0.00     0.379 C 
BRANCH   5   6
ATOM      6  N   UNL d   1      30.525 -13.924   4.882  0.00  0.00     0.115 N 
ATOM      7  H   UNL d   1      31.519 -13.975   5.100  0.00  0.00     0.319 HD
BRANCH   6   8
ATOM      8  C   UNL d   1      29.766 -14.293   6.082  0.00  0.00     0.281 C 
BRANCH   8   9
ATOM      9  C   UNL d   1      29.453 -13.053   6.962  0.00  0.00    -0.025 C 
ATOM     10  C   UNL d   1      29.481 -13.477   8.442  0.00  0.00     0.016 C 
ATOM     11  C   UNL d   1      28.054 -12.506   6.630  0.00  0.00     0.016 C 
ATOM     12  C   UNL d   1      30.504 -11.950   6.749  0.00  0.00     0.016 C 
ENDBRANCH   8   9
ENDBRANCH   6   8
ENDBRANCH   5   6
BRANCH   5  13
ATOM     13  O   UNL d   1      28.874 -14.781   3.472  0.00  0.00    -0.366 OA
ATOM     14  H   UNL d   1      28.795 -15.198   2.599  0.00  0.00     0.212 HD
ENDBRANCH   5  13
ENDBRANCH   4   5
ENDBRANCH   3   4
ENDBRANCH   1   3
BRANCH   1  15
ATOM     15  C   UNL d   1      28.572 -15.108   0.099  0.00  0.00     0.045 A 
ATOM     16  C   UNL d   1      28.191 -14.104  -0.737  0.00  0.00     0.038 A 
ATOM     17  C   UNL d   1      26.884 -14.507  -1.396  0.00  0.00    -0.022 A 
ATOM     18  C   UNL d   1      26.047 -13.884  -2.317  0.00  0.00     0.012 A 
ATOM     19  C   UNL d   1      26.547 -15.762  -0.899  0.00  0.00    -0.004 A 
ATOM     20  C   UNL d   1      24.875 -14.584  -2.682  0.00  0.00     0.002 A 
ATOM     21  C   UNL d   1      24.556 -15.851  -2.150  0.00  0.00     0.012 A 
ATOM     22  C   UNL d   1      25.422 -16.461  -1.226  0.00  0.00    -0.024 A 
ATOM     23  C   UNL d   1      25.259 -17.708  -0.597  0.00  0.00     0.012 A 
ATOM     24  C   UNL d   1      26.226 -18.169   0.319  0.00  0.00     0.002 A 
ATOM     25  C   UNL d   1      27.374 -17.420   0.635  0.00  0.00     0.014 A 
ATOM     26  C   UNL d   1      27.515 -16.192   0.000  0.00  0.00    -0.001 A 
ENDBRANCH   1  15
TORSDOF 8
ENDMDL
MODEL 6
REMARK VINA RESULT:    -7.067      2.775      3.918
REMARK INTER + INTRA:         -11.563
REMARK INTER:                  -9.454
REMARK INTRA:                  -2.109
REMARK CONF_INDEPENDENT:        2.386
REMARK UNBOUND:                -2.109
REMARK  8 active torsions:
REMARK  status: ('A' for Active; 'I' for Inactive)
REMARK    1  A    between atoms: C_2  and  C_5 
REMARK    2  A    between atoms: C_5  and  N_6 
REMARK    3  A    between atoms: N_6  and  C_7 
REMARK    4  A    between atoms: C_7  and  O_8 
REMARK    5  A    between atoms: C_7  and  C_9 
REMARK    6  A    between atoms: C_9  and  O_10 
REMARK    7  A    between atoms: O_10  and  N_11 
REMARK    8  A    between atoms: N_11  and  C_12 
ROOT
ATOM      1  N   UNL d   1      29.196 -17.150  -0.323  0.00  0.00    -0.170 NA
ATOM      2  H   UNL d   1      29.664 -17.705   0.389  0.00  0.00     0.160 HD
ENDROOT
BRANCH   1   3
ATOM      3  O   UNL d   1      29.627 -15.808  -0.340  0.00  0.00    -0.297 OA
BRANCH   3   4
ATOM      4  C   UNL d   1      30.527 -15.604   0.755  0.00  0.00     0.257 C 
BRANCH   4   5
ATOM      5  C   UNL d   1      31.772 -16.501   0.573  0.00  0.00     0.379 C 
BRANCH   5   6
ATOM      6  N   UNL d   1      31.885 -17.414   1.700  0.00  0.00     0.115 N 
ATOM      7  H   UNL d   1      31.157 -17.179   2.374  0.00  0.00     0.319 HD
BRANCH   6   8
ATOM      8  C   UNL d   1      33.187 -17.315   2.369  0.00  0.00     0.281 C 
BRANCH   8   9
ATOM      9  C   UNL d   1      33.736 -18.713   2.758  0.00  0.00    -0.025 C 
ATOM     10  C   UNL d   1      35.020 -18.528   3.589  0.00  0.00     0.016 C 
ATOM     11  C   UNL d   1      34.077 -19.521   1.493  0.00  0.00     0.016 C 
ATOM     12  C   UNL d   1      32.713 -19.488   3.607  0.00  0.00     0.016 C 
ENDBRANCH   8   9
ENDBRANCH   6   8
ENDBRANCH   5   6
BRANCH   5  13
ATOM     13  O   UNL d   1      31.650 -17.259  -0.616  0.00  0.00    -0.366 OA
ATOM     14  H   UNL d   1      30.779 -17.020  -0.973  0.00  0.00     0.212 HD
ENDBRANCH   5  13
ENDBRANCH   4   5
ENDBRANCH   3   4
ENDBRANCH   1   3
BRANCH   1  15
ATOM     15  C   UNL d   1      27.835 -17.329  -0.296  0.00  0.00     0.045 A 
ATOM     16  C   UNL d   1      27.036 -18.241   0.324  0.00  0.00     0.038 A 
ATOM     17  C   UNL d   1      25.599 -17.961  -0.077  0.00  0.00    -0.022 A 
ATOM     18  C   UNL d   1      24.385 -18.563   0.241  0.00  0.00     0.012 A 
ATOM     19  C   UNL d   1      25.621 -16.872  -0.940  0.00  0.00    -0.004 A 
ATOM     20  C   UNL d   1      23.231 -18.018  -0.364  0.00  0.00     0.002 A 
ATOM     21  C   UNL d   1      23.289 -16.918  -1.246  0.00  0.00     0.012 A 
ATOM     22  C   UNL d   1      24.527 -16.325  -1.545  0.00  0.00    -0.024 A 
ATOM     23  C   UNL d   1      24.768 -15.234  -2.400  0.00  0.00     0.012 A 
ATOM     24  C   UNL d   1      26.084 -14.768  -2.597  0.00  0.00     0.002 A 
ATOM     25  C   UNL d   1      27.189 -15.358  -1.959  0.00  0.00     0.014 A 
ATOM     26  C   UNL d   1      26.927 -16.432  -1.118  0.00  0.00    -0.001 A 
ENDBRANCH   1  15
TORSDOF 8
ENDMDL
MODEL 7
REMARK VINA RESULT:    -6.942      1.591      1.970
REMARK INTER + INTRA:         -11.634
REMARK INTER:                  -9.329
REMARK INTRA:                  -2.305
REMARK CONF_INDEPENDENT:        2.386
REMARK UNBOUND:                -2.305
REMARK  8 active torsions:
REMARK  status: ('A' for Active; 'I' for Inactive)
REMARK    1  A    between atoms: C_2  and  C_5 
REMARK    2  A    between atoms: C_5  and  N_6 
REMARK    3  A    between atoms: N_6  and  C_7 
REMARK    4  A    between atoms: C_7  and  O_8 
REMARK    5  A    between atoms: C_7  and  C_9 
REMARK    6  A    between atoms: C_9  and  O_10 
REMARK    7  A    between atoms: O_10  and  N_11 
REMARK    8  A    between atoms: N_11  and  C_12 
ROOT
ATOM      1  N   UNL d   1      28.910 -14.831   1.745  0.00  0.00    -0.170 NA
ATOM      2  H   UNL d   1      29.642 -15.491   1.997  0.00  0.00     0.160 HD
ENDROOT
BRANCH   1   3
ATOM      3  O   UNL d   1      28.446 -14.083   2.845  0.00  0.00    -0.297 OA
BRANCH   3   4
ATOM      4  C   UNL d   1      29.381 -13.031   3.109  0.00  0.00     0.257 C 
BRANCH   4   5
ATOM      5  C   UNL d   1      30.701 -13.636   3.640  0.00  0.00     0.379 C 
BRANCH   5   6
ATOM      6  N   UNL d   1      31.096 -12.950   4.861  0.00  0.00     0.115 N 
ATOM      7  H   UNL d   1      31.529 -13.632   5.482  0.00  0.00     0.319 HD
BRANCH   6   8
ATOM      8  C   UNL d   1      29.952 -12.347   5.556  0.00  0.00     0.281 C 
BRANCH   8   9
ATOM      9  C   UNL d   1      29.406 -13.281   6.668  0.00  0.00    -0.025 C 
ATOM     10  C   UNL d   1      28.598 -14.415   6.010  0.00  0.00     0.016 C 
ATOM     11  C   UNL d   1      28.479 -12.496   7.613  0.00  0.00     0.016 C 
ATOM     12  C   UNL d   1      30.558 -13.907   7.474  0.00  0.00     0.016 C 
ENDBRANCH   8   9
ENDBRANCH   6   8
ENDBRANCH   5   6
BRANCH   5  13
ATOM     13  O   UNL d   1      30.520 -15.010   3.927  0.00  0.00    -0.366 OA
ATOM     14  H   UNL d   1      29.783 -15.286   3.358  0.00  0.00     0.212 HD
ENDBRANCH   5  13
ENDBRANCH   4   5
ENDBRANCH   3   4
ENDBRANCH   1   3
BRANCH   1  15
ATOM     15  C   UNL d   1      27.933 -15.422   0.982  0.00  0.00     0.045 A 
ATOM     16  C   UNL d   1      27.385 -16.668   0.987  0.00  0.00     0.038 A 
ATOM     17  C   UNL d   1      26.377 -16.746  -0.146  0.00  0.00    -0.022 A 
ATOM     18  C   UNL d   1      25.538 -17.755  -0.609  0.00  0.00     0.012 A 
ATOM     19  C   UNL d   1      26.385 -15.511  -0.784  0.00  0.00    -0.004 A 
ATOM     20  C   UNL d   1      24.741 -17.450  -1.734  0.00  0.00     0.002 A 
ATOM     21  C   UNL d   1      24.780 -16.189  -2.367  0.00  0.00     0.012 A 
ATOM     22  C   UNL d   1      25.632 -15.185  -1.875  0.00  0.00    -0.024 A 
ATOM     23  C   UNL d   1      25.801 -13.884  -2.382  0.00  0.00     0.012 A 
ATOM     24  C   UNL d   1      26.713 -13.000  -1.768  0.00  0.00     0.002 A 
ATOM     25  C   UNL d   1      27.474 -13.370  -0.646  0.00  0.00     0.014 A 
ATOM     26  C   UNL d   1      27.289 -14.660  -0.162  0.00  0.00    -0.001 A 
ENDBRANCH   1  15
TORSDOF 8
ENDMDL
MODEL 8
REMARK VINA RESULT:    -6.858      3.275      4.097
REMARK INTER + INTRA:         -12.167
REMARK INTER:                  -9.245
REMARK INTRA:                  -2.922
REMARK CONF_INDEPENDENT:        2.386
REMARK UNBOUND:                -2.922
REMARK  8 active torsions:
REMARK  status: ('A' for Active; 'I' for Inactive)
REMARK    1  A    between atoms: C_2  and  C_5 
REMARK    2  A    between atoms: C_5  and  N_6 
REMARK    3  A    between atoms: N_6  and  C_7 
REMARK    4  A    between atoms: C_7  and  O_8 
REMARK    5  A    between atoms: C_7  and  C_9 
REMARK    6  A    between atoms: C_9  and  O_10 
REMARK    7  A    between atoms: O_10  and  N_11 
REMARK    8  A    between atoms: N_11  and  C_12 
ROOT
ATOM      1  N   UNL d   1      28.963 -17.409  -0.365  0.00  0.00    -0.170 NA
ATOM      2  H   UNL d   1      29.402 -18.227   0.052  0.00  0.00     0.160 HD
ENDROOT
BRANCH   1   3
ATOM      3  O   UNL d   1      29.548 -16.199   0.061  0.00  0.00    -0.297 OA
BRANCH   3   4
ATOM      4  C   UNL d   1      30.788 -16.022  -0.634  0.00  0.00     0.257 C 
BRANCH   4   5
ATOM      5  C   UNL d   1      31.529 -17.377  -0.717  0.00  0.00     0.379 C 
BRANCH   5   6
ATOM      6  N   UNL d   1      31.531 -18.013   0.592  0.00  0.00     0.115 N 
ATOM      7  H   UNL d   1      30.634 -17.826   1.037  0.00  0.00     0.319 HD
BRANCH   6   8
ATOM      8  C   UNL d   1      32.597 -17.498   1.459  0.00  0.00     0.281 C 
BRANCH   8   9
ATOM      9  C   UNL d   1      33.507 -18.641   1.983  0.00  0.00    -0.025 C 
ATOM     10  C   UNL d   1      34.341 -19.187   0.810  0.00  0.00     0.016 C 
ATOM     11  C   UNL d   1      32.648 -19.784   2.554  0.00  0.00     0.016 C 
ATOM     12  C   UNL d   1      34.468 -18.124   3.068  0.00  0.00     0.016 C 
ENDBRANCH   8   9
ENDBRANCH   6   8
ENDBRANCH   5   6
BRANCH   5  13
ATOM     13  O   UNL d   1      30.874 -18.229  -1.636  0.00  0.00    -0.366 OA
ATOM     14  H   UNL d   1      29.982 -17.855  -1.729  0.00  0.00     0.212 HD
ENDBRANCH   5  13
ENDBRANCH   4   5
ENDBRANCH   3   4
ENDBRANCH   1   3
BRANCH   1  15
ATOM     15  C   UNL d   1      27.594 -17.464  -0.274  0.00  0.00     0.045 A 
ATOM     16  C   UNL d   1      26.747 -18.264   0.428  0.00  0.00     0.038 A 
ATOM     17  C   UNL d   1      25.323 -17.878   0.068  0.00  0.00    -0.022 A 
ATOM     18  C   UNL d   1      24.076 -18.349   0.468  0.00  0.00     0.012 A 
ATOM     19  C   UNL d   1      25.403 -16.844  -0.858  0.00  0.00    -0.004 A 
ATOM     20  C   UNL d   1      22.949 -17.737  -0.123  0.00  0.00     0.002 A 
ATOM     21  C   UNL d   1      23.064 -16.697  -1.070  0.00  0.00     0.012 A 
ATOM     22  C   UNL d   1      24.336 -16.235  -1.451  0.00  0.00    -0.024 A 
ATOM     23  C   UNL d   1      24.633 -15.219  -2.377  0.00  0.00     0.012 A 
ATOM     24  C   UNL d   1      25.976 -14.886  -2.652  0.00  0.00     0.002 A 
ATOM     25  C   UNL d   1      27.052 -15.536  -2.024  0.00  0.00     0.014 A 
ATOM     26  C   UNL d   1      26.734 -16.535  -1.111  0.00  0.00    -0.001 A 
ENDBRANCH   1  15
TORSDOF 8
ENDMDL
MODEL 9
REMARK VINA RESULT:    -6.761      1.887      3.270
REMARK INTER + INTRA:         -12.661
REMARK INTER:                  -9.148
REMARK INTRA:                  -3.513
REMARK CONF_INDEPENDENT:        2.386
REMARK UNBOUND:                -3.513
REMARK  8 active torsions:
REMARK  status: ('A' for Active; 'I' for Inactive)
REMARK    1  A    between atoms: C_2  and  C_5 
REMARK    2  A    between atoms: C_5  and  N_6 
REMARK    3  A    between atoms: N_6  and  C_7 
REMARK    4  A    between atoms: C_7  and  O_8 
REMARK    5  A    between atoms: C_7  and  C_9 
REMARK    6  A    between atoms: C_9  and  O_10 
REMARK    7  A    between atoms: O_10  and  N_11 
REMARK    8  A    between atoms: N_11  and  C_12 
ROOT
ATOM      1  N   UNL d   1      29.798 -17.715  -0.428  0.00  0.00    -0.170 NA
ATOM      2  H   UNL d   1      29.831 -17.518   0.570  0.00  0.00     0.160 HD
ENDROOT
BRANCH   1   3
ATOM      3  O   UNL d   1      31.044 -17.534  -1.061  0.00  0.00    -0.297 OA
BRANCH   3   4
ATOM      4  C   UNL d   1      31.546 -16.237  -0.720  0.00  0.00     0.257 C 
BRANCH   4   5
ATOM      5  C   UNL d   1      31.657 -16.116   0.817  0.00  0.00     0.379 C 
BRANCH   5   6
ATOM      6  N   UNL d   1      30.419 -15.573   1.355  0.00  0.00     0.115 N 
ATOM      7  H   UNL d   1      29.698 -16.287   1.276  0.00  0.00     0.319 HD
BRANCH   6   8
ATOM      8  C   UNL d   1      29.973 -14.379   0.628  0.00  0.00     0.281 C 
BRANCH   8   9
ATOM      9  C   UNL d   1      28.692 -13.773   1.260  0.00  0.00    -0.025 C 
ATOM     10  C   UNL d   1      27.721 -14.918   1.604  0.00  0.00     0.016 C 
ATOM     11  C   UNL d   1      28.005 -12.824   0.261  0.00  0.00     0.016 C 
ATOM     12  C   UNL d   1      29.026 -13.010   2.553  0.00  0.00     0.016 C 
ENDBRANCH   8   9
ENDBRANCH   6   8
ENDBRANCH   5   6
BRANCH   5  13
ATOM     13  O   UNL d   1      31.879 -17.393   1.386  0.00  0.00    -0.366 OA
ATOM     14  H   UNL d   1      31.182 -17.955   1.011  0.00  0.00     0.212 HD
ENDBRANCH   5  13
ENDBRANCH   4   5
ENDBRANCH   3   4
ENDBRANCH   1   3
BRANCH   1  15
ATOM     15  C   UNL d   1      28.735 -17.094  -1.035  0.00  0.00     0.045 A 
ATOM     16  C   UNL d   1      28.652 -16.161  -2.022  0.00  0.00     0.038 A 
ATOM     17  C   UNL d   1      27.187 -15.817  -2.227  0.00  0.00    -0.022 A 
ATOM     18  C   UNL d   1      26.522 -14.942  -3.081  0.00  0.00     0.012 A 
ATOM     19  C   UNL d   1      26.459 -16.581  -1.322  0.00  0.00    -0.004 A 
ATOM     20  C   UNL d   1      25.117 -14.880  -2.955  0.00  0.00     0.002 A 
ATOM     21  C   UNL d   1      24.408 -15.661  -2.017  0.00  0.00     0.012 A 
ATOM     22  C   UNL d   1      25.103 -16.541  -1.171  0.00  0.00    -0.024 A 
ATOM     23  C   UNL d   1      24.561 -17.383  -0.183  0.00  0.00     0.012 A 
ATOM     24  C   UNL d   1      25.410 -18.202   0.589  0.00  0.00     0.002 A 
ATOM     25  C   UNL d   1      26.804 -18.216   0.409  0.00  0.00     0.014 A 
ATOM     26  C   UNL d   1      27.317 -17.378  -0.574  0.00  0.00    -0.001 A 
ENDBRANCH   1  15
TORSDOF 8
ENDMDL
