MODEL 1
REMARK VINA RESULT:   -10.230      0.000      0.000
REMARK INTER + INTRA:         -13.753
REMARK INTER:                 -12.616
REMARK INTRA:                  -1.137
REMARK CONF_INDEPENDENT:        2.386
REMARK UNBOUND:                -1.137
REMARK  8 active torsions:
REMARK  status: ('A' for Active; 'I' for Inactive)
REMARK    1  A    between atoms: O_2  and  C_3 
REMARK    2  A    between atoms: C_6  and  C_7 
REMARK       I    between atoms: C_7  and  N_9 
REMARK    3  A    between atoms: N_9  and  C_10 
REMARK    4  A    between atoms: C_10  and  N_12 
REMARK    5  A    between atoms: N_12  and  C_13 
REMARK    6  A    between atoms: C_16  and  N_17 
REMARK       I    between atoms: N_17  and  C_18 
REMARK    7  A    between atoms: C_18  and  C_20 
REMARK    8  A    between atoms: C_30  and  O_31 
ROOT
ATOM      1  N   UNL d   1      28.058 -15.492  -0.864  0.00  0.00    -0.333 N 
ATOM      2  H   UNL d   1      27.983 -14.879  -1.665  0.00  0.00     0.168 HD
ENDROOT
BRANCH   1   3
ATOM      3  C   UNL d   1      29.287 -15.603  -0.152  0.00  0.00     0.179 C 
ATOM      4  S   UNL d   1      30.719 -16.158  -0.872  0.00  0.00    -0.040 SA
BRANCH   3   5
ATOM      5  N   UNL d   1      29.236 -15.158   1.196  0.00  0.00    -0.299 N 
ATOM      6  C   UNL d   1      28.287 -14.231   1.705  0.00  0.00     0.257 C 
ATOM      7  O   UNL d   1      27.450 -13.652   1.019  0.00  0.00    -0.267 OA
ATOM      8  H   UNL d   1      29.921 -15.533   1.833  0.00  0.00     0.171 HD
BRANCH   6   9
ATOM      9  C   UNL d   1      28.255 -13.816   3.141  0.00  0.00     0.035 A 
ATOM     10  C   UNL d   1      28.317 -14.825   4.124  0.00  0.00     0.020 A 
ATOM     11  C   UNL d   1      28.165 -14.532   5.491  0.00  0.00     0.040 A 
ATOM     12  C   UNL d   1      28.025 -13.207   5.939  0.00  0.00     0.101 A 
ATOM     13  C   UNL d   1      28.039 -12.190   4.953  0.00  0.00     0.102 A 
ATOM     14  C   UNL d   1      28.135 -12.510   3.576  0.00  0.00     0.056 A 
BRANCH  12  15
ATOM     15  O   UNL d   1      28.166 -13.083   7.306  0.00  0.00    -0.353 OA
ATOM     16  C   UNL d   1      29.441 -13.195   7.942  0.00  0.00     0.210 C 
ENDBRANCH  12  15
BRANCH  13  17
ATOM     17  O   UNL d   1      28.033 -10.821   5.063  0.00  0.00    -0.353 OA
ATOM     18  C   UNL d   1      28.795 -10.302   6.113  0.00  0.00     0.210 C 
ENDBRANCH  13  17
ENDBRANCH   6   9
ENDBRANCH   3   5
ENDBRANCH   1   3
BRANCH   1  19
ATOM     19  C   UNL d   1      26.955 -16.403  -0.675  0.00  0.00     0.034 A 
ATOM     20  C   UNL d   1      26.907 -17.390   0.321  0.00  0.00     0.032 A 
ATOM     21  C   UNL d   1      25.750 -18.218   0.472  0.00  0.00     0.032 A 
ATOM     22  C   UNL d   1      24.616 -18.034  -0.337  0.00  0.00     0.035 A 
ATOM     23  C   UNL d   1      24.716 -17.087  -1.347  0.00  0.00     0.032 A 
ATOM     24  C   UNL d   1      25.863 -16.323  -1.531  0.00  0.00     0.032 A 
BRANCH  22  25
ATOM     25  N   UNL d   1      23.408 -18.768  -0.128  0.00  0.00    -0.323 N 
ATOM     26  C   UNL d   1      22.128 -18.270  -0.420  0.00  0.00     0.256 C 
ATOM     27  O   UNL d   1      21.850 -17.185  -0.895  0.00  0.00    -0.267 OA
ATOM     28  H   UNL d   1      23.487 -19.695   0.266  0.00  0.00     0.169 HD
BRANCH  26  29
ATOM     29  C   UNL d   1      20.954 -19.125  -0.122  0.00  0.00     0.032 A 
ATOM     30  C   UNL d   1      20.018 -19.320  -1.153  0.00  0.00     0.017 A 
ATOM     31  C   UNL d   1      18.783 -19.905  -0.883  0.00  0.00     0.002 A 
ATOM     32  C   UNL d   1      18.499 -20.348   0.406  0.00  0.00     0.007 A 
ATOM     33  C   UNL d   1      19.424 -20.154   1.441  0.00  0.00    -0.061 A 
ATOM     34  C   UNL d   1      19.077 -20.540   2.847  0.00  0.00     0.048 C 
ATOM     35  C   UNL d   1      20.656 -19.534   1.175  0.00  0.00     0.023 A 
ENDBRANCH  26  29
ENDBRANCH  22  25
ENDBRANCH   1  19
TORSDOF 8
ENDMDL
MODEL 2
REMARK VINA RESULT:   -10.143      5.324      8.086
REMARK INTER + INTRA:         -13.456
REMARK INTER:                 -12.529
REMARK INTRA:                  -0.927
REMARK CONF_INDEPENDENT:        2.386
REMARK UNBOUND:                -0.927
REMARK  8 active torsions:
REMARK  status: ('A' for Active; 'I' for Inactive)
REMARK    1  A    between atoms: O_2  and  C_3 
REMARK    2  A    between atoms: C_6  and  C_7 
REMARK       I    between atoms: C_7  and  N_9 
REMARK    3  A    between atoms: N_9  and  C_10 
REMARK    4  A    between atoms: C_10  and  N_12 
REMARK    5  A    between atoms: N_12  and  C_13 
REMARK    6  A    between atoms: C_16  and  N_17 
REMARK       I    between atoms: N_17  and  C_18 
REMARK    7  A    between atoms: C_18  and  C_20 
REMARK    8  A    between atoms: C_30  and  O_31 
ROOT
ATOM      1  N   UNL d   1      26.840 -14.874  -1.790  0.00  0.00    -0.333 N 
ATOM      2  H   UNL d   1      27.395 -14.479  -1.043  0.00  0.00     0.168 HD
ENDROOT
BRANCH   1   3
ATOM      3  C   UNL d   1      26.827 -14.269  -3.080  0.00  0.00     0.179 C 
ATOM      4  S   UNL d   1      25.532 -13.328  -3.640  0.00  0.00    -0.040 SA
BRANCH   3   5
ATOM      5  N   UNL d   1      28.009 -14.467  -3.841  0.00  0.00    -0.299 N 
ATOM      6  C   UNL d   1      28.052 -15.078  -5.124  0.00  0.00     0.257 C 
ATOM      7  O   UNL d   1      27.079 -15.573  -5.685  0.00  0.00    -0.267 OA
ATOM      8  H   UNL d   1      28.876 -14.145  -3.441  0.00  0.00     0.171 HD
BRANCH   6   9
ATOM      9  C   UNL d   1      29.319 -15.236  -5.900  0.00  0.00     0.035 A 
ATOM     10  C   UNL d   1      29.852 -14.098  -6.539  0.00  0.00     0.020 A 
ATOM     11  C   UNL d   1      30.966 -14.186  -7.391  0.00  0.00     0.040 A 
ATOM     12  C   UNL d   1      31.647 -15.402  -7.577  0.00  0.00     0.101 A 
ATOM     13  C   UNL d   1      31.153 -16.528  -6.873  0.00  0.00     0.102 A 
ATOM     14  C   UNL d   1      29.993 -16.432  -6.064  0.00  0.00     0.056 A 
BRANCH  12  15
ATOM     15  O   UNL d   1      32.861 -15.249  -8.213  0.00  0.00    -0.353 OA
ATOM     16  C   UNL d   1      33.296 -16.156  -9.228  0.00  0.00     0.210 C 
ENDBRANCH  12  15
BRANCH  13  17
ATOM     17  O   UNL d   1      31.639 -17.807  -6.753  0.00  0.00    -0.353 OA
ATOM     18  C   UNL d   1      30.702 -18.824  -6.952  0.00  0.00     0.210 C 
ENDBRANCH  13  17
ENDBRANCH   6   9
ENDBRANCH   3   5
ENDBRANCH   1   3
BRANCH   1  19
ATOM     19  C   UNL d   1      25.898 -15.892  -1.390  0.00  0.00     0.034 A 
ATOM     20  C   UNL d   1      26.254 -17.095  -0.760  0.00  0.00     0.032 A 
ATOM     21  C   UNL d   1      25.249 -18.027  -0.349  0.00  0.00     0.032 A 
ATOM     22  C   UNL d   1      23.883 -17.743  -0.519  0.00  0.00     0.035 A 
ATOM     23  C   UNL d   1      23.567 -16.572  -1.192  0.00  0.00     0.032 A 
ATOM     24  C   UNL d   1      24.546 -15.693  -1.644  0.00  0.00     0.032 A 
BRANCH  22  25
ATOM     25  N   UNL d   1      22.862 -18.603  -0.011  0.00  0.00    -0.323 N 
ATOM     26  C   UNL d   1      21.520 -18.555  -0.422  0.00  0.00     0.256 C 
ATOM     27  O   UNL d   1      21.031 -17.815  -1.255  0.00  0.00    -0.267 OA
ATOM     28  H   UNL d   1      23.126 -19.276   0.696  0.00  0.00     0.169 HD
BRANCH  26  29
ATOM     29  C   UNL d   1      20.554 -19.483   0.212  0.00  0.00     0.032 A 
ATOM     30  C   UNL d   1      19.459 -19.905  -0.563  0.00  0.00     0.017 A 
ATOM     31  C   UNL d   1      18.392 -20.577   0.029  0.00  0.00     0.002 A 
ATOM     32  C   UNL d   1      18.440 -20.881   1.387  0.00  0.00     0.007 A 
ATOM     33  C   UNL d   1      19.525 -20.462   2.169  0.00  0.00    -0.061 A 
ATOM     34  C   UNL d   1      19.529 -20.700   3.649  0.00  0.00     0.048 C 
ATOM     35  C   UNL d   1      20.585 -19.754   1.577  0.00  0.00     0.023 A 
ENDBRANCH  26  29
ENDBRANCH  22  25
ENDBRANCH   1  19
TORSDOF 8
ENDMDL
MODEL 3
REMARK VINA RESULT:   -10.087      5.364      8.000
REMARK INTER + INTRA:         -13.310
REMARK INTER:                 -12.474
REMARK INTRA:                  -0.836
REMARK CONF_INDEPENDENT:        2.386
REMARK UNBOUND:                -0.836
REMARK  8 active torsions:
REMARK  status: ('A' for Active; 'I' for Inactive)
REMARK    1  A    between atoms: O_2  and  C_3 
REMARK    2  A    between atoms: C_6  and  C_7 
REMARK       I    between atoms: C_7  and  N_9 
REMARK    3  A    between atoms: N_9  and  C_10 
REMARK    4  A    between atoms: C_10  and  N_12 
REMARK    5  A    between atoms: N_12  and  C_13 
REMARK    6  A    between atoms: C_16  and  N_17 
REMARK       I    between atoms: N_17  and  C_18 
REMARK    7  A    between atoms: C_18  and  C_20 
REMARK    8  A    between atoms: C_30  and  O_31 
ROOT
ATOM      1  N   UNL d   1      26.943 -15.121  -1.915  0.00  0.00    -0.333 N 
ATOM      2  H   UNL d   1      27.528 -14.740  -1.183  0.00  0.00     0.168 HD
ENDROOT
BRANCH   1   3
ATOM      3  C   UNL d   1      26.917 -14.519  -3.206  0.00  0.00     0.179 C 
ATOM      4  S   UNL d   1      25.628 -13.556  -3.744  0.00  0.00    -0.040 SA
BRANCH   3   5
ATOM      5  N   UNL d   1      28.080 -14.739  -3.989  0.00  0.00    -0.299 N 
ATOM      6  C   UNL d   1      28.076 -15.030  -5.380  0.00  0.00     0.257 C 
ATOM      7  O   UNL d   1      27.059 -15.200  -6.047  0.00  0.00    -0.267 OA
ATOM      8  H   UNL d   1      28.971 -14.679  -3.521  0.00  0.00     0.171 HD
BRANCH   6   9
ATOM      9  C   UNL d   1      29.330 -15.225  -6.168  0.00  0.00     0.035 A 
ATOM     10  C   UNL d   1      29.976 -16.476  -6.089  0.00  0.00     0.020 A 
ATOM     11  C   UNL d   1      31.225 -16.700  -6.695  0.00  0.00     0.040 A 
ATOM     12  C   UNL d   1      31.843 -15.707  -7.475  0.00  0.00     0.101 A 
ATOM     13  C   UNL d   1      31.155 -14.477  -7.614  0.00  0.00     0.102 A 
ATOM     14  C   UNL d   1      29.924 -14.250  -6.947  0.00  0.00     0.056 A 
BRANCH  12  15
ATOM     15  O   UNL d   1      32.909 -16.185  -8.210  0.00  0.00    -0.353 OA
ATOM     16  C   UNL d   1      33.008 -17.562  -8.580  0.00  0.00     0.210 C 
ENDBRANCH  12  15
BRANCH  13  17
ATOM     17  O   UNL d   1      31.426 -13.368  -8.376  0.00  0.00    -0.353 OA
ATOM     18  C   UNL d   1      30.545 -12.296  -8.207  0.00  0.00     0.210 C 
ENDBRANCH  13  17
ENDBRANCH   6   9
ENDBRANCH   3   5
ENDBRANCH   1   3
BRANCH   1  19
ATOM     19  C   UNL d   1      25.982 -16.110  -1.489  0.00  0.00     0.034 A 
ATOM     20  C   UNL d   1      26.310 -17.274  -0.777  0.00  0.00     0.032 A 
ATOM     21  C   UNL d   1      25.287 -18.177  -0.347  0.00  0.00     0.032 A 
ATOM     22  C   UNL d   1      23.929 -17.900  -0.582  0.00  0.00     0.035 A 
ATOM     23  C   UNL d   1      23.643 -16.770  -1.335  0.00  0.00     0.032 A 
ATOM     24  C   UNL d   1      24.642 -15.923  -1.803  0.00  0.00     0.032 A 
BRANCH  22  25
ATOM     25  N   UNL d   1      22.886 -18.726  -0.061  0.00  0.00    -0.323 N 
ATOM     26  C   UNL d   1      21.532 -18.590  -0.408  0.00  0.00     0.256 C 
ATOM     27  O   UNL d   1      21.047 -17.792  -1.188  0.00  0.00    -0.267 OA
ATOM     28  H   UNL d   1      23.143 -19.439   0.606  0.00  0.00     0.169 HD
BRANCH  26  29
ATOM     29  C   UNL d   1      20.546 -19.492   0.234  0.00  0.00     0.032 A 
ATOM     30  C   UNL d   1      19.427 -19.873  -0.528  0.00  0.00     0.017 A 
ATOM     31  C   UNL d   1      18.348 -20.515   0.075  0.00  0.00     0.002 A 
ATOM     32  C   UNL d   1      18.405 -20.830   1.430  0.00  0.00     0.007 A 
ATOM     33  C   UNL d   1      19.513 -20.450   2.199  0.00  0.00    -0.061 A 
ATOM     34  C   UNL d   1      19.530 -20.698   3.677  0.00  0.00     0.048 C 
ATOM     35  C   UNL d   1      20.586 -19.772   1.597  0.00  0.00     0.023 A 
ENDBRANCH  26  29
ENDBRANCH  22  25
ENDBRANCH   1  19
TORSDOF 8
ENDMDL
MODEL 4
REMARK VINA RESULT:    -9.785      5.763      8.269
REMARK INTER + INTRA:         -12.820
REMARK INTER:                 -12.171
REMARK INTRA:                  -0.648
REMARK CONF_INDEPENDENT:        2.386
REMARK UNBOUND:                -0.648
REMARK  8 active torsions:
REMARK  status: ('A' for Active; 'I' for Inactive)
REMARK    1  A    between atoms: O_2  and  C_3 
REMARK    2  A    between atoms: C_6  and  C_7 
REMARK       I    between atoms: C_7  and  N_9 
REMARK    3  A    between atoms: N_9  and  C_10 
REMARK    4  A    between atoms: C_10  and  N_12 
REMARK    5  A    between atoms: N_12  and  C_13 
REMARK    6  A    between atoms: C_16  and  N_17 
REMARK       I    between atoms: N_17  and  C_18 
REMARK    7  A    between atoms: C_18  and  C_20 
REMARK    8  A    between atoms: C_30  and  O_31 
ROOT
ATOM      1  N   UNL d   1      26.398 -15.383  -2.625  0.00  0.00    -0.333 N 
ATOM      2  H   UNL d   1      27.346 -15.492  -2.288  0.00  0.00     0.168 HD
ENDROOT
BRANCH   1   3
ATOM      3  C   UNL d   1      26.082 -14.375  -3.582  0.00  0.00     0.179 C 
ATOM      4  S   UNL d   1      24.560 -13.631  -3.662  0.00  0.00    -0.040 SA
BRANCH   3   5
ATOM      5  N   UNL d   1      27.158 -14.000  -4.428  0.00  0.00    -0.299 N 
ATOM      6  C   UNL d   1      27.449 -14.602  -5.682  0.00  0.00     0.257 C 
ATOM      7  O   UNL d   1      26.846 -15.569  -6.140  0.00  0.00    -0.267 OA
ATOM      8  H   UNL d   1      27.753 -13.249  -4.115  0.00  0.00     0.171 HD
BRANCH   6   9
ATOM      9  C   UNL d   1      28.577 -14.151  -6.552  0.00  0.00     0.035 A 
ATOM     10  C   UNL d   1      29.768 -14.906  -6.539  0.00  0.00     0.020 A 
ATOM     11  C   UNL d   1      30.918 -14.481  -7.227  0.00  0.00     0.040 A 
ATOM     12  C   UNL d   1      30.901 -13.324  -8.026  0.00  0.00     0.101 A 
ATOM     13  C   UNL d   1      29.680 -12.609  -8.096  0.00  0.00     0.102 A 
ATOM     14  C   UNL d   1      28.549 -13.022  -7.348  0.00  0.00     0.056 A 
BRANCH  12  15
ATOM     15  O   UNL d   1      32.012 -13.212  -8.836  0.00  0.00    -0.353 OA
ATOM     16  C   UNL d   1      32.896 -12.092  -8.748  0.00  0.00     0.210 C 
ENDBRANCH  12  15
BRANCH  13  17
ATOM     17  O   UNL d   1      29.306 -11.525  -8.852  0.00  0.00    -0.353 OA
ATOM     18  C   UNL d   1      29.565 -11.634 -10.221  0.00  0.00     0.210 C 
ENDBRANCH  13  17
ENDBRANCH   6   9
ENDBRANCH   3   5
ENDBRANCH   1   3
BRANCH   1  19
ATOM     19  C   UNL d   1      25.393 -16.116  -1.895  0.00  0.00     0.034 A 
ATOM     20  C   UNL d   1      24.072 -15.679  -1.712  0.00  0.00     0.032 A 
ATOM     21  C   UNL d   1      23.123 -16.494  -1.018  0.00  0.00     0.032 A 
ATOM     22  C   UNL d   1      23.473 -17.771  -0.546  0.00  0.00     0.035 A 
ATOM     23  C   UNL d   1      24.799 -18.151  -0.695  0.00  0.00     0.032 A 
ATOM     24  C   UNL d   1      25.735 -17.333  -1.318  0.00  0.00     0.032 A 
BRANCH  22  25
ATOM     25  N   UNL d   1      22.513 -18.649   0.044  0.00  0.00    -0.323 N 
ATOM     26  C   UNL d   1      21.169 -18.726  -0.357  0.00  0.00     0.256 C 
ATOM     27  O   UNL d   1      20.630 -18.095  -1.247  0.00  0.00    -0.267 OA
ATOM     28  H   UNL d   1      22.823 -19.239   0.804  0.00  0.00     0.169 HD
BRANCH  26  29
ATOM     29  C   UNL d   1      20.270 -19.657   0.364  0.00  0.00     0.032 A 
ATOM     30  C   UNL d   1      19.126 -20.110  -0.318  0.00  0.00     0.017 A 
ATOM     31  C   UNL d   1      18.119 -20.787   0.364  0.00  0.00     0.002 A 
ATOM     32  C   UNL d   1      18.274 -21.065   1.720  0.00  0.00     0.007 A 
ATOM     33  C   UNL d   1      19.407 -20.614   2.410  0.00  0.00    -0.061 A 
ATOM     34  C   UNL d   1      19.526 -20.825   3.889  0.00  0.00     0.048 C 
ATOM     35  C   UNL d   1      20.407 -19.902   1.728  0.00  0.00     0.023 A 
ENDBRANCH  26  29
ENDBRANCH  22  25
ENDBRANCH   1  19
TORSDOF 8
ENDMDL
MODEL 5
REMARK VINA RESULT:    -9.625      1.041      1.538
REMARK INTER + INTRA:         -13.185
REMARK INTER:                 -12.012
REMARK INTRA:                  -1.173
REMARK CONF_INDEPENDENT:        2.386
REMARK UNBOUND:                -1.173
REMARK  8 active torsions:
REMARK  status: ('A' for Active; 'I' for Inactive)
REMARK    1  A    between atoms: O_2  and  C_3 
REMARK    2  A    between atoms: C_6  and  C_7 
REMARK       I    between atoms: C_7  and  N_9 
REMARK    3  A    between atoms: N_9  and  C_10 
REMARK    4  A    between atoms: C_10  and  N_12 
REMARK    5  A    between atoms: N_12  and  C_13 
REMARK    6  A    between atoms: C_16  and  N_17 
REMARK       I    between atoms: N_17  and  C_18 
REMARK    7  A    between atoms: C_18  and  C_20 
REMARK    8  A    between atoms: C_30  and  O_31 
ROOT
ATOM      1  N   UNL d   1      27.680 -16.137  -1.533  0.00  0.00    -0.333 N 
ATOM      2  H   UNL d   1      27.622 -15.833  -2.496  0.00  0.00     0.168 HD
ENDROOT
BRANCH   1   3
ATOM      3  C   UNL d   1      28.924 -16.111  -0.839  0.00  0.00     0.179 C 
ATOM      4  S   UNL d   1      30.378 -16.631  -1.541  0.00  0.00    -0.040 SA
BRANCH   3   5
ATOM      5  N   UNL d   1      28.864 -15.562   0.469  0.00  0.00    -0.299 N 
ATOM      6  C   UNL d   1      28.060 -14.453   0.845  0.00  0.00     0.257 C 
ATOM      7  O   UNL d   1      27.382 -13.794   0.061  0.00  0.00    -0.267 OA
ATOM      8  H   UNL d   1      29.432 -15.997   1.179  0.00  0.00     0.171 HD
BRANCH   6   9
ATOM      9  C   UNL d   1      28.008 -13.930   2.244  0.00  0.00     0.035 A 
ATOM     10  C   UNL d   1      28.279 -14.827   3.298  0.00  0.00     0.020 A 
ATOM     11  C   UNL d   1      28.127 -14.450   4.643  0.00  0.00     0.040 A 
ATOM     12  C   UNL d   1      27.778 -13.134   4.995  0.00  0.00     0.101 A 
ATOM     13  C   UNL d   1      27.581 -12.216   3.934  0.00  0.00     0.102 A 
ATOM     14  C   UNL d   1      27.681 -12.630   2.582  0.00  0.00     0.056 A 
BRANCH  12  15
ATOM     15  O   UNL d   1      27.944 -12.874   6.339  0.00  0.00    -0.353 OA
ATOM     16  C   UNL d   1      28.859 -13.623   7.142  0.00  0.00     0.210 C 
ENDBRANCH  12  15
BRANCH  13  17
ATOM     17  O   UNL d   1      27.344 -10.863   3.939  0.00  0.00    -0.353 OA
ATOM     18  C   UNL d   1      28.074 -10.125   3.004  0.00  0.00     0.210 C 
ENDBRANCH  13  17
ENDBRANCH   6   9
ENDBRANCH   3   5
ENDBRANCH   1   3
BRANCH   1  19
ATOM     19  C   UNL d   1      26.512 -16.818  -1.028  0.00  0.00     0.034 A 
ATOM     20  C   UNL d   1      26.506 -17.636   0.113  0.00  0.00     0.032 A 
ATOM     21  C   UNL d   1      25.290 -18.232   0.575  0.00  0.00     0.032 A 
ATOM     22  C   UNL d   1      24.067 -17.978  -0.068  0.00  0.00     0.035 A 
ATOM     23  C   UNL d   1      24.116 -17.210  -1.223  0.00  0.00     0.032 A 
ATOM     24  C   UNL d   1      25.307 -16.678  -1.705  0.00  0.00     0.032 A 
BRANCH  22  25
ATOM     25  N   UNL d   1      22.826 -18.466   0.444  0.00  0.00    -0.323 N 
ATOM     26  C   UNL d   1      21.772 -18.926  -0.363  0.00  0.00     0.256 C 
ATOM     27  O   UNL d   1      21.750 -18.996  -1.577  0.00  0.00    -0.267 OA
ATOM     28  H   UNL d   1      22.701 -18.466   1.446  0.00  0.00     0.169 HD
BRANCH  26  29
ATOM     29  C   UNL d   1      20.523 -19.374   0.297  0.00  0.00     0.032 A 
ATOM     30  C   UNL d   1      20.519 -19.433   1.702  0.00  0.00     0.017 A 
ATOM     31  C   UNL d   1      19.479 -20.064   2.380  0.00  0.00     0.002 A 
ATOM     32  C   UNL d   1      18.410 -20.591   1.660  0.00  0.00     0.007 A 
ATOM     33  C   UNL d   1      18.406 -20.543   0.259  0.00  0.00    -0.061 A 
ATOM     34  C   UNL d   1      17.306 -21.199  -0.518  0.00  0.00     0.048 C 
ATOM     35  C   UNL d   1      19.472 -19.935  -0.424  0.00  0.00     0.023 A 
ENDBRANCH  26  29
ENDBRANCH  22  25
ENDBRANCH   1  19
TORSDOF 8
ENDMDL
MODEL 6
REMARK VINA RESULT:    -9.589      5.224      8.301
REMARK INTER + INTRA:         -13.316
REMARK INTER:                 -11.975
REMARK INTRA:                  -1.341
REMARK CONF_INDEPENDENT:        2.386
REMARK UNBOUND:                -1.341
REMARK  8 active torsions:
REMARK  status: ('A' for Active; 'I' for Inactive)
REMARK    1  A    between atoms: O_2  and  C_3 
REMARK    2  A    between atoms: C_6  and  C_7 
REMARK       I    between atoms: C_7  and  N_9 
REMARK    3  A    between atoms: N_9  and  C_10 
REMARK    4  A    between atoms: C_10  and  N_12 
REMARK    5  A    between atoms: N_12  and  C_13 
REMARK    6  A    between atoms: C_16  and  N_17 
REMARK       I    between atoms: N_17  and  C_18 
REMARK    7  A    between atoms: C_18  and  C_20 
REMARK    8  A    between atoms: C_30  and  O_31 
ROOT
ATOM      1  N   UNL d   1      26.988 -15.500  -2.405  0.00  0.00    -0.333 N 
ATOM      2  H   UNL d   1      27.799 -15.337  -1.824  0.00  0.00     0.168 HD
ENDROOT
BRANCH   1   3
ATOM      3  C   UNL d   1      26.861 -14.852  -3.669  0.00  0.00     0.179 C 
ATOM      4  S   UNL d   1      25.730 -13.623  -3.961  0.00  0.00    -0.040 SA
BRANCH   3   5
ATOM      5  N   UNL d   1      27.795 -15.277  -4.650  0.00  0.00    -0.299 N 
ATOM      6  C   UNL d   1      29.020 -15.939  -4.368  0.00  0.00     0.257 C 
ATOM      7  O   UNL d   1      29.446 -16.151  -3.236  0.00  0.00    -0.267 OA
ATOM      8  H   UNL d   1      27.565 -15.097  -5.615  0.00  0.00     0.171 HD
BRANCH   6   9
ATOM      9  C   UNL d   1      29.957 -16.394  -5.440  0.00  0.00     0.035 A 
ATOM     10  C   UNL d   1      30.440 -15.432  -6.351  0.00  0.00     0.020 A 
ATOM     11  C   UNL d   1      31.221 -15.795  -7.461  0.00  0.00     0.040 A 
ATOM     12  C   UNL d   1      31.621 -17.127  -7.665  0.00  0.00     0.101 A 
ATOM     13  C   UNL d   1      31.196 -18.079  -6.706  0.00  0.00     0.102 A 
ATOM     14  C   UNL d   1      30.360 -17.703  -5.624  0.00  0.00     0.056 A 
BRANCH  12  15
ATOM     15  O   UNL d   1      32.598 -17.256  -8.630  0.00  0.00    -0.353 OA
ATOM     16  C   UNL d   1      33.660 -16.308  -8.754  0.00  0.00     0.210 C 
ENDBRANCH  12  15
BRANCH  13  17
ATOM     17  O   UNL d   1      31.496 -19.411  -6.556  0.00  0.00    -0.353 OA
ATOM     18  C   UNL d   1      31.114 -20.233  -7.619  0.00  0.00     0.210 C 
ENDBRANCH  13  17
ENDBRANCH   6   9
ENDBRANCH   3   5
ENDBRANCH   1   3
BRANCH   1  19
ATOM     19  C   UNL d   1      25.896 -16.194  -1.765  0.00  0.00     0.034 A 
ATOM     20  C   UNL d   1      24.547 -15.832  -1.891  0.00  0.00     0.032 A 
ATOM     21  C   UNL d   1      23.522 -16.608  -1.264  0.00  0.00     0.032 A 
ATOM     22  C   UNL d   1      23.833 -17.778  -0.549  0.00  0.00     0.035 A 
ATOM     23  C   UNL d   1      25.179 -18.077  -0.397  0.00  0.00     0.032 A 
ATOM     24  C   UNL d   1      26.179 -17.290  -0.958  0.00  0.00     0.032 A 
BRANCH  22  25
ATOM     25  N   UNL d   1      22.820 -18.632  -0.015  0.00  0.00    -0.323 N 
ATOM     26  C   UNL d   1      21.468 -18.574  -0.390  0.00  0.00     0.256 C 
ATOM     27  O   UNL d   1      20.963 -17.830  -1.210  0.00  0.00    -0.267 OA
ATOM     28  H   UNL d   1      23.098 -19.306   0.684  0.00  0.00     0.169 HD
BRANCH  26  29
ATOM     29  C   UNL d   1      20.513 -19.496   0.268  0.00  0.00     0.032 A 
ATOM     30  C   UNL d   1      19.409 -19.931  -0.487  0.00  0.00     0.017 A 
ATOM     31  C   UNL d   1      18.352 -20.598   0.127  0.00  0.00     0.002 A 
ATOM     32  C   UNL d   1      18.418 -20.884   1.488  0.00  0.00     0.007 A 
ATOM     33  C   UNL d   1      19.511 -20.450   2.251  0.00  0.00    -0.061 A 
ATOM     34  C   UNL d   1      19.534 -20.669   3.734  0.00  0.00     0.048 C 
ATOM     35  C   UNL d   1      20.561 -19.748   1.637  0.00  0.00     0.023 A 
ENDBRANCH  26  29
ENDBRANCH  22  25
ENDBRANCH   1  19
TORSDOF 8
ENDMDL
MODEL 7
REMARK VINA RESULT:    -9.561      5.424      8.482
REMARK INTER + INTRA:         -13.388
REMARK INTER:                 -11.948
REMARK INTRA:                  -1.441
REMARK CONF_INDEPENDENT:        2.386
REMARK UNBOUND:                -1.441
REMARK  8 active torsions:
REMARK  status: ('A' for Active; 'I' for Inactive)
REMARK    1  A    between atoms: O_2  and  C_3 
REMARK    2  A    between atoms: C_6  and  C_7 
REMARK       I    between atoms: C_7  and  N_9 
REMARK    3  A    between atoms: N_9  and  C_10 
REMARK    4  A    between atoms: C_10  and  N_12 
REMARK    5  A    between atoms: N_12  and  C_13 
REMARK    6  A    between atoms: C_16  and  N_17 
REMARK       I    between atoms: N_17  and  C_18 
REMARK    7  A    between atoms: C_18  and  C_20 
REMARK    8  A    between atoms: C_30  and  O_31 
ROOT
ATOM      1  N   UNL d   1      26.859 -15.871  -2.735  0.00  0.00    -0.333 N 
ATOM      2  H   UNL d   1      27.747 -15.905  -2.253  0.00  0.00     0.168 HD
ENDROOT
BRANCH   1   3
ATOM      3  C   UNL d   1      26.740 -15.193  -3.983  0.00  0.00     0.179 C 
ATOM      4  S   UNL d   1      25.530 -14.046  -4.293  0.00  0.00    -0.040 SA
BRANCH   3   5
ATOM      5  N   UNL d   1      27.749 -15.509  -4.931  0.00  0.00    -0.299 N 
ATOM      6  C   UNL d   1      29.044 -15.994  -4.602  0.00  0.00     0.257 C 
ATOM      7  O   UNL d   1      29.462 -16.122  -3.455  0.00  0.00    -0.267 OA
ATOM      8  H   UNL d   1      27.524 -15.383  -5.905  0.00  0.00     0.171 HD
BRANCH   6   9
ATOM      9  C   UNL d   1      30.062 -16.342  -5.638  0.00  0.00     0.035 A 
ATOM     10  C   UNL d   1      30.684 -15.287  -6.338  0.00  0.00     0.020 A 
ATOM     11  C   UNL d   1      31.556 -15.529  -7.414  0.00  0.00     0.040 A 
ATOM     12  C   UNL d   1      31.909 -16.839  -7.783  0.00  0.00     0.101 A 
ATOM     13  C   UNL d   1      31.340 -17.894  -7.029  0.00  0.00     0.102 A 
ATOM     14  C   UNL d   1      30.418 -17.632  -5.985  0.00  0.00     0.056 A 
BRANCH  12  15
ATOM     15  O   UNL d   1      32.972 -16.883  -8.661  0.00  0.00    -0.353 OA
ATOM     16  C   UNL d   1      33.503 -18.122  -9.135  0.00  0.00     0.210 C 
ENDBRANCH  12  15
BRANCH  13  17
ATOM     17  O   UNL d   1      31.557 -19.250  -7.060  0.00  0.00    -0.353 OA
ATOM     18  C   UNL d   1      30.405 -20.040  -7.069  0.00  0.00     0.210 C 
ENDBRANCH  13  17
ENDBRANCH   6   9
ENDBRANCH   3   5
ENDBRANCH   1   3
BRANCH   1  19
ATOM     19  C   UNL d   1      25.719 -16.309  -1.967  0.00  0.00     0.034 A 
ATOM     20  C   UNL d   1      24.460 -15.690  -1.998  0.00  0.00     0.032 A 
ATOM     21  C   UNL d   1      23.367 -16.222  -1.244  0.00  0.00     0.032 A 
ATOM     22  C   UNL d   1      23.510 -17.402  -0.493  0.00  0.00     0.035 A 
ATOM     23  C   UNL d   1      24.780 -17.958  -0.441  0.00  0.00     0.032 A 
ATOM     24  C   UNL d   1      25.857 -17.407  -1.127  0.00  0.00     0.032 A 
BRANCH  22  25
ATOM     25  N   UNL d   1      22.405 -18.016   0.172  0.00  0.00    -0.323 N 
ATOM     26  C   UNL d   1      21.459 -18.831  -0.470  0.00  0.00     0.256 C 
ATOM     27  O   UNL d   1      21.435 -19.148  -1.644  0.00  0.00    -0.267 OA
ATOM     28  H   UNL d   1      22.297 -17.838   1.160  0.00  0.00     0.169 HD
BRANCH  26  29
ATOM     29  C   UNL d   1      20.339 -19.378   0.333  0.00  0.00     0.032 A 
ATOM     30  C   UNL d   1      20.481 -19.369   1.732  0.00  0.00     0.017 A 
ATOM     31  C   UNL d   1      19.591 -20.074   2.537  0.00  0.00     0.002 A 
ATOM     32  C   UNL d   1      18.521 -20.747   1.952  0.00  0.00     0.007 A 
ATOM     33  C   UNL d   1      18.373 -20.767   0.559  0.00  0.00    -0.061 A 
ATOM     34  C   UNL d   1      17.280 -21.574  -0.075  0.00  0.00     0.048 C 
ATOM     35  C   UNL d   1      19.291 -20.082  -0.254  0.00  0.00     0.023 A 
ENDBRANCH  26  29
ENDBRANCH  22  25
ENDBRANCH   1  19
TORSDOF 8
ENDMDL
MODEL 8
REMARK VINA RESULT:    -9.442      4.830      7.615
REMARK INTER + INTRA:         -12.923
REMARK INTER:                 -11.828
REMARK INTRA:                  -1.095
REMARK CONF_INDEPENDENT:        2.386
REMARK UNBOUND:                -1.095
REMARK  8 active torsions:
REMARK  status: ('A' for Active; 'I' for Inactive)
REMARK    1  A    between atoms: O_2  and  C_3 
REMARK    2  A    between atoms: C_6  and  C_7 
REMARK       I    between atoms: C_7  and  N_9 
REMARK    3  A    between atoms: N_9  and  C_10 
REMARK    4  A    between atoms: C_10  and  N_12 
REMARK    5  A    between atoms: N_12  and  C_13 
REMARK    6  A    between atoms: C_16  and  N_17 
REMARK       I    between atoms: N_17  and  C_18 
REMARK    7  A    between atoms: C_18  and  C_20 
REMARK    8  A    between atoms: C_30  and  O_31 
ROOT
ATOM      1  N   UNL d   1      27.819 -15.561  -1.481  0.00  0.00    -0.333 N 
ATOM      2  H   UNL d   1      27.853 -14.713  -0.932  0.00  0.00     0.168 HD
ENDROOT
BRANCH   1   3
ATOM      3  C   UNL d   1      28.617 -15.697  -2.653  0.00  0.00     0.179 C 
ATOM      4  S   UNL d   1      29.586 -17.057  -2.952  0.00  0.00    -0.040 SA
BRANCH   3   5
ATOM      5  N   UNL d   1      28.497 -14.630  -3.582  0.00  0.00    -0.299 N 
ATOM      6  C   UNL d   1      27.614 -14.624  -4.696  0.00  0.00     0.257 C 
ATOM      7  O   UNL d   1      26.910 -15.574  -5.024  0.00  0.00    -0.267 OA
ATOM      8  H   UNL d   1      29.078 -13.820  -3.434  0.00  0.00     0.171 HD
BRANCH   6   9
ATOM      9  C   UNL d   1      27.501 -13.462  -5.629  0.00  0.00     0.035 A 
ATOM     10  C   UNL d   1      26.572 -12.448  -5.318  0.00  0.00     0.020 A 
ATOM     11  C   UNL d   1      26.313 -11.389  -6.205  0.00  0.00     0.040 A 
ATOM     12  C   UNL d   1      27.031 -11.253  -7.406  0.00  0.00     0.101 A 
ATOM     13  C   UNL d   1      28.017 -12.233  -7.679  0.00  0.00     0.102 A 
ATOM     14  C   UNL d   1      28.223 -13.326  -6.800  0.00  0.00     0.056 A 
BRANCH  12  15
ATOM     15  O   UNL d   1      26.847 -10.026  -8.008  0.00  0.00    -0.353 OA
ATOM     16  C   UNL d   1      27.229  -8.809  -7.364  0.00  0.00     0.210 C 
ENDBRANCH  12  15
BRANCH  13  17
ATOM     17  O   UNL d   1      28.945 -12.328  -8.687  0.00  0.00    -0.353 OA
ATOM     18  C   UNL d   1      28.458 -12.082  -9.973  0.00  0.00     0.210 C 
ENDBRANCH  13  17
ENDBRANCH   6   9
ENDBRANCH   3   5
ENDBRANCH   1   3
BRANCH   1  19
ATOM     19  C   UNL d   1      26.750 -16.472  -1.149  0.00  0.00     0.034 A 
ATOM     20  C   UNL d   1      26.781 -17.366  -0.068  0.00  0.00     0.032 A 
ATOM     21  C   UNL d   1      25.654 -18.199   0.222  0.00  0.00     0.032 A 
ATOM     22  C   UNL d   1      24.472 -18.108  -0.534  0.00  0.00     0.035 A 
ATOM     23  C   UNL d   1      24.494 -17.254  -1.627  0.00  0.00     0.032 A 
ATOM     24  C   UNL d   1      25.610 -16.488  -1.944  0.00  0.00     0.032 A 
BRANCH  22  25
ATOM     25  N   UNL d   1      23.295 -18.843  -0.191  0.00  0.00    -0.323 N 
ATOM     26  C   UNL d   1      21.989 -18.371  -0.397  0.00  0.00     0.256 C 
ATOM     27  O   UNL d   1      21.659 -17.311  -0.895  0.00  0.00    -0.267 OA
ATOM     28  H   UNL d   1      23.419 -19.750   0.237  0.00  0.00     0.169 HD
BRANCH  26  29
ATOM     29  C   UNL d   1      20.855 -19.221   0.037  0.00  0.00     0.032 A 
ATOM     30  C   UNL d   1      19.853 -19.496  -0.911  0.00  0.00     0.017 A 
ATOM     31  C   UNL d   1      18.651 -20.080  -0.519  0.00  0.00     0.002 A 
ATOM     32  C   UNL d   1      18.466 -20.444   0.813  0.00  0.00     0.007 A 
ATOM     33  C   UNL d   1      19.456 -20.170   1.766  0.00  0.00    -0.061 A 
ATOM     34  C   UNL d   1      19.216 -20.469   3.215  0.00  0.00     0.048 C 
ATOM     35  C   UNL d   1      20.655 -19.550   1.375  0.00  0.00     0.023 A 
ENDBRANCH  26  29
ENDBRANCH  22  25
ENDBRANCH   1  19
TORSDOF 8
ENDMDL
MODEL 9
REMARK VINA RESULT:    -9.390      5.201      8.213
REMARK INTER + INTRA:         -13.036
REMARK INTER:                 -11.777
REMARK INTRA:                  -1.260
REMARK CONF_INDEPENDENT:        2.386
REMARK UNBOUND:                -1.260
REMARK  8 active torsions:
REMARK  status: ('A' for Active; 'I' for Inactive)
REMARK    1  A    between atoms: O_2  and  C_3 
REMARK    2  A    between atoms: C_6  and  C_7 
REMARK       I    between atoms: C_7  and  N_9 
REMARK    3  A    between atoms: N_9  and  C_10 
REMARK    4  A    between atoms: C_10  and  N_12 
REMARK    5  A    between atoms: N_12  and  C_13 
REMARK    6  A    between atoms: C_16  and  N_17 
REMARK       I    between atoms: N_17  and  C_18 
REMARK    7  A    between atoms: C_18  and  C_20 
REMARK    8  A    between atoms: C_30  and  O_31 
ROOT
ATOM      1  N   UNL d   1      27.179 -15.553  -2.342  0.00  0.00    -0.333 N 
ATOM      2  H   UNL d   1      27.954 -15.347  -1.726  0.00  0.00     0.168 HD
ENDROOT
BRANCH   1   3
ATOM      3  C   UNL d   1      27.113 -14.973  -3.641  0.00  0.00     0.179 C 
ATOM      4  S   UNL d   1      26.152 -13.621  -3.995  0.00  0.00    -0.040 SA
BRANCH   3   5
ATOM      5  N   UNL d   1      27.959 -15.578  -4.607  0.00  0.00    -0.299 N 
ATOM      6  C   UNL d   1      29.181 -16.241  -4.310  0.00  0.00     0.257 C 
ATOM      7  O   UNL d   1      29.680 -16.299  -3.190  0.00  0.00    -0.267 OA
ATOM      8  H   UNL d   1      27.666 -15.535  -5.570  0.00  0.00     0.171 HD
BRANCH   6   9
ATOM      9  C   UNL d   1      30.023 -16.890  -5.360  0.00  0.00     0.035 A 
ATOM     10  C   UNL d   1      30.261 -18.276  -5.257  0.00  0.00     0.020 A 
ATOM     11  C   UNL d   1      31.144 -18.939  -6.127  0.00  0.00     0.040 A 
ATOM     12  C   UNL d   1      31.763 -18.261  -7.191  0.00  0.00     0.101 A 
ATOM     13  C   UNL d   1      31.461 -16.884  -7.337  0.00  0.00     0.102 A 
ATOM     14  C   UNL d   1      30.615 -16.220  -6.414  0.00  0.00     0.056 A 
BRANCH  12  15
ATOM     15  O   UNL d   1      32.365 -19.110  -8.095  0.00  0.00    -0.353 OA
ATOM     16  C   UNL d   1      31.637 -19.692  -9.178  0.00  0.00     0.210 C 
ENDBRANCH  12  15
BRANCH  13  17
ATOM     17  O   UNL d   1      31.806 -15.979  -8.311  0.00  0.00    -0.353 OA
ATOM     18  C   UNL d   1      32.922 -15.188  -8.025  0.00  0.00     0.210 C 
ENDBRANCH  13  17
ENDBRANCH   6   9
ENDBRANCH   3   5
ENDBRANCH   1   3
BRANCH   1  19
ATOM     19  C   UNL d   1      26.065 -16.236  -1.728  0.00  0.00     0.034 A 
ATOM     20  C   UNL d   1      24.726 -15.836  -1.857  0.00  0.00     0.032 A 
ATOM     21  C   UNL d   1      23.677 -16.602  -1.257  0.00  0.00     0.032 A 
ATOM     22  C   UNL d   1      23.952 -17.796  -0.569  0.00  0.00     0.035 A 
ATOM     23  C   UNL d   1      25.289 -18.133  -0.414  0.00  0.00     0.032 A 
ATOM     24  C   UNL d   1      26.313 -17.358  -0.946  0.00  0.00     0.032 A 
BRANCH  22  25
ATOM     25  N   UNL d   1      22.913 -18.637  -0.064  0.00  0.00    -0.323 N 
ATOM     26  C   UNL d   1      21.565 -18.529  -0.443  0.00  0.00     0.256 C 
ATOM     27  O   UNL d   1      21.084 -17.747  -1.241  0.00  0.00    -0.267 OA
ATOM     28  H   UNL d   1      23.169 -19.340   0.615  0.00  0.00     0.169 HD
BRANCH  26  29
ATOM     29  C   UNL d   1      20.581 -19.444   0.184  0.00  0.00     0.032 A 
ATOM     30  C   UNL d   1      19.481 -19.843  -0.596  0.00  0.00     0.017 A 
ATOM     31  C   UNL d   1      18.401 -20.499  -0.010  0.00  0.00     0.002 A 
ATOM     32  C   UNL d   1      18.441 -20.811   1.347  0.00  0.00     0.007 A 
ATOM     33  C   UNL d   1      19.530 -20.414   2.134  0.00  0.00    -0.061 A 
ATOM     34  C   UNL d   1      19.526 -20.660   3.612  0.00  0.00     0.048 C 
ATOM     35  C   UNL d   1      20.603 -19.722   1.548  0.00  0.00     0.023 A 
ENDBRANCH  26  29
ENDBRANCH  22  25
ENDBRANCH   1  19
TORSDOF 8
ENDMDL
