MODEL 1
REMARK VINA RESULT:   -25.921      0.000      0.000
REMARK INTER + INTRA:         -27.181
REMARK INTER:                 -28.307
REMARK INTRA:                   1.126
REMARK CONF_INDEPENDENT:        2.386
REMARK UNBOUND:                 1.126
REMARK  8 active torsions:
REMARK  status: ('A' for Active; 'I' for Inactive)
REMARK    1  A    between atoms: C_2  and  O_3 
REMARK    2  A    between atoms: O_3  and  C_4 
REMARK    3  A    between atoms: C_9  and  C_10 
REMARK    4  A    between atoms: C_10  and  N_11 
REMARK    5  A    between atoms: C_14  and  O_15 
REMARK    6  A    between atoms: C_14  and  C_16 
REMARK    7  A    between atoms: C_19  and  O_20 
REMARK    8  A    between atoms: C_23  and  O_24 
ROOT
ATOM      1  N   UNL d   1      25.635 -16.029  -2.049  0.00  0.00    -0.067 N 
ATOM      2  C   UNL d   1      24.291 -15.605  -1.234  0.00  0.00     0.238 C 
ATOM      3  C   UNL d   1      24.095 -16.307   0.083  0.00  0.00     0.071 C 
ATOM      4  C   UNL d   1      24.029 -17.823  -0.110  0.00  0.00     0.093 C 
ATOM      5  C   UNL d   1      25.746 -18.062  -0.695  0.00  0.00     0.071 C 
ATOM      6  C   UNL d   1      26.186 -17.450  -2.016  0.00  0.00     0.238 C 
ATOM      7  H   UNL d   1      26.403 -15.521  -1.603  0.00  0.00     0.280 HD
ENDROOT
BRANCH   1   8
ATOM      8  C   UNL d   1      25.520 -15.596  -3.528  0.00  0.00     0.276 C 
BRANCH   8   9
ATOM      9  C   UNL d   1      26.098 -14.249  -3.898  0.00  0.00     0.004 C 
ATOM     10  C   UNL d   1      25.704 -13.012  -3.300  0.00  0.00     0.051 C 
ATOM     11  C   UNL d   1      26.227 -11.788  -3.755  0.00  0.00     0.105 A 
ATOM     12  C   UNL d   1      26.940 -11.748  -4.896  0.00  0.00     0.107 A 
ATOM     13  O   UNL d   1      26.097 -10.527  -3.257  0.00  0.00    -0.323 OA
ATOM     14  C   UNL d   1      27.155 -12.897  -5.567  0.00  0.00     0.077 C 
ATOM     15  O   UNL d   1      27.442 -10.545  -5.249  0.00  0.00    -0.323 OA
ATOM     16  C   UNL d   1      27.089 -14.156  -4.854  0.00  0.00     0.079 C 
ATOM     17  C   UNL d   1      26.935  -9.750  -4.174  0.00  0.00     0.352 A 
BRANCH  16  18
ATOM     18  O   UNL d   1      27.878 -15.419  -5.116  0.00  0.00    -0.351 OA
BRANCH  18  19
ATOM     19  C   UNL d   1      29.607 -15.797  -5.212  0.00  0.00     0.171 C 
ATOM     20  C   UNL d   1      30.388 -16.460  -6.541  0.00  0.00     0.034 C 
ENDBRANCH  18  19
ENDBRANCH  16  18
ENDBRANCH   8   9
ENDBRANCH   1   8
BRANCH   4  21
ATOM     21  O   UNL d   1      24.150 -18.200   1.281  0.00  0.00    -0.385 OA
ATOM     22  H   UNL d   1      23.246 -18.389   1.591  0.00  0.00     0.211 HD
ENDBRANCH   4  21
BRANCH   4  23
ATOM     23  C   UNL d   1      22.405 -18.458  -0.687  0.00  0.00     0.047 C 
ATOM     24  C   UNL d   1      21.785 -19.522  -0.082  0.00  0.00     0.135 C 
ATOM     25  N   UNL d   1      20.547 -19.914   0.369  0.00  0.00    -0.219 NA
ATOM     26  C   UNL d   1      19.690 -19.606  -0.322  0.00  0.00     0.270 C 
ATOM     27  N   UNL d   1      19.905 -18.585  -1.191  0.00  0.00    -0.182 NA
ATOM     28  C   UNL d   1      21.205 -17.882  -1.121  0.00  0.00     0.178 C 
BRANCH  26  29
ATOM     29  O   UNL d   1      19.005 -20.786  -0.481  0.00  0.00    -0.324 OA
ATOM     30  C   UNL d   1      18.095 -20.894   0.531  0.00  0.00     0.213 C 
ENDBRANCH  26  29
BRANCH  28  31
ATOM     31  O   UNL d   1      20.913 -16.557  -1.270  0.00  0.00    -0.339 OA
ATOM     32  C   UNL d   1      21.780 -15.435  -1.270  0.00  0.00     0.211 C 
ENDBRANCH  28  31
ENDBRANCH   4  23
TORSDOF 8
ENDMDL
MODEL 2
REMARK VINA RESULT:   -25.287      2.003      2.987
REMARK INTER + INTRA:         -27.632
REMARK INTER:                 -27.673
REMARK INTRA:                   0.040
REMARK CONF_INDEPENDENT:        2.386
REMARK UNBOUND:                 0.040
REMARK  8 active torsions:
REMARK  status: ('A' for Active; 'I' for Inactive)
REMARK    1  A    between atoms: C_2  and  O_3 
REMARK    2  A    between atoms: O_3  and  C_4 
REMARK    3  A    between atoms: C_9  and  C_10 
REMARK    4  A    between atoms: C_10  and  N_11 
REMARK    5  A    between atoms: C_14  and  O_15 
REMARK    6  A    between atoms: C_14  and  C_16 
REMARK    7  A    between atoms: C_19  and  O_20 
REMARK    8  A    between atoms: C_23  and  O_24 
ROOT
ATOM      1  N   UNL d   1      25.653 -16.024  -1.895  0.00  0.00    -0.067 N 
ATOM      2  C   UNL d   1      24.310 -15.621  -1.069  0.00  0.00     0.238 C 
ATOM      3  C   UNL d   1      24.105 -16.369   0.221  0.00  0.00     0.071 C 
ATOM      4  C   UNL d   1      24.030 -17.877  -0.026  0.00  0.00     0.093 C 
ATOM      5  C   UNL d   1      25.747 -18.104  -0.613  0.00  0.00     0.071 C 
ATOM      6  C   UNL d   1      26.196 -17.449  -1.911  0.00  0.00     0.238 C 
ATOM      7  H   UNL d   1      26.423 -15.537  -1.429  0.00  0.00     0.280 HD
ENDROOT
BRANCH   1   8
ATOM      8  C   UNL d   1      25.546 -15.538  -3.358  0.00  0.00     0.276 C 
BRANCH   8   9
ATOM      9  C   UNL d   1      26.836 -15.177  -4.059  0.00  0.00     0.004 C 
ATOM     10  C   UNL d   1      26.957 -14.973  -5.469  0.00  0.00     0.051 C 
ATOM     11  C   UNL d   1      28.208 -14.721  -6.060  0.00  0.00     0.105 A 
ATOM     12  C   UNL d   1      29.332 -14.880  -5.339  0.00  0.00     0.107 A 
ATOM     13  O   UNL d   1      28.532 -14.374  -7.337  0.00  0.00    -0.323 OA
ATOM     14  C   UNL d   1      29.229 -15.259  -4.050  0.00  0.00     0.077 C 
ATOM     15  O   UNL d   1      30.494 -14.584  -5.963  0.00  0.00    -0.323 OA
ATOM     16  C   UNL d   1      27.996 -15.000  -3.334  0.00  0.00     0.079 C 
ATOM     17  C   UNL d   1      29.986 -14.216  -7.248  0.00  0.00     0.352 A 
BRANCH  16  18
ATOM     18  O   UNL d   1      27.819 -14.692  -1.864  0.00  0.00    -0.351 OA
BRANCH  18  19
ATOM     19  C   UNL d   1      28.458 -15.398  -0.369  0.00  0.00     0.171 C 
ATOM     20  C   UNL d   1      27.960 -15.006   1.184  0.00  0.00     0.034 C 
ENDBRANCH  18  19
ENDBRANCH  16  18
ENDBRANCH   8   9
ENDBRANCH   1   8
BRANCH   4  21
ATOM     21  O   UNL d   1      24.144 -18.303   1.351  0.00  0.00    -0.385 OA
ATOM     22  H   UNL d   1      23.405 -18.919   1.507  0.00  0.00     0.211 HD
ENDBRANCH   4  21
BRANCH   4  23
ATOM     23  C   UNL d   1      22.404 -18.480  -0.631  0.00  0.00     0.047 C 
ATOM     24  C   UNL d   1      21.778 -19.564  -0.069  0.00  0.00     0.135 C 
ATOM     25  N   UNL d   1      20.537 -19.967   0.364  0.00  0.00    -0.219 NA
ATOM     26  C   UNL d   1      19.683 -19.628  -0.316  0.00  0.00     0.270 C 
ATOM     27  N   UNL d   1      19.905 -18.575  -1.144  0.00  0.00    -0.182 NA
ATOM     28  C   UNL d   1      21.208 -17.882  -1.044  0.00  0.00     0.178 C 
BRANCH  26  29
ATOM     29  O   UNL d   1      18.993 -20.798  -0.522  0.00  0.00    -0.324 OA
ATOM     30  C   UNL d   1      18.587 -21.277   0.690  0.00  0.00     0.213 C 
ENDBRANCH  26  29
BRANCH  28  31
ATOM     31  O   UNL d   1      20.922 -16.551  -1.142  0.00  0.00    -0.339 OA
ATOM     32  C   UNL d   1      21.802 -15.445  -1.268  0.00  0.00     0.211 C 
ENDBRANCH  28  31
ENDBRANCH   4  23
TORSDOF 8
ENDMDL
MODEL 3
REMARK VINA RESULT:   -25.051      1.485      2.135
REMARK INTER + INTRA:         -27.319
REMARK INTER:                 -27.437
REMARK INTRA:                   0.119
REMARK CONF_INDEPENDENT:        2.386
REMARK UNBOUND:                 0.119
REMARK  8 active torsions:
REMARK  status: ('A' for Active; 'I' for Inactive)
REMARK    1  A    between atoms: C_2  and  O_3 
REMARK    2  A    between atoms: O_3  and  C_4 
REMARK    3  A    between atoms: C_9  and  C_10 
REMARK    4  A    between atoms: C_10  and  N_11 
REMARK    5  A    between atoms: C_14  and  O_15 
REMARK    6  A    between atoms: C_14  and  C_16 
REMARK    7  A    between atoms: C_19  and  O_20 
REMARK    8  A    between atoms: C_23  and  O_24 
ROOT
ATOM      1  N   UNL d   1      25.641 -16.030  -1.946  0.00  0.00    -0.067 N 
ATOM      2  C   UNL d   1      24.287 -15.612  -1.145  0.00  0.00     0.238 C 
ATOM      3  C   UNL d   1      24.076 -16.323   0.166  0.00  0.00     0.071 C 
ATOM      4  C   UNL d   1      24.014 -17.838  -0.038  0.00  0.00     0.093 C 
ATOM      5  C   UNL d   1      25.739 -18.070  -0.602  0.00  0.00     0.071 C 
ATOM      6  C   UNL d   1      26.194 -17.450  -1.915  0.00  0.00     0.238 C 
ATOM      7  H   UNL d   1      26.403 -15.523  -1.488  0.00  0.00     0.280 HD
ENDROOT
BRANCH   1   8
ATOM      8  C   UNL d   1      25.544 -15.588  -3.424  0.00  0.00     0.276 C 
BRANCH   8   9
ATOM      9  C   UNL d   1      26.079 -14.217  -3.770  0.00  0.00     0.004 C 
ATOM     10  C   UNL d   1      25.425 -13.295  -4.644  0.00  0.00     0.051 C 
ATOM     11  C   UNL d   1      26.025 -12.069  -4.984  0.00  0.00     0.105 A 
ATOM     12  C   UNL d   1      27.311 -11.843  -4.663  0.00  0.00     0.107 A 
ATOM     13  O   UNL d   1      25.536 -11.004  -5.679  0.00  0.00    -0.323 OA
ATOM     14  C   UNL d   1      27.992 -12.796  -3.998  0.00  0.00     0.077 C 
ATOM     15  O   UNL d   1      27.808 -10.628  -4.988  0.00  0.00    -0.323 OA
ATOM     16  C   UNL d   1      27.260 -13.771  -3.214  0.00  0.00     0.079 C 
ATOM     17  C   UNL d   1      26.654 -10.060  -5.613  0.00  0.00     0.352 A 
BRANCH  16  18
ATOM     18  O   UNL d   1      27.692 -14.455  -1.937  0.00  0.00    -0.351 OA
BRANCH  18  19
ATOM     19  C   UNL d   1      27.548 -14.059  -0.215  0.00  0.00     0.171 C 
ATOM     20  C   UNL d   1      27.029 -12.590   0.408  0.00  0.00     0.034 C 
ENDBRANCH  18  19
ENDBRANCH  16  18
ENDBRANCH   8   9
ENDBRANCH   1   8
BRANCH   4  21
ATOM     21  O   UNL d   1      24.119 -18.222   1.353  0.00  0.00    -0.385 OA
ATOM     22  H   UNL d   1      23.556 -19.009   1.460  0.00  0.00     0.211 HD
ENDBRANCH   4  21
BRANCH   4  23
ATOM     23  C   UNL d   1      22.399 -18.471  -0.638  0.00  0.00     0.047 C 
ATOM     24  C   UNL d   1      21.774 -19.541  -0.048  0.00  0.00     0.135 C 
ATOM     25  N   UNL d   1      20.533 -19.940   0.385  0.00  0.00    -0.219 NA
ATOM     26  C   UNL d   1      19.682 -19.628  -0.313  0.00  0.00     0.270 C 
ATOM     27  N   UNL d   1      19.905 -18.600  -1.171  0.00  0.00    -0.182 NA
ATOM     28  C   UNL d   1      21.202 -17.895  -1.081  0.00  0.00     0.178 C 
BRANCH  26  29
ATOM     29  O   UNL d   1      19.002 -20.808  -0.489  0.00  0.00    -0.324 OA
ATOM     30  C   UNL d   1      18.291 -21.068   0.646  0.00  0.00     0.213 C 
ENDBRANCH  26  29
BRANCH  28  31
ATOM     31  O   UNL d   1      20.909 -16.569  -1.223  0.00  0.00    -0.339 OA
ATOM     32  C   UNL d   1      21.780 -15.451  -1.270  0.00  0.00     0.211 C 
ENDBRANCH  28  31
ENDBRANCH   4  23
TORSDOF 8
ENDMDL
