MODEL 1
REMARK VINA RESULT:   -10.806      0.000      0.000
REMARK INTER + INTRA:         -12.970
REMARK INTER:                 -12.297
REMARK INTRA:                  -0.673
REMARK CONF_INDEPENDENT:        1.492
REMARK UNBOUND:                -0.673
REMARK  5 active torsions:
REMARK  status: ('A' for Active; 'I' for Inactive)
REMARK       I    between atoms: N_13  and  C_14 
REMARK    1  A    between atoms: C_14  and  C_16 
REMARK    2  A    between atoms: C_16  and  S_17 
REMARK    3  A    between atoms: S_17  and  C_18 
REMARK    4  A    between atoms: C_21  and  N_22 
REMARK    5  A    between atoms: N_22  and  C_23 
ROOT
ATOM      1  C   UNL d   1      26.808 -12.785  -1.082  0.00  0.00     0.033 C 
ATOM      2  C   UNL d   1      26.846 -12.509  -2.592  0.00  0.00     0.097 C 
ATOM      3  C   UNL d   1      25.948 -11.298  -2.870  0.00  0.00     0.122 C 
ATOM      4  C   UNL d   1      26.237 -10.649  -4.191  0.00  0.00     0.203 C 
ATOM      5  O   UNL d   1      26.765  -9.526  -4.266  0.00  0.00    -0.279 OA
ATOM      6  N   UNL d   1      25.905 -11.347  -5.317  0.00  0.00    -0.227 NA
ATOM      7  C   UNL d   1      26.801 -12.370  -5.684  0.00  0.00     0.042 A 
ATOM      8  C   UNL d   1      27.406 -12.128  -6.931  0.00  0.00     0.026 A 
ATOM      9  C   UNL d   1      28.437 -12.932  -7.379  0.00  0.00     0.002 A 
ATOM     10  C   UNL d   1      28.828 -14.012  -6.593  0.00  0.00     0.002 A 
ATOM     11  C   UNL d   1      28.179 -14.301  -5.362  0.00  0.00     0.031 A 
ATOM     12  C   UNL d   1      27.146 -13.479  -4.864  0.00  0.00     0.059 A 
ATOM     13  N   UNL d   1      26.579 -13.680  -3.503  0.00  0.00    -0.311 N 
ATOM     14  C   UNL d   1      25.782 -14.842  -3.251  0.00  0.00     0.234 C 
ATOM     15  O   UNL d   1      25.618 -15.683  -4.145  0.00  0.00    -0.272 OA
ATOM     16  H   UNL d   1      24.935 -11.631  -5.396  0.00  0.00     0.136 HD
ENDROOT
BRANCH  14  17
ATOM     17  C   UNL d   1      25.079 -15.053  -1.847  0.00  0.00     0.184 C 
BRANCH  17  18
ATOM     18  S   UNL d   1      25.385 -16.707  -1.093  0.00  0.00    -0.092 SA
BRANCH  18  19
ATOM     19  C   UNL d   1      23.838 -17.582  -1.151  0.00  0.00     0.160 A 
ATOM     20  N   UNL d   1      23.718 -18.889  -1.251  0.00  0.00    -0.133 NA
ATOM     21  N   UNL d   1      22.382 -19.313  -1.154  0.00  0.00    -0.122 NA
ATOM     22  C   UNL d   1      21.516 -18.323  -1.008  0.00  0.00     0.195 A 
ATOM     23  S   UNL d   1      22.337 -16.788  -0.885  0.00  0.00    -0.022 SA
BRANCH  22  24
ATOM     24  N   UNL d   1      20.154 -18.488  -0.917  0.00  0.00    -0.334 N 
ATOM     25  H   UNL d   1      19.563 -18.033  -1.605  0.00  0.00     0.168 HD
BRANCH  24  26
ATOM     26  C   UNL d   1      19.476 -19.329  -0.008  0.00  0.00     0.034 C 
ATOM     27  C   UNL d   1      19.846 -19.356   1.342  0.00  0.00     0.029 C 
ATOM     28  C   UNL d   1      19.409 -20.373   2.190  0.00  0.00     0.002 C 
ATOM     29  C   UNL d   1      18.489 -21.308   1.731  0.00  0.00     0.000 C 
ATOM     30  C   UNL d   1      17.984 -21.201   0.435  0.00  0.00     0.002 C 
ATOM     31  C   UNL d   1      18.500 -20.238  -0.443  0.00  0.00     0.029 C 
ENDBRANCH  24  26
ENDBRANCH  22  24
ENDBRANCH  18  19
ENDBRANCH  17  18
ENDBRANCH  14  17
TORSDOF 5
ENDMDL
MODEL 2
REMARK VINA RESULT:    -9.695      1.641      2.593
REMARK INTER + INTRA:         -11.865
REMARK INTER:                 -11.187
REMARK INTRA:                  -0.678
REMARK CONF_INDEPENDENT:        1.492
REMARK UNBOUND:                -0.678
REMARK  5 active torsions:
REMARK  status: ('A' for Active; 'I' for Inactive)
REMARK       I    between atoms: N_13  and  C_14 
REMARK    1  A    between atoms: C_14  and  C_16 
REMARK    2  A    between atoms: C_16  and  S_17 
REMARK    3  A    between atoms: S_17  and  C_18 
REMARK    4  A    between atoms: C_21  and  N_22 
REMARK    5  A    between atoms: N_22  and  C_23 
ROOT
ATOM      1  C   UNL d   1      28.364 -15.526  -4.274  0.00  0.00     0.033 C 
ATOM      2  C   UNL d   1      28.040 -14.042  -4.048  0.00  0.00     0.097 C 
ATOM      3  C   UNL d   1      28.849 -13.565  -2.836  0.00  0.00     0.122 C 
ATOM      4  C   UNL d   1      28.984 -12.073  -2.775  0.00  0.00     0.203 C 
ATOM      5  O   UNL d   1      30.073 -11.507  -2.975  0.00  0.00    -0.279 OA
ATOM      6  N   UNL d   1      27.858 -11.353  -2.499  0.00  0.00    -0.227 NA
ATOM      7  C   UNL d   1      26.970 -11.176  -3.578  0.00  0.00     0.042 A 
ATOM      8  C   UNL d   1      26.829  -9.823  -3.937  0.00  0.00     0.026 A 
ATOM      9  C   UNL d   1      26.134  -9.467  -5.078  0.00  0.00     0.002 A 
ATOM     10  C   UNL d   1      25.540 -10.472  -5.834  0.00  0.00     0.002 A 
ATOM     11  C   UNL d   1      25.623 -11.836  -5.444  0.00  0.00     0.031 A 
ATOM     12  C   UNL d   1      26.353 -12.231  -4.303  0.00  0.00     0.059 A 
ATOM     13  N   UNL d   1      26.582 -13.667  -3.985  0.00  0.00    -0.311 N 
ATOM     14  C   UNL d   1      25.473 -14.467  -3.559  0.00  0.00     0.234 C 
ATOM     15  O   UNL d   1      24.339 -13.972  -3.510  0.00  0.00    -0.272 OA
ATOM     16  H   UNL d   1      27.379 -11.587  -1.636  0.00  0.00     0.136 HD
ENDROOT
BRANCH  14  17
ATOM     17  C   UNL d   1      25.683 -15.973  -3.119  0.00  0.00     0.184 C 
BRANCH  17  18
ATOM     18  S   UNL d   1      25.223 -16.318  -1.367  0.00  0.00    -0.092 SA
BRANCH  18  19
ATOM     19  C   UNL d   1      23.737 -17.293  -1.418  0.00  0.00     0.160 A 
ATOM     20  N   UNL d   1      23.673 -18.543  -1.824  0.00  0.00    -0.133 NA
ATOM     21  N   UNL d   1      22.397 -19.100  -1.643  0.00  0.00    -0.122 NA
ATOM     22  C   UNL d   1      21.513 -18.259  -1.130  0.00  0.00     0.195 A 
ATOM     23  S   UNL d   1      22.258 -16.729  -0.747  0.00  0.00    -0.022 SA
BRANCH  22  24
ATOM     24  N   UNL d   1      20.195 -18.567  -0.887  0.00  0.00    -0.334 N 
ATOM     25  H   UNL d   1      19.485 -18.175  -1.497  0.00  0.00     0.168 HD
BRANCH  24  26
ATOM     26  C   UNL d   1      19.717 -19.476   0.080  0.00  0.00     0.034 C 
ATOM     27  C   UNL d   1      18.731 -20.412  -0.255  0.00  0.00     0.029 C 
ATOM     28  C   UNL d   1      18.034 -21.110   0.731  0.00  0.00     0.002 C 
ATOM     29  C   UNL d   1      18.405 -20.979   2.063  0.00  0.00     0.000 C 
ATOM     30  C   UNL d   1      19.493 -20.176   2.401  0.00  0.00     0.002 C 
ATOM     31  C   UNL d   1      20.126 -19.399   1.419  0.00  0.00     0.029 C 
ENDBRANCH  24  26
ENDBRANCH  22  24
ENDBRANCH  18  19
ENDBRANCH  17  18
ENDBRANCH  14  17
TORSDOF 5
ENDMDL
MODEL 3
REMARK VINA RESULT:    -9.495      4.792      7.708
REMARK INTER + INTRA:         -11.891
REMARK INTER:                 -10.986
REMARK INTRA:                  -0.905
REMARK CONF_INDEPENDENT:        1.492
REMARK UNBOUND:                -0.905
REMARK  5 active torsions:
REMARK  status: ('A' for Active; 'I' for Inactive)
REMARK       I    between atoms: N_13  and  C_14 
REMARK    1  A    between atoms: C_14  and  C_16 
REMARK    2  A    between atoms: C_16  and  S_17 
REMARK    3  A    between atoms: S_17  and  C_18 
REMARK    4  A    between atoms: C_21  and  N_22 
REMARK    5  A    between atoms: N_22  and  C_23 
ROOT
ATOM      1  C   UNL d   1      32.159 -16.253  -7.950  0.00  0.00     0.033 C 
ATOM      2  C   UNL d   1      31.710 -17.552  -7.265  0.00  0.00     0.097 C 
ATOM      3  C   UNL d   1      31.208 -18.507  -8.355  0.00  0.00     0.122 C 
ATOM      4  C   UNL d   1      31.167 -19.936  -7.904  0.00  0.00     0.203 C 
ATOM      5  O   UNL d   1      31.955 -20.787  -8.354  0.00  0.00    -0.279 OA
ATOM      6  N   UNL d   1      30.233 -20.270  -6.966  0.00  0.00    -0.227 NA
ATOM      7  C   UNL d   1      30.549 -19.916  -5.639  0.00  0.00     0.042 A 
ATOM      8  C   UNL d   1      30.683 -21.040  -4.804  0.00  0.00     0.026 A 
ATOM      9  C   UNL d   1      31.156 -20.904  -3.512  0.00  0.00     0.002 A 
ATOM     10  C   UNL d   1      31.450 -19.627  -3.044  0.00  0.00     0.002 A 
ATOM     11  C   UNL d   1      31.257 -18.480  -3.860  0.00  0.00     0.031 A 
ATOM     12  C   UNL d   1      30.807 -18.592  -5.192  0.00  0.00     0.059 A 
ATOM     13  N   UNL d   1      30.763 -17.414  -6.101  0.00  0.00    -0.311 N 
ATOM     14  C   UNL d   1      29.796 -16.387  -5.856  0.00  0.00     0.234 C 
ATOM     15  O   UNL d   1      29.049 -16.467  -4.871  0.00  0.00    -0.272 OA
ATOM     16  H   UNL d   1      29.269 -20.066  -7.204  0.00  0.00     0.136 HD
ENDROOT
BRANCH  14  17
ATOM     17  C   UNL d   1      29.646 -15.162  -6.848  0.00  0.00     0.184 C 
BRANCH  17  18
ATOM     18  S   UNL d   1      28.840 -13.681  -6.100  0.00  0.00    -0.092 SA
BRANCH  18  19
ATOM     19  C   UNL d   1      27.365 -14.262  -5.296  0.00  0.00     0.160 A 
ATOM     20  N   UNL d   1      26.571 -15.200  -5.768  0.00  0.00    -0.133 NA
ATOM     21  N   UNL d   1      25.549 -15.540  -4.867  0.00  0.00    -0.122 NA
ATOM     22  C   UNL d   1      25.570 -14.839  -3.744  0.00  0.00     0.195 A 
ATOM     23  S   UNL d   1      26.944 -13.766  -3.704  0.00  0.00    -0.022 SA
BRANCH  22  24
ATOM     24  N   UNL d   1      24.656 -14.976  -2.726  0.00  0.00    -0.334 N 
ATOM     25  H   UNL d   1      23.833 -14.383  -2.731  0.00  0.00     0.168 HD
BRANCH  24  26
ATOM     26  C   UNL d   1      24.688 -15.948  -1.703  0.00  0.00     0.034 C 
ATOM     27  C   UNL d   1      25.910 -16.471  -1.263  0.00  0.00     0.029 C 
ATOM     28  C   UNL d   1      25.960 -17.626  -0.483  0.00  0.00     0.002 C 
ATOM     29  C   UNL d   1      24.782 -18.201  -0.022  0.00  0.00     0.000 C 
ATOM     30  C   UNL d   1      23.559 -17.599  -0.316  0.00  0.00     0.002 C 
ATOM     31  C   UNL d   1      23.508 -16.497  -1.182  0.00  0.00     0.029 C 
ENDBRANCH  24  26
ENDBRANCH  22  24
ENDBRANCH  18  19
ENDBRANCH  17  18
ENDBRANCH  14  17
TORSDOF 5
ENDMDL
MODEL 4
REMARK VINA RESULT:    -9.293      3.913      9.510
REMARK INTER + INTRA:         -11.616
REMARK INTER:                 -10.784
REMARK INTRA:                  -0.832
REMARK CONF_INDEPENDENT:        1.492
REMARK UNBOUND:                -0.832
REMARK  5 active torsions:
REMARK  status: ('A' for Active; 'I' for Inactive)
REMARK       I    between atoms: N_13  and  C_14 
REMARK    1  A    between atoms: C_14  and  C_16 
REMARK    2  A    between atoms: C_16  and  S_17 
REMARK    3  A    between atoms: S_17  and  C_18 
REMARK    4  A    between atoms: C_21  and  N_22 
REMARK    5  A    between atoms: N_22  and  C_23 
ROOT
ATOM      1  C   UNL d   1      26.909 -14.197   0.471  0.00  0.00     0.033 C 
ATOM      2  C   UNL d   1      26.183 -15.529   0.230  0.00  0.00     0.097 C 
ATOM      3  C   UNL d   1      27.209 -16.657   0.386  0.00  0.00     0.122 C 
ATOM      4  C   UNL d   1      26.574 -17.994   0.624  0.00  0.00     0.203 C 
ATOM      5  O   UNL d   1      26.656 -18.572   1.722  0.00  0.00    -0.279 OA
ATOM      6  N   UNL d   1      25.888 -18.555  -0.415  0.00  0.00    -0.227 NA
ATOM      7  C   UNL d   1      24.596 -18.040  -0.639  0.00  0.00     0.042 A 
ATOM      8  C   UNL d   1      23.595 -19.010  -0.450  0.00  0.00     0.026 A 
ATOM      9  C   UNL d   1      22.259 -18.652  -0.459  0.00  0.00     0.002 A 
ATOM     10  C   UNL d   1      21.929 -17.323  -0.706  0.00  0.00     0.002 A 
ATOM     11  C   UNL d   1      22.932 -16.349  -0.961  0.00  0.00     0.031 A 
ATOM     12  C   UNL d   1      24.303 -16.679  -0.926  0.00  0.00     0.059 A 
ATOM     13  N   UNL d   1      25.358 -15.634  -1.027  0.00  0.00    -0.311 N 
ATOM     14  C   UNL d   1      25.547 -14.960  -2.276  0.00  0.00     0.234 C 
ATOM     15  O   UNL d   1      24.804 -15.217  -3.233  0.00  0.00    -0.272 OA
ATOM     16  H   UNL d   1      26.409 -18.686  -1.275  0.00  0.00     0.136 HD
ENDROOT
BRANCH  14  17
ATOM     17  C   UNL d   1      26.717 -13.909  -2.461  0.00  0.00     0.184 C 
BRANCH  17  18
ATOM     18  S   UNL d   1      28.405 -14.650  -2.440  0.00  0.00    -0.092 SA
BRANCH  18  19
ATOM     19  C   UNL d   1      28.725 -15.223  -4.092  0.00  0.00     0.160 A 
ATOM     20  N   UNL d   1      27.998 -14.919  -5.147  0.00  0.00    -0.133 NA
ATOM     21  N   UNL d   1      28.552 -15.413  -6.339  0.00  0.00    -0.122 NA
ATOM     22  C   UNL d   1      29.670 -16.101  -6.166  0.00  0.00     0.195 A 
ATOM     23  S   UNL d   1      30.155 -16.090  -4.490  0.00  0.00    -0.022 SA
BRANCH  22  24
ATOM     24  N   UNL d   1      30.378 -16.702  -7.179  0.00  0.00    -0.334 N 
ATOM     25  H   UNL d   1      30.719 -16.125  -7.942  0.00  0.00     0.168 HD
BRANCH  24  26
ATOM     26  C   UNL d   1      30.784 -18.053  -7.225  0.00  0.00     0.034 C 
ATOM     27  C   UNL d   1      31.283 -18.602  -8.412  0.00  0.00     0.029 C 
ATOM     28  C   UNL d   1      31.408 -19.981  -8.572  0.00  0.00     0.002 C 
ATOM     29  C   UNL d   1      31.158 -20.827  -7.499  0.00  0.00     0.000 C 
ATOM     30  C   UNL d   1      30.816 -20.288  -6.259  0.00  0.00     0.002 C 
ATOM     31  C   UNL d   1      30.595 -18.909  -6.130  0.00  0.00     0.029 C 
ENDBRANCH  24  26
ENDBRANCH  22  24
ENDBRANCH  18  19
ENDBRANCH  17  18
ENDBRANCH  14  17
TORSDOF 5
ENDMDL
