MODEL 1
REMARK VINA RESULT:    -7.873      0.000      0.000
REMARK INTER + INTRA:         -11.193
REMARK INTER:                  -9.961
REMARK INTRA:                  -1.232
REMARK CONF_INDEPENDENT:        2.088
REMARK UNBOUND:                -1.232
REMARK  7 active torsions:
REMARK  status: ('A' for Active; 'I' for Inactive)
REMARK    1  A    between atoms: C_2  and  C_3 
REMARK    2  A    between atoms: C_6  and  N_7 
REMARK    3  A    between atoms: C_11  and  S_12 
REMARK    4  A    between atoms: S_12  and  N_15 
REMARK    5  A    between atoms: N_15  and  N_16 
REMARK       I    between atoms: N_16  and  C_17 
REMARK    6  A    between atoms: C_17  and  C_19 
REMARK    7  A    between atoms: C_24  and  O_25 
ROOT
ATOM      1  S   UNL d   1      25.658 -15.181  -2.169  0.00  0.00     0.276 S 
ATOM      2  O   UNL d   1      24.718 -14.838  -3.222  0.00  0.00    -0.199 OA
ATOM      3  O   UNL d   1      25.962 -14.253  -1.107  0.00  0.00    -0.199 OA
ENDROOT
BRANCH   1   4
ATOM      4  C   UNL d   1      25.002 -16.653  -1.350  0.00  0.00     0.089 A 
ATOM      5  C   UNL d   1      23.640 -16.942  -1.596  0.00  0.00     0.062 A 
ATOM      6  C   UNL d   1      23.039 -18.062  -0.989  0.00  0.00     0.104 A 
ATOM      7  C   UNL d   1      23.776 -18.895  -0.145  0.00  0.00     0.037 A 
ATOM      8  C   UNL d   1      25.096 -18.575   0.144  0.00  0.00     0.011 A 
ATOM      9  C   UNL d   1      25.738 -17.496  -0.493  0.00  0.00    -0.035 A 
BRANCH   6  10
ATOM     10  N   UNL d   1      21.609 -18.346  -1.183  0.00  0.00    -0.116 N 
ATOM     11  O   UNL d   1      20.801 -17.450  -0.898  0.00  0.00    -0.532 OA
ATOM     12  O   UNL d   1      21.298 -19.454  -1.640  0.00  0.00    -0.532 OA
ENDBRANCH   6  10
BRANCH   9  13
ATOM     13  C   UNL d   1      27.230 -17.453  -0.350  0.00  0.00     0.035 C 
ATOM     14  C   UNL d   1      27.563 -16.296   0.608  0.00  0.00     0.010 C 
ENDBRANCH   9  13
ENDBRANCH   1   4
BRANCH   1  15
ATOM     15  N   UNL d   1      27.110 -15.541  -2.974  0.00  0.00    -0.220 N 
ATOM     16  H   UNL d   1      27.246 -16.467  -3.346  0.00  0.00     0.200 HD
BRANCH  15  17
ATOM     17  N   UNL d   1      27.724 -14.620  -3.923  0.00  0.00    -0.256 N 
ATOM     18  C   UNL d   1      27.531 -14.897  -5.271  0.00  0.00     0.273 C 
ATOM     19  O   UNL d   1      26.612 -15.568  -5.727  0.00  0.00    -0.266 OA
ATOM     20  H   UNL d   1      28.542 -14.110  -3.605  0.00  0.00     0.191 HD
BRANCH  18  21
ATOM     21  C   UNL d   1      28.559 -14.321  -6.160  0.00  0.00     0.067 A 
ATOM     22  C   UNL d   1      28.236 -13.061  -6.697  0.00  0.00     0.020 A 
ATOM     23  C   UNL d   1      29.127 -12.399  -7.539  0.00  0.00     0.001 A 
ATOM     24  C   UNL d   1      30.373 -12.959  -7.794  0.00  0.00     0.003 A 
ATOM     25  C   UNL d   1      30.690 -14.217  -7.276  0.00  0.00     0.038 A 
ATOM     26  C   UNL d   1      29.783 -14.936  -6.478  0.00  0.00     0.084 A 
BRANCH  26  27
ATOM     27  O   UNL d   1      30.269 -16.177  -6.159  0.00  0.00    -0.355 OA
ATOM     28  C   UNL d   1      31.117 -16.867  -7.061  0.00  0.00     0.210 C 
ENDBRANCH  26  27
ENDBRANCH  18  21
ENDBRANCH  15  17
ENDBRANCH   1  15
TORSDOF 7
ENDMDL
MODEL 2
REMARK VINA RESULT:    -7.239      1.501      2.338
REMARK INTER + INTRA:         -11.785
REMARK INTER:                  -9.327
REMARK INTRA:                  -2.458
REMARK CONF_INDEPENDENT:        2.088
REMARK UNBOUND:                -2.458
REMARK  7 active torsions:
REMARK  status: ('A' for Active; 'I' for Inactive)
REMARK    1  A    between atoms: C_2  and  C_3 
REMARK    2  A    between atoms: C_6  and  N_7 
REMARK    3  A    between atoms: C_11  and  S_12 
REMARK    4  A    between atoms: S_12  and  N_15 
REMARK    5  A    between atoms: N_15  and  N_16 
REMARK       I    between atoms: N_16  and  C_17 
REMARK    6  A    between atoms: C_17  and  C_19 
REMARK    7  A    between atoms: C_24  and  O_25 
ROOT
ATOM      1  S   UNL d   1      25.462 -14.976  -2.544  0.00  0.00     0.276 S 
ATOM      2  O   UNL d   1      24.220 -14.397  -3.026  0.00  0.00    -0.199 OA
ATOM      3  O   UNL d   1      26.384 -14.208  -1.745  0.00  0.00    -0.199 OA
ENDROOT
BRANCH   1   4
ATOM      4  C   UNL d   1      25.007 -16.397  -1.524  0.00  0.00     0.089 A 
ATOM      5  C   UNL d   1      23.662 -16.824  -1.621  0.00  0.00     0.062 A 
ATOM      6  C   UNL d   1      23.214 -17.915  -0.852  0.00  0.00     0.104 A 
ATOM      7  C   UNL d   1      24.085 -18.585   0.009  0.00  0.00     0.037 A 
ATOM      8  C   UNL d   1      25.389 -18.126   0.150  0.00  0.00     0.011 A 
ATOM      9  C   UNL d   1      25.879 -17.076  -0.648  0.00  0.00    -0.035 A 
BRANCH   6  10
ATOM     10  N   UNL d   1      21.805 -18.336  -0.893  0.00  0.00    -0.116 N 
ATOM     11  O   UNL d   1      20.939 -17.449  -0.895  0.00  0.00    -0.532 OA
ATOM     12  O   UNL d   1      21.568 -19.551  -0.946  0.00  0.00    -0.532 OA
ENDBRANCH   6  10
BRANCH   9  13
ATOM     13  C   UNL d   1      27.368 -16.894  -0.638  0.00  0.00     0.035 C 
ATOM     14  C   UNL d   1      27.695 -15.885   0.476  0.00  0.00     0.010 C 
ENDBRANCH   9  13
ENDBRANCH   1   4
BRANCH   1  15
ATOM     15  N   UNL d   1      26.284 -15.483  -3.942  0.00  0.00    -0.220 N 
ATOM     16  H   UNL d   1      25.983 -15.136  -4.839  0.00  0.00     0.200 HD
BRANCH  15  17
ATOM     17  N   UNL d   1      27.738 -15.573  -4.001  0.00  0.00    -0.256 N 
ATOM     18  C   UNL d   1      28.309 -15.576  -5.268  0.00  0.00     0.273 C 
ATOM     19  O   UNL d   1      27.781 -15.127  -6.279  0.00  0.00    -0.266 OA
ATOM     20  H   UNL d   1      28.203 -16.019  -3.216  0.00  0.00     0.191 HD
BRANCH  18  21
ATOM     21  C   UNL d   1      29.647 -16.196  -5.327  0.00  0.00     0.067 A 
ATOM     22  C   UNL d   1      30.351 -15.969  -6.525  0.00  0.00     0.020 A 
ATOM     23  C   UNL d   1      31.633 -16.484  -6.704  0.00  0.00     0.001 A 
ATOM     24  C   UNL d   1      32.245 -17.172  -5.663  0.00  0.00     0.003 A 
ATOM     25  C   UNL d   1      31.544 -17.414  -4.479  0.00  0.00     0.038 A 
ATOM     26  C   UNL d   1      30.225 -16.961  -4.298  0.00  0.00     0.084 A 
BRANCH  26  27
ATOM     27  O   UNL d   1      29.706 -17.389  -3.104  0.00  0.00    -0.355 OA
ATOM     28  C   UNL d   1      30.566 -17.697  -2.021  0.00  0.00     0.210 C 
ENDBRANCH  26  27
ENDBRANCH  18  21
ENDBRANCH  15  17
ENDBRANCH   1  15
TORSDOF 7
ENDMDL
MODEL 3
REMARK VINA RESULT:    -7.188      1.356      2.458
REMARK INTER + INTRA:         -11.349
REMARK INTER:                  -9.276
REMARK INTRA:                  -2.073
REMARK CONF_INDEPENDENT:        2.088
REMARK UNBOUND:                -2.073
REMARK  7 active torsions:
REMARK  status: ('A' for Active; 'I' for Inactive)
REMARK    1  A    between atoms: C_2  and  C_3 
REMARK    2  A    between atoms: C_6  and  N_7 
REMARK    3  A    between atoms: C_11  and  S_12 
REMARK    4  A    between atoms: S_12  and  N_15 
REMARK    5  A    between atoms: N_15  and  N_16 
REMARK       I    between atoms: N_16  and  C_17 
REMARK    6  A    between atoms: C_17  and  C_19 
REMARK    7  A    between atoms: C_24  and  O_25 
ROOT
ATOM      1  S   UNL d   1      25.335 -14.799  -2.431  0.00  0.00     0.276 S 
ATOM      2  O   UNL d   1      24.112 -14.435  -3.126  0.00  0.00    -0.199 OA
ATOM      3  O   UNL d   1      25.941 -13.909  -1.472  0.00  0.00    -0.199 OA
ENDROOT
BRANCH   1   4
ATOM      4  C   UNL d   1      24.978 -16.319  -1.521  0.00  0.00     0.089 A 
ATOM      5  C   UNL d   1      23.641 -16.775  -1.578  0.00  0.00     0.062 A 
ATOM      6  C   UNL d   1      23.268 -17.946  -0.888  0.00  0.00     0.104 A 
ATOM      7  C   UNL d   1      24.207 -18.663  -0.145  0.00  0.00     0.037 A 
ATOM      8  C   UNL d   1      25.505 -18.180  -0.039  0.00  0.00     0.011 A 
ATOM      9  C   UNL d   1      25.919 -17.047  -0.765  0.00  0.00    -0.035 A 
BRANCH   6  10
ATOM     10  N   UNL d   1      21.870 -18.403  -0.884  0.00  0.00    -0.116 N 
ATOM     11  O   UNL d   1      20.981 -17.539  -0.895  0.00  0.00    -0.532 OA
ATOM     12  O   UNL d   1      21.664 -19.624  -0.893  0.00  0.00    -0.532 OA
ENDBRANCH   6  10
BRANCH   9  13
ATOM     13  C   UNL d   1      27.401 -16.822  -0.826  0.00  0.00     0.035 C 
ATOM     14  C   UNL d   1      27.792 -16.026   0.432  0.00  0.00     0.010 C 
ENDBRANCH   9  13
ENDBRANCH   1   4
BRANCH   1  15
ATOM     15  N   UNL d   1      26.470 -15.090  -3.660  0.00  0.00    -0.220 N 
ATOM     16  H   UNL d   1      26.603 -16.032  -3.991  0.00  0.00     0.200 HD
BRANCH  15  17
ATOM     17  N   UNL d   1      26.597 -14.221  -4.825  0.00  0.00    -0.256 N 
ATOM     18  C   UNL d   1      27.645 -14.497  -5.694  0.00  0.00     0.273 C 
ATOM     19  O   UNL d   1      28.206 -15.583  -5.799  0.00  0.00    -0.266 OA
ATOM     20  H   UNL d   1      26.218 -13.283  -4.742  0.00  0.00     0.191 HD
BRANCH  18  21
ATOM     21  C   UNL d   1      28.074 -13.344  -6.510  0.00  0.00     0.067 A 
ATOM     22  C   UNL d   1      29.242 -13.558  -7.266  0.00  0.00     0.020 A 
ATOM     23  C   UNL d   1      29.745 -12.556  -8.093  0.00  0.00     0.001 A 
ATOM     24  C   UNL d   1      29.049 -11.360  -8.222  0.00  0.00     0.003 A 
ATOM     25  C   UNL d   1      27.898 -11.139  -7.460  0.00  0.00     0.038 A 
ATOM     26  C   UNL d   1      27.406 -12.108  -6.569  0.00  0.00     0.084 A 
BRANCH  26  27
ATOM     27  O   UNL d   1      26.326 -11.642  -5.866  0.00  0.00    -0.355 OA
ATOM     28  C   UNL d   1      25.789 -10.361  -6.147  0.00  0.00     0.210 C 
ENDBRANCH  26  27
ENDBRANCH  18  21
ENDBRANCH  15  17
ENDBRANCH   1  15
TORSDOF 7
ENDMDL
MODEL 4
REMARK VINA RESULT:    -6.979      1.369      2.507
REMARK INTER + INTRA:         -11.563
REMARK INTER:                  -9.067
REMARK INTRA:                  -2.496
REMARK CONF_INDEPENDENT:        2.088
REMARK UNBOUND:                -2.496
REMARK  7 active torsions:
REMARK  status: ('A' for Active; 'I' for Inactive)
REMARK    1  A    between atoms: C_2  and  C_3 
REMARK    2  A    between atoms: C_6  and  N_7 
REMARK    3  A    between atoms: C_11  and  S_12 
REMARK    4  A    between atoms: S_12  and  N_15 
REMARK    5  A    between atoms: N_15  and  N_16 
REMARK       I    between atoms: N_16  and  C_17 
REMARK    6  A    between atoms: C_17  and  C_19 
REMARK    7  A    between atoms: C_24  and  O_25 
ROOT
ATOM      1  S   UNL d   1      25.794 -15.021  -2.429  0.00  0.00     0.276 S 
ATOM      2  O   UNL d   1      25.215 -15.140  -3.756  0.00  0.00    -0.199 OA
ATOM      3  O   UNL d   1      25.543 -13.863  -1.606  0.00  0.00    -0.199 OA
ENDROOT
BRANCH   1   4
ATOM      4  C   UNL d   1      25.190 -16.432  -1.474  0.00  0.00     0.089 A 
ATOM      5  C   UNL d   1      23.827 -16.761  -1.651  0.00  0.00     0.062 A 
ATOM      6  C   UNL d   1      23.265 -17.838  -0.938  0.00  0.00     0.104 A 
ATOM      7  C   UNL d   1      24.043 -18.587  -0.053  0.00  0.00     0.037 A 
ATOM      8  C   UNL d   1      25.365 -18.224   0.167  0.00  0.00     0.011 A 
ATOM      9  C   UNL d   1      25.968 -17.190  -0.575  0.00  0.00    -0.035 A 
BRANCH   6  10
ATOM     10  N   UNL d   1      21.835 -18.159  -1.061  0.00  0.00    -0.116 N 
ATOM     11  O   UNL d   1      21.022 -17.238  -0.900  0.00  0.00    -0.532 OA
ATOM     12  O   UNL d   1      21.529 -19.326  -1.343  0.00  0.00    -0.532 OA
ENDBRANCH   6  10
BRANCH   9  13
ATOM     13  C   UNL d   1      27.462 -17.112  -0.484  0.00  0.00     0.035 C 
ATOM     14  C   UNL d   1      27.799 -16.019   0.546  0.00  0.00     0.010 C 
ENDBRANCH   9  13
ENDBRANCH   1   4
BRANCH   1  15
ATOM     15  N   UNL d   1      27.472 -15.134  -2.668  0.00  0.00    -0.220 N 
ATOM     16  H   UNL d   1      28.072 -15.267  -1.870  0.00  0.00     0.200 HD
BRANCH  15  17
ATOM     17  N   UNL d   1      28.052 -15.913  -3.756  0.00  0.00    -0.256 N 
ATOM     18  C   UNL d   1      29.355 -16.363  -3.572  0.00  0.00     0.273 C 
ATOM     19  O   UNL d   1      29.900 -16.512  -2.484  0.00  0.00    -0.266 OA
ATOM     20  H   UNL d   1      27.681 -15.751  -4.687  0.00  0.00     0.191 HD
BRANCH  18  21
ATOM     21  C   UNL d   1      30.080 -16.646  -4.826  0.00  0.00     0.067 A 
ATOM     22  C   UNL d   1      31.272 -17.376  -4.666  0.00  0.00     0.020 A 
ATOM     23  C   UNL d   1      32.045 -17.724  -5.772  0.00  0.00     0.001 A 
ATOM     24  C   UNL d   1      31.596 -17.406  -7.048  0.00  0.00     0.003 A 
ATOM     25  C   UNL d   1      30.421 -16.667  -7.210  0.00  0.00     0.038 A 
ATOM     26  C   UNL d   1      29.658 -16.245  -6.107  0.00  0.00     0.084 A 
BRANCH  26  27
ATOM     27  O   UNL d   1      28.603 -15.462  -6.495  0.00  0.00    -0.355 OA
ATOM     28  C   UNL d   1      28.794 -14.081  -6.749  0.00  0.00     0.210 C 
ENDBRANCH  26  27
ENDBRANCH  18  21
ENDBRANCH  15  17
ENDBRANCH   1  15
TORSDOF 7
ENDMDL
MODEL 5
REMARK VINA RESULT:    -6.937      4.595      7.752
REMARK INTER + INTRA:         -11.390
REMARK INTER:                  -9.025
REMARK INTRA:                  -2.365
REMARK CONF_INDEPENDENT:        2.088
REMARK UNBOUND:                -2.365
REMARK  7 active torsions:
REMARK  status: ('A' for Active; 'I' for Inactive)
REMARK    1  A    between atoms: C_2  and  C_3 
REMARK    2  A    between atoms: C_6  and  N_7 
REMARK    3  A    between atoms: C_11  and  S_12 
REMARK    4  A    between atoms: S_12  and  N_15 
REMARK    5  A    between atoms: N_15  and  N_16 
REMARK       I    between atoms: N_16  and  C_17 
REMARK    6  A    between atoms: C_17  and  C_19 
REMARK    7  A    between atoms: C_24  and  O_25 
ROOT
ATOM      1  S   UNL d   1      27.700 -11.982  -1.125  0.00  0.00     0.276 S 
ATOM      2  O   UNL d   1      27.554 -10.750  -1.882  0.00  0.00    -0.199 OA
ATOM      3  O   UNL d   1      28.930 -12.735  -1.154  0.00  0.00    -0.199 OA
ENDROOT
BRANCH   1   4
ATOM      4  C   UNL d   1      27.438 -11.555   0.612  0.00  0.00     0.089 A 
ATOM      5  C   UNL d   1      26.891 -10.274   0.858  0.00  0.00     0.062 A 
ATOM      6  C   UNL d   1      26.663  -9.850   2.182  0.00  0.00     0.104 A 
ATOM      7  C   UNL d   1      26.973 -10.683   3.259  0.00  0.00     0.037 A 
ATOM      8  C   UNL d   1      27.568 -11.915   3.018  0.00  0.00     0.011 A 
ATOM      9  C   UNL d   1      27.752 -12.388   1.705  0.00  0.00    -0.035 A 
BRANCH   6  10
ATOM     10  N   UNL d   1      26.153  -8.499   2.463  0.00  0.00    -0.116 N 
ATOM     11  O   UNL d   1      26.655  -7.880   3.412  0.00  0.00    -0.532 OA
ATOM     12  O   UNL d   1      25.268  -8.053   1.720  0.00  0.00    -0.532 OA
ENDBRANCH   6  10
BRANCH   9  13
ATOM     13  C   UNL d   1      28.093 -13.843   1.581  0.00  0.00     0.035 C 
ATOM     14  C   UNL d   1      28.015 -14.450   2.994  0.00  0.00     0.010 C 
ENDBRANCH   9  13
ENDBRANCH   1   4
BRANCH   1  15
ATOM     15  N   UNL d   1      26.457 -12.994  -1.686  0.00  0.00    -0.220 N 
ATOM     16  H   UNL d   1      26.193 -12.952  -2.657  0.00  0.00     0.200 HD
BRANCH  15  17
ATOM     17  N   UNL d   1      26.354 -14.394  -1.290  0.00  0.00    -0.256 N 
ATOM     18  C   UNL d   1      25.318 -15.126  -1.859  0.00  0.00     0.273 C 
ATOM     19  O   UNL d   1      24.754 -14.846  -2.911  0.00  0.00    -0.266 OA
ATOM     20  H   UNL d   1      26.735 -14.644  -0.383  0.00  0.00     0.191 HD
BRANCH  18  21
ATOM     21  C   UNL d   1      24.908 -16.306  -1.073  0.00  0.00     0.067 A 
ATOM     22  C   UNL d   1      23.575 -16.712  -1.270  0.00  0.00     0.020 A 
ATOM     23  C   UNL d   1      23.066 -17.823  -0.602  0.00  0.00     0.001 A 
ATOM     24  C   UNL d   1      23.902 -18.574   0.215  0.00  0.00     0.003 A 
ATOM     25  C   UNL d   1      25.221 -18.164   0.426  0.00  0.00     0.038 A 
ATOM     26  C   UNL d   1      25.741 -17.009  -0.185  0.00  0.00     0.084 A 
BRANCH  26  27
ATOM     27  O   UNL d   1      27.020 -16.751   0.235  0.00  0.00    -0.355 OA
ATOM     28  C   UNL d   1      28.083 -17.608  -0.145  0.00  0.00     0.210 C 
ENDBRANCH  26  27
ENDBRANCH  18  21
ENDBRANCH  15  17
ENDBRANCH   1  15
TORSDOF 7
ENDMDL
MODEL 6
REMARK VINA RESULT:    -6.646      3.450      4.457
REMARK INTER + INTRA:         -10.712
REMARK INTER:                  -8.734
REMARK INTRA:                  -1.978
REMARK CONF_INDEPENDENT:        2.088
REMARK UNBOUND:                -1.978
REMARK  7 active torsions:
REMARK  status: ('A' for Active; 'I' for Inactive)
REMARK    1  A    between atoms: C_2  and  C_3 
REMARK    2  A    between atoms: C_6  and  N_7 
REMARK    3  A    between atoms: C_11  and  S_12 
REMARK    4  A    between atoms: S_12  and  N_15 
REMARK    5  A    between atoms: N_15  and  N_16 
REMARK       I    between atoms: N_16  and  C_17 
REMARK    6  A    between atoms: C_17  and  C_19 
REMARK    7  A    between atoms: C_24  and  O_25 
ROOT
ATOM      1  S   UNL d   1      25.922 -14.962  -3.354  0.00  0.00     0.276 S 
ATOM      2  O   UNL d   1      27.368 -14.834  -3.427  0.00  0.00    -0.199 OA
ATOM      3  O   UNL d   1      25.155 -15.429  -4.482  0.00  0.00    -0.199 OA
ENDROOT
BRANCH   1   4
ATOM      4  C   UNL d   1      25.574 -16.127  -2.017  0.00  0.00     0.089 A 
ATOM      5  C   UNL d   1      24.272 -16.679  -2.000  0.00  0.00     0.062 A 
ATOM      6  C   UNL d   1      23.907 -17.587  -0.987  0.00  0.00     0.104 A 
ATOM      7  C   UNL d   1      24.819 -17.950   0.005  0.00  0.00     0.037 A 
ATOM      8  C   UNL d   1      26.076 -17.360   0.023  0.00  0.00     0.011 A 
ATOM      9  C   UNL d   1      26.488 -16.496  -1.008  0.00  0.00    -0.035 A 
BRANCH   6  10
ATOM     10  N   UNL d   1      22.539 -18.125  -0.916  0.00  0.00    -0.116 N 
ATOM     11  O   UNL d   1      21.602 -17.314  -0.896  0.00  0.00    -0.532 OA
ATOM     12  O   UNL d   1      22.405 -19.356  -0.905  0.00  0.00    -0.532 OA
ENDBRANCH   6  10
BRANCH   9  13
ATOM     13  C   UNL d   1      27.955 -16.189  -1.051  0.00  0.00     0.035 C 
ATOM     14  C   UNL d   1      28.695 -17.436  -0.537  0.00  0.00     0.010 C 
ENDBRANCH   9  13
ENDBRANCH   1   4
BRANCH   1  15
ATOM     15  N   UNL d   1      25.363 -13.408  -2.954  0.00  0.00    -0.220 N 
ATOM     16  H   UNL d   1      25.508 -13.061  -2.019  0.00  0.00     0.200 HD
BRANCH  15  17
ATOM     17  N   UNL d   1      25.527 -12.267  -3.847  0.00  0.00    -0.256 N 
ATOM     18  C   UNL d   1      26.009 -11.095  -3.277  0.00  0.00     0.273 C 
ATOM     19  O   UNL d   1      26.660 -11.034  -2.239  0.00  0.00    -0.266 OA
ATOM     20  H   UNL d   1      24.939 -12.244  -4.675  0.00  0.00     0.191 HD
BRANCH  18  21
ATOM     21  C   UNL d   1      25.657  -9.870  -4.022  0.00  0.00     0.067 A 
ATOM     22  C   UNL d   1      25.567  -8.707  -3.235  0.00  0.00     0.020 A 
ATOM     23  C   UNL d   1      25.259  -7.479  -3.817  0.00  0.00     0.001 A 
ATOM     24  C   UNL d   1      25.107  -7.394  -5.196  0.00  0.00     0.003 A 
ATOM     25  C   UNL d   1      25.179  -8.550  -5.977  0.00  0.00     0.038 A 
ATOM     26  C   UNL d   1      25.423  -9.811  -5.407  0.00  0.00     0.084 A 
BRANCH  26  27
ATOM     27  O   UNL d   1      25.362 -10.808  -6.346  0.00  0.00    -0.355 OA
ATOM     28  C   UNL d   1      26.553 -11.362  -6.879  0.00  0.00     0.210 C 
ENDBRANCH  26  27
ENDBRANCH  18  21
ENDBRANCH  15  17
ENDBRANCH   1  15
TORSDOF 7
ENDMDL
MODEL 7
REMARK VINA RESULT:    -6.451      4.474      7.958
REMARK INTER + INTRA:         -11.036
REMARK INTER:                  -8.539
REMARK INTRA:                  -2.497
REMARK CONF_INDEPENDENT:        2.088
REMARK UNBOUND:                -2.497
REMARK  7 active torsions:
REMARK  status: ('A' for Active; 'I' for Inactive)
REMARK    1  A    between atoms: C_2  and  C_3 
REMARK    2  A    between atoms: C_6  and  N_7 
REMARK    3  A    between atoms: C_11  and  S_12 
REMARK    4  A    between atoms: S_12  and  N_15 
REMARK    5  A    between atoms: N_15  and  N_16 
REMARK       I    between atoms: N_16  and  C_17 
REMARK    6  A    between atoms: C_17  and  C_19 
REMARK    7  A    between atoms: C_24  and  O_25 
ROOT
ATOM      1  S   UNL d   1      28.327 -12.078  -0.426  0.00  0.00     0.276 S 
ATOM      2  O   UNL d   1      27.356 -11.575  -1.382  0.00  0.00    -0.199 OA
ATOM      3  O   UNL d   1      29.727 -11.752  -0.541  0.00  0.00    -0.199 OA
ENDROOT
BRANCH   1   4
ATOM      4  C   UNL d   1      27.821 -11.465   1.197  0.00  0.00     0.089 A 
ATOM      5  C   UNL d   1      27.183 -10.203   1.210  0.00  0.00     0.062 A 
ATOM      6  C   UNL d   1      26.765  -9.639   2.432  0.00  0.00     0.104 A 
ATOM      7  C   UNL d   1      26.974 -10.315   3.635  0.00  0.00     0.037 A 
ATOM      8  C   UNL d   1      27.656 -11.525   3.627  0.00  0.00     0.011 A 
ATOM      9  C   UNL d   1      28.032 -12.139   2.417  0.00  0.00    -0.035 A 
BRANCH   6  10
ATOM     10  N   UNL d   1      26.156  -8.301   2.474  0.00  0.00    -0.116 N 
ATOM     11  O   UNL d   1      26.656  -7.465   3.241  0.00  0.00    -0.532 OA
ATOM     12  O   UNL d   1      25.195  -8.082   1.724  0.00  0.00    -0.532 OA
ENDBRANCH   6  10
BRANCH   9  13
ATOM     13  C   UNL d   1      28.458 -13.573   2.522  0.00  0.00     0.035 C 
ATOM     14  C   UNL d   1      27.841 -14.137   3.814  0.00  0.00     0.010 C 
ENDBRANCH   9  13
ENDBRANCH   1   4
BRANCH   1  15
ATOM     15  N   UNL d   1      28.181 -13.769  -0.499  0.00  0.00    -0.220 N 
ATOM     16  H   UNL d   1      28.858 -14.340  -0.020  0.00  0.00     0.200 HD
BRANCH  15  17
ATOM     17  N   UNL d   1      26.897 -14.447  -0.357  0.00  0.00    -0.256 N 
ATOM     18  C   UNL d   1      26.939 -15.797  -0.034  0.00  0.00     0.273 C 
ATOM     19  O   UNL d   1      27.881 -16.360   0.515  0.00  0.00    -0.266 OA
ATOM     20  H   UNL d   1      26.112 -14.055  -0.869  0.00  0.00     0.191 HD
BRANCH  18  21
ATOM     21  C   UNL d   1      25.732 -16.552  -0.425  0.00  0.00     0.067 A 
ATOM     22  C   UNL d   1      25.555 -17.773   0.252  0.00  0.00     0.020 A 
ATOM     23  C   UNL d   1      24.446 -18.575  -0.010  0.00  0.00     0.001 A 
ATOM     24  C   UNL d   1      23.475 -18.131  -0.899  0.00  0.00     0.003 A 
ATOM     25  C   UNL d   1      23.656 -16.927  -1.584  0.00  0.00     0.038 A 
ATOM     26  C   UNL d   1      24.797 -16.130  -1.387  0.00  0.00     0.084 A 
BRANCH  26  27
ATOM     27  O   UNL d   1      24.806 -15.047  -2.226  0.00  0.00    -0.355 OA
ATOM     28  C   UNL d   1      25.643 -15.036  -3.370  0.00  0.00     0.210 C 
ENDBRANCH  26  27
ENDBRANCH  18  21
ENDBRANCH  15  17
ENDBRANCH   1  15
TORSDOF 7
ENDMDL
MODEL 8
REMARK VINA RESULT:    -6.411      4.203      6.255
REMARK INTER + INTRA:         -10.907
REMARK INTER:                  -8.499
REMARK INTRA:                  -2.407
REMARK CONF_INDEPENDENT:        2.088
REMARK UNBOUND:                -2.407
REMARK  7 active torsions:
REMARK  status: ('A' for Active; 'I' for Inactive)
REMARK    1  A    between atoms: C_2  and  C_3 
REMARK    2  A    between atoms: C_6  and  N_7 
REMARK    3  A    between atoms: C_11  and  S_12 
REMARK    4  A    between atoms: S_12  and  N_15 
REMARK    5  A    between atoms: N_15  and  N_16 
REMARK       I    between atoms: N_16  and  C_17 
REMARK    6  A    between atoms: C_17  and  C_19 
REMARK    7  A    between atoms: C_24  and  O_25 
ROOT
ATOM      1  S   UNL d   1      25.929 -15.000  -1.889  0.00  0.00     0.276 S 
ATOM      2  O   UNL d   1      27.130 -15.468  -2.559  0.00  0.00    -0.199 OA
ATOM      3  O   UNL d   1      24.846 -14.400  -2.628  0.00  0.00    -0.199 OA
ENDROOT
BRANCH   1   4
ATOM      4  C   UNL d   1      25.209 -16.436  -1.059  0.00  0.00     0.089 A 
ATOM      5  C   UNL d   1      23.918 -16.818  -1.491  0.00  0.00     0.062 A 
ATOM      6  C   UNL d   1      23.273 -17.918  -0.892  0.00  0.00     0.104 A 
ATOM      7  C   UNL d   1      23.896 -18.638   0.129  0.00  0.00     0.037 A 
ATOM      8  C   UNL d   1      25.137 -18.223   0.595  0.00  0.00     0.011 A 
ATOM      9  C   UNL d   1      25.830 -17.166  -0.024  0.00  0.00    -0.035 A 
BRANCH   6  10
ATOM     10  N   UNL d   1      21.906 -18.294  -1.284  0.00  0.00    -0.116 N 
ATOM     11  O   UNL d   1      21.765 -19.321  -1.964  0.00  0.00    -0.532 OA
ATOM     12  O   UNL d   1      20.977 -17.576  -0.893  0.00  0.00    -0.532 OA
ENDBRANCH   6  10
BRANCH   9  13
ATOM     13  C   UNL d   1      27.275 -17.030   0.349  0.00  0.00     0.035 C 
ATOM     14  C   UNL d   1      28.102 -17.578  -0.827  0.00  0.00     0.010 C 
ENDBRANCH   9  13
ENDBRANCH   1   4
BRANCH   1  15
ATOM     15  N   UNL d   1      26.474 -13.863  -0.751  0.00  0.00    -0.220 N 
ATOM     16  H   UNL d   1      25.899 -13.062  -0.545  0.00  0.00     0.200 HD
BRANCH  15  17
ATOM     17  N   UNL d   1      27.098 -14.257   0.507  0.00  0.00    -0.256 N 
ATOM     18  C   UNL d   1      26.809 -13.472   1.617  0.00  0.00     0.273 C 
ATOM     19  O   UNL d   1      25.818 -12.760   1.736  0.00  0.00    -0.266 OA
ATOM     20  H   UNL d   1      27.969 -14.775   0.445  0.00  0.00     0.191 HD
BRANCH  18  21
ATOM     21  C   UNL d   1      27.823 -13.539   2.687  0.00  0.00     0.067 A 
ATOM     22  C   UNL d   1      27.359 -13.175   3.964  0.00  0.00     0.020 A 
ATOM     23  C   UNL d   1      28.210 -13.211   5.066  0.00  0.00     0.001 A 
ATOM     24  C   UNL d   1      29.511 -13.675   4.911  0.00  0.00     0.003 A 
ATOM     25  C   UNL d   1      29.980 -14.022   3.642  0.00  0.00     0.038 A 
ATOM     26  C   UNL d   1      29.161 -13.932   2.503  0.00  0.00     0.084 A 
BRANCH  26  27
ATOM     27  O   UNL d   1      29.854 -14.234   1.360  0.00  0.00    -0.355 OA
ATOM     28  C   UNL d   1      30.074 -13.240   0.373  0.00  0.00     0.210 C 
ENDBRANCH  26  27
ENDBRANCH  18  21
ENDBRANCH  15  17
ENDBRANCH   1  15
TORSDOF 7
ENDMDL
MODEL 9
REMARK VINA RESULT:    -6.355      4.028      7.755
REMARK INTER + INTRA:         -10.855
REMARK INTER:                  -8.443
REMARK INTRA:                  -2.412
REMARK CONF_INDEPENDENT:        2.088
REMARK UNBOUND:                -2.412
REMARK  7 active torsions:
REMARK  status: ('A' for Active; 'I' for Inactive)
REMARK    1  A    between atoms: C_2  and  C_3 
REMARK    2  A    between atoms: C_6  and  N_7 
REMARK    3  A    between atoms: C_11  and  S_12 
REMARK    4  A    between atoms: S_12  and  N_15 
REMARK    5  A    between atoms: N_15  and  N_16 
REMARK       I    between atoms: N_16  and  C_17 
REMARK    6  A    between atoms: C_17  and  C_19 
REMARK    7  A    between atoms: C_24  and  O_25 
ROOT
ATOM      1  S   UNL d   1      29.401 -15.837  -0.987  0.00  0.00     0.276 S 
ATOM      2  O   UNL d   1      29.740 -17.084  -0.322  0.00  0.00    -0.199 OA
ATOM      3  O   UNL d   1      30.092 -15.414  -2.180  0.00  0.00    -0.199 OA
ENDROOT
BRANCH   1   4
ATOM      4  C   UNL d   1      27.659 -15.957  -1.454  0.00  0.00     0.089 A 
ATOM      5  C   UNL d   1      27.341 -15.547  -2.769  0.00  0.00     0.062 A 
ATOM      6  C   UNL d   1      26.006 -15.593  -3.217  0.00  0.00     0.104 A 
ATOM      7  C   UNL d   1      24.989 -16.041  -2.373  0.00  0.00     0.037 A 
ATOM      8  C   UNL d   1      25.293 -16.384  -1.062  0.00  0.00     0.011 A 
ATOM      9  C   UNL d   1      26.625 -16.404  -0.606  0.00  0.00    -0.035 A 
BRANCH   6  10
ATOM     10  N   UNL d   1      25.646 -15.114  -4.560  0.00  0.00    -0.116 N 
ATOM     11  O   UNL d   1      24.751 -14.260  -4.645  0.00  0.00    -0.532 OA
ATOM     12  O   UNL d   1      26.272 -15.575  -5.523  0.00  0.00    -0.532 OA
ENDBRANCH   6  10
BRANCH   9  13
ATOM     13  C   UNL d   1      26.853 -17.096   0.704  0.00  0.00     0.035 C 
ATOM     14  C   UNL d   1      27.017 -18.596   0.403  0.00  0.00     0.010 C 
ENDBRANCH   9  13
ENDBRANCH   1   4
BRANCH   1  15
ATOM     15  N   UNL d   1      29.622 -14.635   0.194  0.00  0.00    -0.220 N 
ATOM     16  H   UNL d   1      29.409 -13.678  -0.036  0.00  0.00     0.200 HD
BRANCH  15  17
ATOM     17  N   UNL d   1      29.222 -14.825   1.583  0.00  0.00    -0.256 N 
ATOM     18  C   UNL d   1      28.632 -13.736   2.214  0.00  0.00     0.273 C 
ATOM     19  O   UNL d   1      28.072 -12.809   1.639  0.00  0.00    -0.266 OA
ATOM     20  H   UNL d   1      29.725 -15.528   2.115  0.00  0.00     0.191 HD
BRANCH  18  21
ATOM     21  C   UNL d   1      28.740 -13.758   3.686  0.00  0.00     0.067 A 
ATOM     22  C   UNL d   1      27.772 -12.990   4.360  0.00  0.00     0.020 A 
ATOM     23  C   UNL d   1      27.751 -12.938   5.752  0.00  0.00     0.001 A 
ATOM     24  C   UNL d   1      28.653 -13.705   6.480  0.00  0.00     0.003 A 
ATOM     25  C   UNL d   1      29.626 -14.455   5.813  0.00  0.00     0.038 A 
ATOM     26  C   UNL d   1      29.710 -14.473   4.410  0.00  0.00     0.084 A 
BRANCH  26  27
ATOM     27  O   UNL d   1      30.790 -15.199   3.981  0.00  0.00    -0.355 OA
ATOM     28  C   UNL d   1      31.747 -14.613   3.115  0.00  0.00     0.210 C 
ENDBRANCH  26  27
ENDBRANCH  18  21
ENDBRANCH  15  17
ENDBRANCH   1  15
TORSDOF 7
ENDMDL
