MODEL 1
REMARK VINA RESULT:    -7.537      0.000      0.000
REMARK INTER + INTRA:         -10.887
REMARK INTER:                  -9.625
REMARK INTRA:                  -1.262
REMARK CONF_INDEPENDENT:        2.088
REMARK UNBOUND:                -1.262
REMARK  7 active torsions:
REMARK  status: ('A' for Active; 'I' for Inactive)
REMARK    1  A    between atoms: C_2  and  C_3 
REMARK    2  A    between atoms: C_3  and  N_4 
REMARK       I    between atoms: N_4  and  C_5 
REMARK       I    between atoms: C_5  and  N_7 
REMARK    3  A    between atoms: N_7  and  N_8 
REMARK       I    between atoms: N_8  and  C_9 
REMARK    4  A    between atoms: C_9  and  C_11 
REMARK    5  A    between atoms: C_11  and  C_12 
REMARK    6  A    between atoms: C_12  and  O_13 
REMARK    7  A    between atoms: O_13  and  C_14 
ROOT
ATOM      1  N   UNL d   1      23.217 -17.555  -0.658  0.00  0.00    -0.266 N 
ATOM      2  C   UNL d   1      24.580 -17.380  -0.436  0.00  0.00     0.238 C 
ATOM      3  O   UNL d   1      25.228 -18.187   0.234  0.00  0.00    -0.272 OA
ATOM      4  H   UNL d   1      22.636 -16.921  -1.205  0.00  0.00     0.190 HD
ENDROOT
BRANCH   2   5
ATOM      5  C   UNL d   1      25.227 -16.133  -1.067  0.00  0.00     0.131 C 
BRANCH   5   6
ATOM      6  C   UNL d   1      25.164 -16.171  -2.611  0.00  0.00     0.185 C 
BRANCH   6   7
ATOM      7  O   UNL d   1      24.777 -14.886  -3.147  0.00  0.00    -0.348 OA
BRANCH   7   8
ATOM      8  C   UNL d   1      25.681 -14.319  -4.023  0.00  0.00     0.107 A 
ATOM      9  C   UNL d   1      26.523 -15.197  -4.720  0.00  0.00     0.040 A 
ATOM     10  C   UNL d   1      27.487 -14.710  -5.619  0.00  0.00     0.003 A 
ATOM     11  C   UNL d   1      27.636 -13.337  -5.813  0.00  0.00     0.003 A 
ATOM     12  C   UNL d   1      26.832 -12.455  -5.096  0.00  0.00     0.045 A 
ATOM     13  C   UNL d   1      25.871 -12.945  -4.208  0.00  0.00     0.149 A 
ATOM     14  F   UNL d   1      25.168 -12.043  -3.510  0.00  0.00    -0.203 F 
ENDBRANCH   7   8
ENDBRANCH   6   7
ENDBRANCH   5   6
ENDBRANCH   2   5
BRANCH   1  15
ATOM     15  N   UNL d   1      22.538 -18.698  -0.096  0.00  0.00    -0.249 N 
ATOM     16  C   UNL d   1      21.209 -18.939  -0.417  0.00  0.00     0.334 C 
ATOM     17  N   UNL d   1      20.654 -20.059   0.177  0.00  0.00    -0.342 N 
ATOM     18  O   UNL d   1      20.576 -18.202  -1.177  0.00  0.00    -0.246 OA
ATOM     19  H   UNL d   1      21.213 -20.633   0.791  0.00  0.00     0.164 HD
ATOM     20  H   UNL d   1      23.089 -19.284   0.522  0.00  0.00     0.192 HD
BRANCH  17  21
ATOM     21  C   UNL d   1      19.256 -20.442  -0.067  0.00  0.00     0.124 C 
BRANCH  21  22
ATOM     22  C   UNL d   1      18.497 -20.922   1.179  0.00  0.00     0.015 C 
ATOM     23  C   UNL d   1      19.157 -20.446   2.475  0.00  0.00     0.006 C 
ENDBRANCH  21  22
ENDBRANCH  17  21
ENDBRANCH   1  15
TORSDOF 7
ENDMDL
MODEL 2
REMARK VINA RESULT:    -7.395      1.081      1.529
REMARK INTER + INTRA:         -10.807
REMARK INTER:                  -9.483
REMARK INTRA:                  -1.323
REMARK CONF_INDEPENDENT:        2.088
REMARK UNBOUND:                -1.323
REMARK  7 active torsions:
REMARK  status: ('A' for Active; 'I' for Inactive)
REMARK    1  A    between atoms: C_2  and  C_3 
REMARK    2  A    between atoms: C_3  and  N_4 
REMARK       I    between atoms: N_4  and  C_5 
REMARK       I    between atoms: C_5  and  N_7 
REMARK    3  A    between atoms: N_7  and  N_8 
REMARK       I    between atoms: N_8  and  C_9 
REMARK    4  A    between atoms: C_9  and  C_11 
REMARK    5  A    between atoms: C_11  and  C_12 
REMARK    6  A    between atoms: C_12  and  O_13 
REMARK    7  A    between atoms: O_13  and  C_14 
ROOT
ATOM      1  N   UNL d   1      23.406 -17.688  -0.665  0.00  0.00    -0.266 N 
ATOM      2  C   UNL d   1      24.710 -17.460  -0.233  0.00  0.00     0.238 C 
ATOM      3  O   UNL d   1      25.244 -18.193   0.601  0.00  0.00    -0.272 OA
ATOM      4  H   UNL d   1      22.919 -17.115  -1.353  0.00  0.00     0.190 HD
ENDROOT
BRANCH   2   5
ATOM      5  C   UNL d   1      25.439 -16.252  -0.850  0.00  0.00     0.131 C 
BRANCH   5   6
ATOM      6  C   UNL d   1      25.458 -16.317  -2.393  0.00  0.00     0.185 C 
BRANCH   6   7
ATOM      7  O   UNL d   1      24.753 -15.194  -2.969  0.00  0.00    -0.348 OA
BRANCH   7   8
ATOM      8  C   UNL d   1      25.543 -14.299  -3.663  0.00  0.00     0.107 A 
ATOM      9  C   UNL d   1      25.531 -12.968  -3.221  0.00  0.00     0.040 A 
ATOM     10  C   UNL d   1      26.289 -11.984  -3.877  0.00  0.00     0.003 A 
ATOM     11  C   UNL d   1      27.047 -12.313  -5.000  0.00  0.00     0.003 A 
ATOM     12  C   UNL d   1      27.033 -13.623  -5.472  0.00  0.00     0.045 A 
ATOM     13  C   UNL d   1      26.283 -14.599  -4.811  0.00  0.00     0.149 A 
ATOM     14  F   UNL d   1      26.271 -15.827  -5.348  0.00  0.00    -0.203 F 
ENDBRANCH   7   8
ENDBRANCH   6   7
ENDBRANCH   5   6
ENDBRANCH   2   5
BRANCH   1  15
ATOM     15  N   UNL d   1      22.655 -18.798  -0.131  0.00  0.00    -0.249 N 
ATOM     16  C   UNL d   1      21.314 -18.946  -0.457  0.00  0.00     0.334 C 
ATOM     17  N   UNL d   1      20.688 -20.043   0.111  0.00  0.00    -0.342 N 
ATOM     18  O   UNL d   1      20.730 -18.152  -1.198  0.00  0.00    -0.246 OA
ATOM     19  H   UNL d   1      21.209 -20.666   0.710  0.00  0.00     0.164 HD
ATOM     20  H   UNL d   1      23.167 -19.433   0.473  0.00  0.00     0.192 HD
BRANCH  17  21
ATOM     21  C   UNL d   1      19.269 -20.331  -0.143  0.00  0.00     0.124 C 
BRANCH  21  22
ATOM     22  C   UNL d   1      18.495 -20.853   1.077  0.00  0.00     0.015 C 
ATOM     23  C   UNL d   1      19.155 -20.448   2.396  0.00  0.00     0.006 C 
ENDBRANCH  21  22
ENDBRANCH  17  21
ENDBRANCH   1  15
TORSDOF 7
ENDMDL
MODEL 3
REMARK VINA RESULT:    -6.900      0.990      1.139
REMARK INTER + INTRA:         -10.903
REMARK INTER:                  -8.988
REMARK INTRA:                  -1.915
REMARK CONF_INDEPENDENT:        2.088
REMARK UNBOUND:                -1.915
REMARK  7 active torsions:
REMARK  status: ('A' for Active; 'I' for Inactive)
REMARK    1  A    between atoms: C_2  and  C_3 
REMARK    2  A    between atoms: C_3  and  N_4 
REMARK       I    between atoms: N_4  and  C_5 
REMARK       I    between atoms: C_5  and  N_7 
REMARK    3  A    between atoms: N_7  and  N_8 
REMARK       I    between atoms: N_8  and  C_9 
REMARK    4  A    between atoms: C_9  and  C_11 
REMARK    5  A    between atoms: C_11  and  C_12 
REMARK    6  A    between atoms: C_12  and  O_13 
REMARK    7  A    between atoms: O_13  and  C_14 
ROOT
ATOM      1  N   UNL d   1      24.120 -17.689  -0.441  0.00  0.00    -0.266 N 
ATOM      2  C   UNL d   1      25.440 -17.696  -0.001  0.00  0.00     0.238 C 
ATOM      3  O   UNL d   1      25.856 -18.574   0.758  0.00  0.00    -0.272 OA
ATOM      4  H   UNL d   1      23.725 -16.989  -1.069  0.00  0.00     0.190 HD
ENDROOT
BRANCH   2   5
ATOM      5  C   UNL d   1      26.342 -16.556  -0.507  0.00  0.00     0.131 C 
BRANCH   5   6
ATOM      6  C   UNL d   1      25.529 -15.289  -0.854  0.00  0.00     0.185 C 
BRANCH   6   7
ATOM      7  O   UNL d   1      24.873 -15.426  -2.134  0.00  0.00    -0.348 OA
BRANCH   7   8
ATOM      8  C   UNL d   1      25.493 -14.780  -3.184  0.00  0.00     0.107 A 
ATOM      9  C   UNL d   1      25.906 -15.575  -4.263  0.00  0.00     0.040 A 
ATOM     10  C   UNL d   1      26.562 -15.006  -5.368  0.00  0.00     0.003 A 
ATOM     11  C   UNL d   1      26.838 -13.640  -5.395  0.00  0.00     0.003 A 
ATOM     12  C   UNL d   1      26.469 -12.848  -4.310  0.00  0.00     0.045 A 
ATOM     13  C   UNL d   1      25.810 -13.417  -3.218  0.00  0.00     0.149 A 
ATOM     14  F   UNL d   1      25.531 -12.611  -2.184  0.00  0.00    -0.203 F 
ENDBRANCH   7   8
ENDBRANCH   6   7
ENDBRANCH   5   6
ENDBRANCH   2   5
BRANCH   1  15
ATOM     15  N   UNL d   1      23.211 -18.722  -0.007  0.00  0.00    -0.249 N 
ATOM     16  C   UNL d   1      21.855 -18.611  -0.283  0.00  0.00     0.334 C 
ATOM     17  N   UNL d   1      21.072 -19.656   0.180  0.00  0.00    -0.342 N 
ATOM     18  O   UNL d   1      21.390 -17.648  -0.895  0.00  0.00    -0.246 OA
ATOM     19  H   UNL d   1      21.500 -20.424   0.675  0.00  0.00     0.164 HD
ATOM     20  H   UNL d   1      23.628 -19.502   0.492  0.00  0.00     0.192 HD
BRANCH  17  21
ATOM     21  C   UNL d   1      19.619 -19.678  -0.037  0.00  0.00     0.124 C 
BRANCH  21  22
ATOM     22  C   UNL d   1      18.798 -20.135   1.178  0.00  0.00     0.015 C 
ATOM     23  C   UNL d   1      18.152 -21.504   0.955  0.00  0.00     0.006 C 
ENDBRANCH  21  22
ENDBRANCH  17  21
ENDBRANCH   1  15
TORSDOF 7
ENDMDL
MODEL 4
REMARK VINA RESULT:    -6.882      1.466      1.796
REMARK INTER + INTRA:         -10.269
REMARK INTER:                  -8.970
REMARK INTRA:                  -1.299
REMARK CONF_INDEPENDENT:        2.088
REMARK UNBOUND:                -1.299
REMARK  7 active torsions:
REMARK  status: ('A' for Active; 'I' for Inactive)
REMARK    1  A    between atoms: C_2  and  C_3 
REMARK    2  A    between atoms: C_3  and  N_4 
REMARK       I    between atoms: N_4  and  C_5 
REMARK       I    between atoms: C_5  and  N_7 
REMARK    3  A    between atoms: N_7  and  N_8 
REMARK       I    between atoms: N_8  and  C_9 
REMARK    4  A    between atoms: C_9  and  C_11 
REMARK    5  A    between atoms: C_11  and  C_12 
REMARK    6  A    between atoms: C_12  and  O_13 
REMARK    7  A    between atoms: O_13  and  C_14 
ROOT
ATOM      1  N   UNL d   1      23.208 -17.584  -0.795  0.00  0.00    -0.266 N 
ATOM      2  C   UNL d   1      24.539 -17.324  -0.484  0.00  0.00     0.238 C 
ATOM      3  O   UNL d   1      25.160 -18.033   0.311  0.00  0.00    -0.272 OA
ATOM      4  H   UNL d   1      22.650 -17.032  -1.446  0.00  0.00     0.190 HD
ENDROOT
BRANCH   2   5
ATOM      5  C   UNL d   1      25.187 -16.113  -1.181  0.00  0.00     0.131 C 
BRANCH   5   6
ATOM      6  C   UNL d   1      25.234 -16.289  -2.715  0.00  0.00     0.185 C 
BRANCH   6   7
ATOM      7  O   UNL d   1      25.620 -15.058  -3.368  0.00  0.00    -0.348 OA
BRANCH   7   8
ATOM      8  C   UNL d   1      26.826 -15.103  -4.039  0.00  0.00     0.107 A 
ATOM      9  C   UNL d   1      26.814 -14.720  -5.388  0.00  0.00     0.040 A 
ATOM     10  C   UNL d   1      27.990 -14.751  -6.157  0.00  0.00     0.003 A 
ATOM     11  C   UNL d   1      29.187 -15.190  -5.592  0.00  0.00     0.003 A 
ATOM     12  C   UNL d   1      29.201 -15.611  -4.265  0.00  0.00     0.045 A 
ATOM     13  C   UNL d   1      28.030 -15.572  -3.504  0.00  0.00     0.149 A 
ATOM     14  F   UNL d   1      28.100 -16.040  -2.250  0.00  0.00    -0.203 F 
ENDBRANCH   7   8
ENDBRANCH   6   7
ENDBRANCH   5   6
ENDBRANCH   2   5
BRANCH   1  15
ATOM     15  N   UNL d   1      22.530 -18.699  -0.180  0.00  0.00    -0.249 N 
ATOM     16  C   UNL d   1      21.195 -18.943  -0.472  0.00  0.00     0.334 C 
ATOM     17  N   UNL d   1      20.641 -20.036   0.173  0.00  0.00    -0.342 N 
ATOM     18  O   UNL d   1      20.556 -18.232  -1.251  0.00  0.00    -0.246 OA
ATOM     19  H   UNL d   1      21.206 -20.589   0.801  0.00  0.00     0.164 HD
ATOM     20  H   UNL d   1      23.086 -19.265   0.453  0.00  0.00     0.192 HD
BRANCH  17  21
ATOM     21  C   UNL d   1      19.238 -20.419  -0.037  0.00  0.00     0.124 C 
BRANCH  21  22
ATOM     22  C   UNL d   1      18.544 -21.010   1.200  0.00  0.00     0.015 C 
ATOM     23  C   UNL d   1      19.116 -20.450   2.504  0.00  0.00     0.006 C 
ENDBRANCH  21  22
ENDBRANCH  17  21
ENDBRANCH   1  15
TORSDOF 7
ENDMDL
MODEL 5
REMARK VINA RESULT:    -6.722      1.463      1.873
REMARK INTER + INTRA:         -10.762
REMARK INTER:                  -8.810
REMARK INTRA:                  -1.952
REMARK CONF_INDEPENDENT:        2.088
REMARK UNBOUND:                -1.952
REMARK  7 active torsions:
REMARK  status: ('A' for Active; 'I' for Inactive)
REMARK    1  A    between atoms: C_2  and  C_3 
REMARK    2  A    between atoms: C_3  and  N_4 
REMARK       I    between atoms: N_4  and  C_5 
REMARK       I    between atoms: C_5  and  N_7 
REMARK    3  A    between atoms: N_7  and  N_8 
REMARK       I    between atoms: N_8  and  C_9 
REMARK    4  A    between atoms: C_9  and  C_11 
REMARK    5  A    between atoms: C_11  and  C_12 
REMARK    6  A    between atoms: C_12  and  O_13 
REMARK    7  A    between atoms: O_13  and  C_14 
ROOT
ATOM      1  N   UNL d   1      24.192 -17.785  -0.402  0.00  0.00    -0.266 N 
ATOM      2  C   UNL d   1      25.530 -17.874  -0.028  0.00  0.00     0.238 C 
ATOM      3  O   UNL d   1      25.942 -18.815   0.654  0.00  0.00    -0.272 OA
ATOM      4  H   UNL d   1      23.801 -17.031  -0.966  0.00  0.00     0.190 HD
ENDROOT
BRANCH   2   5
ATOM      5  C   UNL d   1      26.457 -16.740  -0.505  0.00  0.00     0.131 C 
BRANCH   5   6
ATOM      6  C   UNL d   1      25.690 -15.413  -0.697  0.00  0.00     0.185 C 
BRANCH   6   7
ATOM      7  O   UNL d   1      24.939 -15.420  -1.933  0.00  0.00    -0.348 OA
BRANCH   7   8
ATOM      8  C   UNL d   1      25.524 -14.738  -2.980  0.00  0.00     0.107 A 
ATOM      9  C   UNL d   1      24.775 -13.704  -3.560  0.00  0.00     0.040 A 
ATOM     10  C   UNL d   1      25.282 -12.966  -4.643  0.00  0.00     0.003 A 
ATOM     11  C   UNL d   1      26.534 -13.271  -5.176  0.00  0.00     0.003 A 
ATOM     12  C   UNL d   1      27.269 -14.322  -4.633  0.00  0.00     0.045 A 
ATOM     13  C   UNL d   1      26.763 -15.047  -3.552  0.00  0.00     0.149 A 
ATOM     14  F   UNL d   1      27.496 -16.079  -3.112  0.00  0.00    -0.203 F 
ENDBRANCH   7   8
ENDBRANCH   6   7
ENDBRANCH   5   6
ENDBRANCH   2   5
BRANCH   1  15
ATOM     15  N   UNL d   1      23.261 -18.806   0.010  0.00  0.00    -0.249 N 
ATOM     16  C   UNL d   1      21.911 -18.671  -0.284  0.00  0.00     0.334 C 
ATOM     17  N   UNL d   1      21.104 -19.706   0.158  0.00  0.00    -0.342 N 
ATOM     18  O   UNL d   1      21.470 -17.694  -0.895  0.00  0.00    -0.246 OA
ATOM     19  H   UNL d   1      21.512 -20.485   0.653  0.00  0.00     0.164 HD
ATOM     20  H   UNL d   1      23.657 -19.597   0.508  0.00  0.00     0.192 HD
BRANCH  17  21
ATOM     21  C   UNL d   1      19.654 -19.701  -0.079  0.00  0.00     0.124 C 
BRANCH  21  22
ATOM     22  C   UNL d   1      18.804 -20.071   1.146  0.00  0.00     0.015 C 
ATOM     23  C   UNL d   1      18.123 -21.432   0.986  0.00  0.00     0.006 C 
ENDBRANCH  21  22
ENDBRANCH  17  21
ENDBRANCH   1  15
TORSDOF 7
ENDMDL
MODEL 6
REMARK VINA RESULT:    -6.231      4.339      8.929
REMARK INTER + INTRA:          -9.544
REMARK INTER:                  -8.319
REMARK INTRA:                  -1.225
REMARK CONF_INDEPENDENT:        2.088
REMARK UNBOUND:                -1.225
REMARK  7 active torsions:
REMARK  status: ('A' for Active; 'I' for Inactive)
REMARK    1  A    between atoms: C_2  and  C_3 
REMARK    2  A    between atoms: C_3  and  N_4 
REMARK       I    between atoms: N_4  and  C_5 
REMARK       I    between atoms: C_5  and  N_7 
REMARK    3  A    between atoms: N_7  and  N_8 
REMARK       I    between atoms: N_8  and  C_9 
REMARK    4  A    between atoms: C_9  and  C_11 
REMARK    5  A    between atoms: C_11  and  C_12 
REMARK    6  A    between atoms: C_12  and  O_13 
REMARK    7  A    between atoms: O_13  and  C_14 
ROOT
ATOM      1  N   UNL d   1      25.224 -16.707  -0.511  0.00  0.00    -0.266 N 
ATOM      2  C   UNL d   1      24.411 -17.834  -0.445  0.00  0.00     0.238 C 
ATOM      3  O   UNL d   1      24.753 -18.833   0.192  0.00  0.00    -0.272 OA
ATOM      4  H   UNL d   1      24.989 -15.856  -1.021  0.00  0.00     0.190 HD
ENDROOT
BRANCH   2   5
ATOM      5  C   UNL d   1      23.075 -17.767  -1.208  0.00  0.00     0.131 C 
BRANCH   5   6
ATOM      6  C   UNL d   1      22.131 -18.925  -0.818  0.00  0.00     0.185 C 
BRANCH   6   7
ATOM      7  O   UNL d   1      20.796 -18.439  -0.548  0.00  0.00    -0.348 OA
BRANCH   7   8
ATOM      8  C   UNL d   1      19.978 -19.318   0.132  0.00  0.00     0.107 A 
ATOM      9  C   UNL d   1      18.971 -19.950  -0.612  0.00  0.00     0.040 A 
ATOM     10  C   UNL d   1      18.079 -20.848  -0.001  0.00  0.00     0.003 A 
ATOM     11  C   UNL d   1      18.166 -21.103   1.367  0.00  0.00     0.003 A 
ATOM     12  C   UNL d   1      19.135 -20.449   2.123  0.00  0.00     0.045 A 
ATOM     13  C   UNL d   1      20.024 -19.564   1.508  0.00  0.00     0.149 A 
ATOM     14  F   UNL d   1      20.898 -18.928   2.301  0.00  0.00    -0.203 F 
ENDBRANCH   7   8
ENDBRANCH   6   7
ENDBRANCH   5   6
ENDBRANCH   2   5
BRANCH   1  15
ATOM     15  N   UNL d   1      26.494 -16.694   0.174  0.00  0.00    -0.249 N 
ATOM     16  C   UNL d   1      27.145 -15.490   0.402  0.00  0.00     0.334 C 
ATOM     17  N   UNL d   1      28.356 -15.591   1.065  0.00  0.00    -0.342 N 
ATOM     18  O   UNL d   1      26.672 -14.411   0.035  0.00  0.00    -0.246 OA
ATOM     19  H   UNL d   1      28.702 -16.497   1.347  0.00  0.00     0.164 HD
ATOM     20  H   UNL d   1      26.853 -17.598   0.465  0.00  0.00     0.192 HD
BRANCH  17  21
ATOM     21  C   UNL d   1      29.160 -14.401   1.377  0.00  0.00     0.124 C 
BRANCH  21  22
ATOM     22  C   UNL d   1      28.618 -13.548   2.534  0.00  0.00     0.015 C 
ATOM     23  C   UNL d   1      27.907 -14.395   3.591  0.00  0.00     0.006 C 
ENDBRANCH  21  22
ENDBRANCH  17  21
ENDBRANCH   1  15
TORSDOF 7
ENDMDL
MODEL 7
REMARK VINA RESULT:    -6.077      3.270      4.559
REMARK INTER + INTRA:          -9.428
REMARK INTER:                  -8.165
REMARK INTRA:                  -1.263
REMARK CONF_INDEPENDENT:        2.088
REMARK UNBOUND:                -1.263
REMARK  7 active torsions:
REMARK  status: ('A' for Active; 'I' for Inactive)
REMARK    1  A    between atoms: C_2  and  C_3 
REMARK    2  A    between atoms: C_3  and  N_4 
REMARK       I    between atoms: N_4  and  C_5 
REMARK       I    between atoms: C_5  and  N_7 
REMARK    3  A    between atoms: N_7  and  N_8 
REMARK       I    between atoms: N_8  and  C_9 
REMARK    4  A    between atoms: C_9  and  C_11 
REMARK    5  A    between atoms: C_11  and  C_12 
REMARK    6  A    between atoms: C_12  and  O_13 
REMARK    7  A    between atoms: O_13  and  C_14 
ROOT
ATOM      1  N   UNL d   1      23.957 -17.617  -0.515  0.00  0.00    -0.266 N 
ATOM      2  C   UNL d   1      25.323 -17.620  -0.249  0.00  0.00     0.238 C 
ATOM      3  O   UNL d   1      25.835 -18.489   0.459  0.00  0.00    -0.272 OA
ATOM      4  H   UNL d   1      23.484 -16.924  -1.094  0.00  0.00     0.190 HD
ENDROOT
BRANCH   2   5
ATOM      5  C   UNL d   1      26.151 -16.485  -0.880  0.00  0.00     0.131 C 
BRANCH   5   6
ATOM      6  C   UNL d   1      25.919 -15.136  -0.163  0.00  0.00     0.185 C 
BRANCH   6   7
ATOM      7  O   UNL d   1      27.160 -14.410  -0.006  0.00  0.00    -0.348 OA
BRANCH   7   8
ATOM      8  C   UNL d   1      27.391 -13.909   1.259  0.00  0.00     0.107 A 
ATOM      9  C   UNL d   1      27.802 -14.825   2.238  0.00  0.00     0.040 A 
ATOM     10  C   UNL d   1      28.044 -14.410   3.558  0.00  0.00     0.003 A 
ATOM     11  C   UNL d   1      27.852 -13.077   3.921  0.00  0.00     0.003 A 
ATOM     12  C   UNL d   1      27.405 -12.167   2.967  0.00  0.00     0.045 A 
ATOM     13  C   UNL d   1      27.173 -12.585   1.654  0.00  0.00     0.149 A 
ATOM     14  F   UNL d   1      26.693 -11.672   0.798  0.00  0.00    -0.203 F 
ENDBRANCH   7   8
ENDBRANCH   6   7
ENDBRANCH   5   6
ENDBRANCH   2   5
BRANCH   1  15
ATOM     15  N   UNL d   1      23.114 -18.645   0.044  0.00  0.00    -0.249 N 
ATOM     16  C   UNL d   1      21.748 -18.630  -0.203  0.00  0.00     0.334 C 
ATOM     17  N   UNL d   1      21.031 -19.660   0.381  0.00  0.00    -0.342 N 
ATOM     18  O   UNL d   1      21.219 -17.756  -0.895  0.00  0.00    -0.246 OA
ATOM     19  H   UNL d   1      21.510 -20.354   0.938  0.00  0.00     0.164 HD
ATOM     20  H   UNL d   1      23.582 -19.350   0.606  0.00  0.00     0.192 HD
BRANCH  17  21
ATOM     21  C   UNL d   1      19.577 -19.776   0.208  0.00  0.00     0.124 C 
BRANCH  21  22
ATOM     22  C   UNL d   1      19.014 -21.186   0.444  0.00  0.00     0.015 C 
ATOM     23  C   UNL d   1      17.928 -21.200   1.522  0.00  0.00     0.006 C 
ENDBRANCH  21  22
ENDBRANCH  17  21
ENDBRANCH   1  15
TORSDOF 7
ENDMDL
MODEL 8
REMARK VINA RESULT:    -5.737      4.407      9.033
REMARK INTER + INTRA:          -9.175
REMARK INTER:                  -7.825
REMARK INTRA:                  -1.350
REMARK CONF_INDEPENDENT:        2.088
REMARK UNBOUND:                -1.350
REMARK  7 active torsions:
REMARK  status: ('A' for Active; 'I' for Inactive)
REMARK    1  A    between atoms: C_2  and  C_3 
REMARK    2  A    between atoms: C_3  and  N_4 
REMARK       I    between atoms: N_4  and  C_5 
REMARK       I    between atoms: C_5  and  N_7 
REMARK    3  A    between atoms: N_7  and  N_8 
REMARK       I    between atoms: N_8  and  C_9 
REMARK    4  A    between atoms: C_9  and  C_11 
REMARK    5  A    between atoms: C_11  and  C_12 
REMARK    6  A    between atoms: C_12  and  O_13 
REMARK    7  A    between atoms: O_13  and  C_14 
ROOT
ATOM      1  N   UNL d   1      26.045 -12.931  -3.428  0.00  0.00    -0.266 N 
ATOM      2  C   UNL d   1      25.629 -14.257  -3.507  0.00  0.00     0.238 C 
ATOM      3  O   UNL d   1      24.784 -14.615  -4.330  0.00  0.00    -0.272 OA
ATOM      4  H   UNL d   1      26.740 -12.583  -2.768  0.00  0.00     0.190 HD
ENDROOT
BRANCH   2   5
ATOM      5  C   UNL d   1      26.276 -15.243  -2.516  0.00  0.00     0.131 C 
BRANCH   5   6
ATOM      6  C   UNL d   1      25.906 -14.913  -1.052  0.00  0.00     0.185 C 
BRANCH   6   7
ATOM      7  O   UNL d   1      25.913 -16.104  -0.233  0.00  0.00    -0.348 OA
BRANCH   7   8
ATOM      8  C   UNL d   1      24.821 -16.933  -0.394  0.00  0.00     0.107 A 
ATOM      9  C   UNL d   1      23.604 -16.321  -0.726  0.00  0.00     0.040 A 
ATOM     10  C   UNL d   1      22.435 -17.082  -0.892  0.00  0.00     0.003 A 
ATOM     11  C   UNL d   1      22.464 -18.463  -0.700  0.00  0.00     0.003 A 
ATOM     12  C   UNL d   1      23.658 -19.076  -0.329  0.00  0.00     0.045 A 
ATOM     13  C   UNL d   1      24.818 -18.315  -0.173  0.00  0.00     0.149 A 
ATOM     14  F   UNL d   1      25.921 -18.957   0.236  0.00  0.00    -0.203 F 
ENDBRANCH   7   8
ENDBRANCH   6   7
ENDBRANCH   5   6
ENDBRANCH   2   5
BRANCH   1  15
ATOM     15  N   UNL d   1      25.482 -11.947  -4.320  0.00  0.00    -0.249 N 
ATOM     16  C   UNL d   1      25.915 -10.629  -4.258  0.00  0.00     0.334 C 
ATOM     17  N   UNL d   1      25.309  -9.767  -5.156  0.00  0.00    -0.342 N 
ATOM     18  O   UNL d   1      26.776 -10.262  -3.456  0.00  0.00    -0.246 OA
ATOM     19  H   UNL d   1      24.609 -10.116  -5.795  0.00  0.00     0.164 HD
ATOM     20  H   UNL d   1      24.778 -12.284  -4.969  0.00  0.00     0.192 HD
BRANCH  17  21
ATOM     21  C   UNL d   1      25.664  -8.342  -5.208  0.00  0.00     0.124 C 
BRANCH  21  22
ATOM     22  C   UNL d   1      24.562  -7.428  -5.764  0.00  0.00     0.015 C 
ATOM     23  C   UNL d   1      23.162  -7.926  -5.399  0.00  0.00     0.006 C 
ENDBRANCH  21  22
ENDBRANCH  17  21
ENDBRANCH   1  15
TORSDOF 7
ENDMDL
MODEL 9
REMARK VINA RESULT:    -5.534      4.834      7.783
REMARK INTER + INTRA:          -9.560
REMARK INTER:                  -7.622
REMARK INTRA:                  -1.937
REMARK CONF_INDEPENDENT:        2.088
REMARK UNBOUND:                -1.937
REMARK  7 active torsions:
REMARK  status: ('A' for Active; 'I' for Inactive)
REMARK    1  A    between atoms: C_2  and  C_3 
REMARK    2  A    between atoms: C_3  and  N_4 
REMARK       I    between atoms: N_4  and  C_5 
REMARK       I    between atoms: C_5  and  N_7 
REMARK    3  A    between atoms: N_7  and  N_8 
REMARK       I    between atoms: N_8  and  C_9 
REMARK    4  A    between atoms: C_9  and  C_11 
REMARK    5  A    between atoms: C_11  and  C_12 
REMARK    6  A    between atoms: C_12  and  O_13 
REMARK    7  A    between atoms: O_13  and  C_14 
ROOT
ATOM      1  N   UNL d   1      27.623 -15.098   0.038  0.00  0.00    -0.266 N 
ATOM      2  C   UNL d   1      28.115 -15.818  -1.046  0.00  0.00     0.238 C 
ATOM      3  O   UNL d   1      29.012 -16.652  -0.905  0.00  0.00    -0.272 OA
ATOM      4  H   UNL d   1      26.883 -14.399  -0.022  0.00  0.00     0.190 HD
ENDROOT
BRANCH   2   5
ATOM      5  C   UNL d   1      27.485 -15.516  -2.418  0.00  0.00     0.131 C 
BRANCH   5   6
ATOM      6  C   UNL d   1      25.947 -15.665  -2.390  0.00  0.00     0.185 C 
BRANCH   6   7
ATOM      7  O   UNL d   1      25.454 -15.714  -1.032  0.00  0.00    -0.348 OA
BRANCH   7   8
ATOM      8  C   UNL d   1      24.524 -16.702  -0.781  0.00  0.00     0.107 A 
ATOM      9  C   UNL d   1      23.173 -16.326  -0.824  0.00  0.00     0.040 A 
ATOM     10  C   UNL d   1      22.157 -17.260  -0.564  0.00  0.00     0.003 A 
ATOM     11  C   UNL d   1      22.479 -18.575  -0.231  0.00  0.00     0.003 A 
ATOM     12  C   UNL d   1      23.818 -18.949  -0.145  0.00  0.00     0.045 A 
ATOM     13  C   UNL d   1      24.824 -18.017  -0.412  0.00  0.00     0.149 A 
ATOM     14  F   UNL d   1      26.092 -18.426  -0.260  0.00  0.00    -0.203 F 
ENDBRANCH   7   8
ENDBRANCH   6   7
ENDBRANCH   5   6
ENDBRANCH   2   5
BRANCH   1  15
ATOM     15  N   UNL d   1      28.166 -15.321   1.356  0.00  0.00    -0.249 N 
ATOM     16  C   UNL d   1      27.763 -14.520   2.415  0.00  0.00     0.334 C 
ATOM     17  N   UNL d   1      28.346 -14.817   3.635  0.00  0.00    -0.342 N 
ATOM     18  O   UNL d   1      26.945 -13.608   2.270  0.00  0.00    -0.246 OA
ATOM     19  H   UNL d   1      29.010 -15.575   3.704  0.00  0.00     0.164 HD
ATOM     20  H   UNL d   1      28.834 -16.081   1.441  0.00  0.00     0.192 HD
BRANCH  17  21
ATOM     21  C   UNL d   1      28.018 -14.055   4.848  0.00  0.00     0.124 C 
BRANCH  21  22
ATOM     22  C   UNL d   1      29.226 -13.699   5.727  0.00  0.00     0.015 C 
ATOM     23  C   UNL d   1      28.942 -13.919   7.214  0.00  0.00     0.006 C 
ENDBRANCH  21  22
ENDBRANCH  17  21
ENDBRANCH   1  15
TORSDOF 7
ENDMDL
