MODEL 1
REMARK VINA RESULT:    -8.139      0.000      0.000
REMARK INTER + INTRA:         -10.186
REMARK INTER:                  -9.034
REMARK INTRA:                  -1.152
REMARK CONF_INDEPENDENT:        0.895
REMARK UNBOUND:                -1.152
REMARK  3 active torsions:
REMARK  status: ('A' for Active; 'I' for Inactive)
REMARK       I    between atoms: C_2  and  N_4 
REMARK    1  A    between atoms: N_4  and  C_5 
REMARK    2  A    between atoms: C_7  and  C_8 
REMARK       I    between atoms: C_8  and  N_10 
REMARK    3  A    between atoms: N_10  and  C_11 
ROOT
ATOM      1  C   UNL d   1      25.151 -14.781  -2.993  0.00  0.00     0.256 C 
ATOM      2  O   UNL d   1      24.128 -14.425  -3.587  0.00  0.00    -0.267 OA
ATOM      3  N   UNL d   1      26.430 -14.316  -3.310  0.00  0.00    -0.321 N 
ATOM      4  H   UNL d   1      27.238 -14.876  -3.061  0.00  0.00     0.169 HD
ENDROOT
BRANCH   1   5
ATOM      5  C   UNL d   1      24.996 -15.813  -1.899  0.00  0.00     0.034 A 
ATOM      6  C   UNL d   1      23.703 -16.338  -1.603  0.00  0.00     0.050 A 
ATOM      7  C   UNL d   1      23.503 -17.218  -0.520  0.00  0.00     0.074 A 
ATOM      8  C   UNL d   1      24.625 -17.633   0.207  0.00  0.00     0.143 A 
ATOM      9  C   UNL d   1      25.897 -17.162  -0.094  0.00  0.00     0.046 A 
ATOM     10  F   UNL d   1      24.518 -18.574   1.157  0.00  0.00    -0.204 F 
ATOM     11  C   UNL d   1      26.086 -16.243  -1.131  0.00  0.00     0.020 A 
BRANCH   7  12
ATOM     12  N   UNL d   1      22.204 -17.685  -0.166  0.00  0.00    -0.325 N 
ATOM     13  C   UNL d   1      21.579 -18.698  -0.893  0.00  0.00     0.218 C 
ATOM     14  C   UNL d   1      20.195 -19.076  -0.427  0.00  0.00     0.117 C 
ATOM     15  O   UNL d   1      22.099 -19.323  -1.816  0.00  0.00    -0.274 OA
ATOM     16  H   UNL d   1      21.833 -17.444   0.744  0.00  0.00     0.169 HD
ENDBRANCH   7  12
ENDBRANCH   1   5
BRANCH   3  17
ATOM     17  C   UNL d   1      26.679 -13.445  -4.418  0.00  0.00     0.064 A 
ATOM     18  C   UNL d   1      25.919 -12.281  -4.585  0.00  0.00     0.032 A 
ATOM     19  C   UNL d   1      26.128 -11.449  -5.681  0.00  0.00     0.003 A 
ATOM     20  C   UNL d   1      27.082 -11.789  -6.635  0.00  0.00     0.014 A 
ATOM     21  C   UNL d   1      27.863 -12.944  -6.472  0.00  0.00    -0.005 A 
ATOM     22  C   UNL d   1      28.809 -13.304  -7.442  0.00  0.00     0.015 A 
ATOM     23  C   UNL d   1      27.697 -13.776  -5.334  0.00  0.00     0.093 A 
ATOM     24  C   UNL d   1      29.568 -14.452  -7.270  0.00  0.00     0.020 A 
ATOM     25  C   UNL d   1      29.358 -15.198  -6.125  0.00  0.00     0.117 A 
ATOM     26  N   UNL d   1      28.455 -14.887  -5.163  0.00  0.00    -0.258 NA
ENDBRANCH   3  17
TORSDOF 3
ENDMDL
MODEL 2
REMARK VINA RESULT:    -8.043      0.881      2.333
REMARK INTER + INTRA:          -9.775
REMARK INTER:                  -8.938
REMARK INTRA:                  -0.837
REMARK CONF_INDEPENDENT:        0.895
REMARK UNBOUND:                -0.837
REMARK  3 active torsions:
REMARK  status: ('A' for Active; 'I' for Inactive)
REMARK       I    between atoms: C_2  and  N_4 
REMARK    1  A    between atoms: N_4  and  C_5 
REMARK    2  A    between atoms: C_7  and  C_8 
REMARK       I    between atoms: C_8  and  N_10 
REMARK    3  A    between atoms: N_10  and  C_11 
ROOT
ATOM      1  C   UNL d   1      25.767 -15.226  -3.195  0.00  0.00     0.256 C 
ATOM      2  O   UNL d   1      24.780 -14.826  -3.822  0.00  0.00    -0.267 OA
ATOM      3  N   UNL d   1      27.083 -14.916  -3.545  0.00  0.00    -0.321 N 
ATOM      4  H   UNL d   1      27.835 -15.527  -3.246  0.00  0.00     0.169 HD
ENDROOT
BRANCH   1   5
ATOM      5  C   UNL d   1      25.518 -16.141  -2.017  0.00  0.00     0.034 A 
ATOM      6  C   UNL d   1      24.190 -16.577  -1.732  0.00  0.00     0.050 A 
ATOM      7  C   UNL d   1      23.904 -17.340  -0.582  0.00  0.00     0.074 A 
ATOM      8  C   UNL d   1      24.973 -17.734   0.230  0.00  0.00     0.143 A 
ATOM      9  C   UNL d   1      26.278 -17.351  -0.056  0.00  0.00     0.046 A 
ATOM     10  F   UNL d   1      24.781 -18.574   1.258  0.00  0.00    -0.204 F 
ATOM     11  C   UNL d   1      26.553 -16.545  -1.164  0.00  0.00     0.020 A 
BRANCH   7  12
ATOM     12  N   UNL d   1      22.569 -17.713  -0.244  0.00  0.00    -0.325 N 
ATOM     13  C   UNL d   1      21.879 -18.670  -0.986  0.00  0.00     0.218 C 
ATOM     14  C   UNL d   1      20.466 -18.949  -0.537  0.00  0.00     0.117 C 
ATOM     15  O   UNL d   1      22.361 -19.325  -1.910  0.00  0.00    -0.274 OA
ATOM     16  H   UNL d   1      22.209 -17.452   0.664  0.00  0.00     0.169 HD
ENDBRANCH   7  12
ENDBRANCH   1   5
BRANCH   3  17
ATOM     17  C   UNL d   1      27.411 -14.171  -4.723  0.00  0.00     0.064 A 
ATOM     18  C   UNL d   1      28.173 -14.760  -5.739  0.00  0.00     0.032 A 
ATOM     19  C   UNL d   1      28.530 -14.029  -6.870  0.00  0.00     0.003 A 
ATOM     20  C   UNL d   1      28.148 -12.696  -6.982  0.00  0.00     0.014 A 
ATOM     21  C   UNL d   1      27.368 -12.099  -5.978  0.00  0.00    -0.005 A 
ATOM     22  C   UNL d   1      27.001 -10.750  -6.074  0.00  0.00     0.015 A 
ATOM     23  C   UNL d   1      26.955 -12.844  -4.843  0.00  0.00     0.093 A 
ATOM     24  C   UNL d   1      26.237 -10.173  -5.071  0.00  0.00     0.020 A 
ATOM     25  C   UNL d   1      25.860 -10.970  -4.008  0.00  0.00     0.117 A 
ATOM     26  N   UNL d   1      26.192 -12.278  -3.875  0.00  0.00    -0.258 NA
ENDBRANCH   3  17
TORSDOF 3
ENDMDL
MODEL 3
REMARK VINA RESULT:    -7.444      2.066      2.976
REMARK INTER + INTRA:          -9.355
REMARK INTER:                  -8.339
REMARK INTRA:                  -1.016
REMARK CONF_INDEPENDENT:        0.895
REMARK UNBOUND:                -1.016
REMARK  3 active torsions:
REMARK  status: ('A' for Active; 'I' for Inactive)
REMARK       I    between atoms: C_2  and  N_4 
REMARK    1  A    between atoms: N_4  and  C_5 
REMARK    2  A    between atoms: C_7  and  C_8 
REMARK       I    between atoms: C_8  and  N_10 
REMARK    3  A    between atoms: N_10  and  C_11 
ROOT
ATOM      1  C   UNL d   1      25.353 -14.623  -2.954  0.00  0.00     0.256 C 
ATOM      2  O   UNL d   1      25.163 -14.959  -4.127  0.00  0.00    -0.267 OA
ATOM      3  N   UNL d   1      25.713 -13.330  -2.568  0.00  0.00    -0.321 N 
ATOM      4  H   UNL d   1      26.193 -13.189  -1.686  0.00  0.00     0.169 HD
ENDROOT
BRANCH   1   5
ATOM      5  C   UNL d   1      25.234 -15.697  -1.896  0.00  0.00     0.034 A 
ATOM      6  C   UNL d   1      23.951 -16.236  -1.581  0.00  0.00     0.050 A 
ATOM      7  C   UNL d   1      23.786 -17.158  -0.527  0.00  0.00     0.074 A 
ATOM      8  C   UNL d   1      24.929 -17.598   0.149  0.00  0.00     0.143 A 
ATOM      9  C   UNL d   1      26.191 -17.112  -0.173  0.00  0.00     0.046 A 
ATOM     10  F   UNL d   1      24.852 -18.575   1.065  0.00  0.00    -0.204 F 
ATOM     11  C   UNL d   1      26.347 -16.154  -1.178  0.00  0.00     0.020 A 
BRANCH   7  12
ATOM     12  N   UNL d   1      22.498 -17.641  -0.151  0.00  0.00    -0.325 N 
ATOM     13  C   UNL d   1      21.854 -18.629  -0.895  0.00  0.00     0.218 C 
ATOM     14  C   UNL d   1      20.485 -19.028  -0.402  0.00  0.00     0.117 C 
ATOM     15  O   UNL d   1      22.348 -19.219  -1.855  0.00  0.00    -0.274 OA
ATOM     16  H   UNL d   1      22.154 -17.434   0.778  0.00  0.00     0.169 HD
ENDBRANCH   7  12
ENDBRANCH   1   5
BRANCH   3  17
ATOM     17  C   UNL d   1      25.980 -12.291  -3.516  0.00  0.00     0.064 A 
ATOM     18  C   UNL d   1      25.588 -12.438  -4.852  0.00  0.00     0.032 A 
ATOM     19  C   UNL d   1      25.880 -11.449  -5.788  0.00  0.00     0.003 A 
ATOM     20  C   UNL d   1      26.589 -10.317  -5.401  0.00  0.00     0.014 A 
ATOM     21  C   UNL d   1      26.972 -10.149  -4.061  0.00  0.00    -0.005 A 
ATOM     22  C   UNL d   1      27.708  -9.021  -3.670  0.00  0.00     0.015 A 
ATOM     23  C   UNL d   1      26.639 -11.123  -3.084  0.00  0.00     0.093 A 
ATOM     24  C   UNL d   1      28.085  -8.873  -2.344  0.00  0.00     0.020 A 
ATOM     25  C   UNL d   1      27.707  -9.857  -1.452  0.00  0.00     0.117 A 
ATOM     26  N   UNL d   1      26.996 -10.962  -1.786  0.00  0.00    -0.258 NA
ENDBRANCH   3  17
TORSDOF 3
ENDMDL
MODEL 4
REMARK VINA RESULT:    -7.038      3.433      7.992
REMARK INTER + INTRA:          -8.839
REMARK INTER:                  -7.933
REMARK INTRA:                  -0.906
REMARK CONF_INDEPENDENT:        0.895
REMARK UNBOUND:                -0.906
REMARK  3 active torsions:
REMARK  status: ('A' for Active; 'I' for Inactive)
REMARK       I    between atoms: C_2  and  N_4 
REMARK    1  A    between atoms: N_4  and  C_5 
REMARK    2  A    between atoms: C_7  and  C_8 
REMARK       I    between atoms: C_8  and  N_10 
REMARK    3  A    between atoms: N_10  and  C_11 
ROOT
ATOM      1  C   UNL d   1      26.042 -14.539  -3.162  0.00  0.00     0.256 C 
ATOM      2  O   UNL d   1      25.530 -15.460  -3.807  0.00  0.00    -0.267 OA
ATOM      3  N   UNL d   1      26.569 -14.696  -1.878  0.00  0.00    -0.321 N 
ATOM      4  H   UNL d   1      26.642 -13.889  -1.268  0.00  0.00     0.169 HD
ENDROOT
BRANCH   1   5
ATOM      5  C   UNL d   1      26.044 -13.165  -3.793  0.00  0.00     0.034 A 
ATOM      6  C   UNL d   1      25.784 -12.019  -2.985  0.00  0.00     0.050 A 
ATOM      7  C   UNL d   1      25.669 -10.735  -3.556  0.00  0.00     0.074 A 
ATOM      8  C   UNL d   1      25.905 -10.601  -4.928  0.00  0.00     0.143 A 
ATOM      9  C   UNL d   1      26.199 -11.703  -5.723  0.00  0.00     0.046 A 
ATOM     10  F   UNL d   1      25.948  -9.390  -5.503  0.00  0.00    -0.204 F 
ATOM     11  C   UNL d   1      26.254 -12.984  -5.166  0.00  0.00     0.020 A 
BRANCH   7  12
ATOM     12  N   UNL d   1      25.330  -9.595  -2.770  0.00  0.00    -0.325 N 
ATOM     13  C   UNL d   1      26.313  -8.847  -2.123  0.00  0.00     0.218 C 
ATOM     14  C   UNL d   1      25.812  -7.683  -1.303  0.00  0.00     0.117 C 
ATOM     15  O   UNL d   1      27.524  -9.034  -2.233  0.00  0.00    -0.274 OA
ATOM     16  H   UNL d   1      24.405  -9.196  -2.869  0.00  0.00     0.169 HD
ENDBRANCH   7  12
ENDBRANCH   1   5
BRANCH   3  17
ATOM     17  C   UNL d   1      26.483 -15.929  -1.156  0.00  0.00     0.064 A 
ATOM     18  C   UNL d   1      27.649 -16.610  -0.783  0.00  0.00     0.032 A 
ATOM     19  C   UNL d   1      27.573 -17.829  -0.115  0.00  0.00     0.003 A 
ATOM     20  C   UNL d   1      26.331 -18.391   0.162  0.00  0.00     0.014 A 
ATOM     21  C   UNL d   1      25.155 -17.710  -0.190  0.00  0.00    -0.005 A 
ATOM     22  C   UNL d   1      23.901 -18.283   0.065  0.00  0.00     0.015 A 
ATOM     23  C   UNL d   1      25.214 -16.443  -0.827  0.00  0.00     0.093 A 
ATOM     24  C   UNL d   1      22.748 -17.601  -0.296  0.00  0.00     0.020 A 
ATOM     25  C   UNL d   1      22.891 -16.364  -0.895  0.00  0.00     0.117 A 
ATOM     26  N   UNL d   1      24.082 -15.774  -1.160  0.00  0.00    -0.258 NA
ENDBRANCH   3  17
TORSDOF 3
ENDMDL
MODEL 5
REMARK VINA RESULT:    -6.916      3.051      8.100
REMARK INTER + INTRA:          -8.682
REMARK INTER:                  -7.811
REMARK INTRA:                  -0.871
REMARK CONF_INDEPENDENT:        0.895
REMARK UNBOUND:                -0.871
REMARK  3 active torsions:
REMARK  status: ('A' for Active; 'I' for Inactive)
REMARK       I    between atoms: C_2  and  N_4 
REMARK    1  A    between atoms: N_4  and  C_5 
REMARK    2  A    between atoms: C_7  and  C_8 
REMARK       I    between atoms: C_8  and  N_10 
REMARK    3  A    between atoms: N_10  and  C_11 
ROOT
ATOM      1  C   UNL d   1      25.942 -14.752  -3.118  0.00  0.00     0.256 C 
ATOM      2  O   UNL d   1      25.570 -15.702  -3.816  0.00  0.00    -0.267 OA
ATOM      3  N   UNL d   1      26.307 -14.875  -1.776  0.00  0.00    -0.321 N 
ATOM      4  H   UNL d   1      26.254 -14.064  -1.170  0.00  0.00     0.169 HD
ENDROOT
BRANCH   1   5
ATOM      5  C   UNL d   1      25.946 -13.382  -3.757  0.00  0.00     0.034 A 
ATOM      6  C   UNL d   1      26.425 -13.228  -5.091  0.00  0.00     0.050 A 
ATOM      7  C   UNL d   1      26.547 -11.953  -5.680  0.00  0.00     0.074 A 
ATOM      8  C   UNL d   1      26.102 -10.845  -4.950  0.00  0.00     0.143 A 
ATOM      9  C   UNL d   1      25.596 -10.983  -3.663  0.00  0.00     0.046 A 
ATOM     10  F   UNL d   1      26.063  -9.625  -5.508  0.00  0.00    -0.204 F 
ATOM     11  C   UNL d   1      25.531 -12.241  -3.058  0.00  0.00     0.020 A 
BRANCH   7  12
ATOM     12  N   UNL d   1      27.100 -11.780  -6.983  0.00  0.00    -0.325 N 
ATOM     13  C   UNL d   1      28.154 -12.576  -7.429  0.00  0.00     0.218 C 
ATOM     14  C   UNL d   1      28.661 -12.269  -8.817  0.00  0.00     0.117 C 
ATOM     15  O   UNL d   1      28.633 -13.523  -6.806  0.00  0.00    -0.274 OA
ATOM     16  H   UNL d   1      26.580 -11.241  -7.663  0.00  0.00     0.169 HD
ENDBRANCH   7  12
ENDBRANCH   1   5
BRANCH   3  17
ATOM     17  C   UNL d   1      26.200 -16.110  -1.059  0.00  0.00     0.064 A 
ATOM     18  C   UNL d   1      27.354 -16.794  -0.657  0.00  0.00     0.032 A 
ATOM     19  C   UNL d   1      27.258 -18.015   0.005  0.00  0.00     0.003 A 
ATOM     20  C   UNL d   1      26.008 -18.575   0.248  0.00  0.00     0.014 A 
ATOM     21  C   UNL d   1      24.843 -17.891  -0.134  0.00  0.00    -0.005 A 
ATOM     22  C   UNL d   1      23.581 -18.462   0.086  0.00  0.00     0.015 A 
ATOM     23  C   UNL d   1      24.921 -16.622  -0.765  0.00  0.00     0.093 A 
ATOM     24  C   UNL d   1      22.440 -17.777  -0.303  0.00  0.00     0.020 A 
ATOM     25  C   UNL d   1      22.601 -16.539  -0.895  0.00  0.00     0.117 A 
ATOM     26  N   UNL d   1      23.800 -15.951  -1.127  0.00  0.00    -0.258 NA
ENDBRANCH   3  17
TORSDOF 3
ENDMDL
MODEL 6
REMARK VINA RESULT:    -6.910      3.563      7.862
REMARK INTER + INTRA:          -8.620
REMARK INTER:                  -7.805
REMARK INTRA:                  -0.814
REMARK CONF_INDEPENDENT:        0.895
REMARK UNBOUND:                -0.814
REMARK  3 active torsions:
REMARK  status: ('A' for Active; 'I' for Inactive)
REMARK       I    between atoms: C_2  and  N_4 
REMARK    1  A    between atoms: N_4  and  C_5 
REMARK    2  A    between atoms: C_7  and  C_8 
REMARK       I    between atoms: C_8  and  N_10 
REMARK    3  A    between atoms: N_10  and  C_11 
ROOT
ATOM      1  C   UNL d   1      25.528 -14.244  -3.549  0.00  0.00     0.256 C 
ATOM      2  O   UNL d   1      25.382 -15.165  -4.360  0.00  0.00    -0.267 OA
ATOM      3  N   UNL d   1      25.384 -14.400  -2.168  0.00  0.00    -0.321 N 
ATOM      4  H   UNL d   1      25.160 -13.593  -1.597  0.00  0.00     0.169 HD
ENDROOT
BRANCH   1   5
ATOM      5  C   UNL d   1      25.832 -12.871  -4.104  0.00  0.00     0.034 A 
ATOM      6  C   UNL d   1      25.548 -11.715  -3.317  0.00  0.00     0.050 A 
ATOM      7  C   UNL d   1      25.715 -10.417  -3.841  0.00  0.00     0.074 A 
ATOM      8  C   UNL d   1      26.250 -10.290  -5.128  0.00  0.00     0.143 A 
ATOM      9  C   UNL d   1      26.569 -11.406  -5.892  0.00  0.00     0.046 A 
ATOM     10  F   UNL d   1      26.561  -9.084  -5.626  0.00  0.00    -0.204 F 
ATOM     11  C   UNL d   1      26.348 -12.693  -5.394  0.00  0.00     0.020 A 
BRANCH   7  12
ATOM     12  N   UNL d   1      25.358  -9.257  -3.093  0.00  0.00    -0.325 N 
ATOM     13  C   UNL d   1      26.334  -8.418  -2.557  0.00  0.00     0.218 C 
ATOM     14  C   UNL d   1      25.818  -7.241  -1.764  0.00  0.00     0.117 C 
ATOM     15  O   UNL d   1      27.544  -8.539  -2.742  0.00  0.00    -0.274 OA
ATOM     16  H   UNL d   1      24.406  -8.919  -3.147  0.00  0.00     0.169 HD
ENDBRANCH   7  12
ENDBRANCH   1   5
BRANCH   3  17
ATOM     17  C   UNL d   1      24.963 -15.633  -1.573  0.00  0.00     0.064 A 
ATOM     18  C   UNL d   1      23.604 -15.963  -1.522  0.00  0.00     0.032 A 
ATOM     19  C   UNL d   1      23.184 -17.141  -0.910  0.00  0.00     0.003 A 
ATOM     20  C   UNL d   1      24.118 -17.986  -0.321  0.00  0.00     0.014 A 
ATOM     21  C   UNL d   1      25.486 -17.676  -0.381  0.00  0.00    -0.005 A 
ATOM     22  C   UNL d   1      26.431 -18.511   0.232  0.00  0.00     0.015 A 
ATOM     23  C   UNL d   1      25.935 -16.504  -1.045  0.00  0.00     0.093 A 
ATOM     24  C   UNL d   1      27.778 -18.188   0.170  0.00  0.00     0.020 A 
ATOM     25  C   UNL d   1      28.134 -17.039  -0.511  0.00  0.00     0.117 A 
ATOM     26  N   UNL d   1      27.255 -16.204  -1.117  0.00  0.00    -0.258 NA
ENDBRANCH   3  17
TORSDOF 3
ENDMDL
MODEL 7
REMARK VINA RESULT:    -6.839      3.272      8.001
REMARK INTER + INTRA:          -8.580
REMARK INTER:                  -7.734
REMARK INTRA:                  -0.846
REMARK CONF_INDEPENDENT:        0.895
REMARK UNBOUND:                -0.846
REMARK  3 active torsions:
REMARK  status: ('A' for Active; 'I' for Inactive)
REMARK       I    between atoms: C_2  and  N_4 
REMARK    1  A    between atoms: N_4  and  C_5 
REMARK    2  A    between atoms: C_7  and  C_8 
REMARK       I    between atoms: C_8  and  N_10 
REMARK    3  A    between atoms: N_10  and  C_11 
ROOT
ATOM      1  C   UNL d   1      25.623 -14.385  -4.077  0.00  0.00     0.256 C 
ATOM      2  O   UNL d   1      24.405 -14.317  -4.274  0.00  0.00    -0.267 OA
ATOM      3  N   UNL d   1      26.201 -15.153  -3.063  0.00  0.00    -0.321 N 
ATOM      4  H   UNL d   1      27.122 -14.909  -2.718  0.00  0.00     0.169 HD
ENDROOT
BRANCH   1   5
ATOM      5  C   UNL d   1      26.518 -13.545  -4.960  0.00  0.00     0.034 A 
ATOM      6  C   UNL d   1      27.489 -14.182  -5.787  0.00  0.00     0.050 A 
ATOM      7  C   UNL d   1      28.413 -13.429  -6.540  0.00  0.00     0.074 A 
ATOM      8  C   UNL d   1      28.295 -12.035  -6.523  0.00  0.00     0.143 A 
ATOM      9  C   UNL d   1      27.328 -11.400  -5.753  0.00  0.00     0.046 A 
ATOM     10  F   UNL d   1      29.053 -11.271  -7.325  0.00  0.00    -0.204 F 
ATOM     11  C   UNL d   1      26.451 -12.146  -4.961  0.00  0.00     0.020 A 
BRANCH   7  12
ATOM     12  N   UNL d   1      29.440 -14.054  -7.307  0.00  0.00    -0.325 N 
ATOM     13  C   UNL d   1      30.630 -14.471  -6.712  0.00  0.00     0.218 C 
ATOM     14  C   UNL d   1      31.641 -15.093  -7.644  0.00  0.00     0.117 C 
ATOM     15  O   UNL d   1      30.867 -14.425  -5.506  0.00  0.00    -0.274 OA
ATOM     16  H   UNL d   1      29.212 -14.401  -8.230  0.00  0.00     0.169 HD
ENDBRANCH   7  12
ENDBRANCH   1   5
BRANCH   3  17
ATOM     17  C   UNL d   1      25.419 -15.868  -2.099  0.00  0.00     0.064 A 
ATOM     18  C   UNL d   1      24.037 -15.660  -2.020  0.00  0.00     0.032 A 
ATOM     19  C   UNL d   1      23.276 -16.322  -1.059  0.00  0.00     0.003 A 
ATOM     20  C   UNL d   1      23.896 -17.176  -0.153  0.00  0.00     0.014 A 
ATOM     21  C   UNL d   1      25.278 -17.406  -0.233  0.00  0.00    -0.005 A 
ATOM     22  C   UNL d   1      25.912 -18.247   0.693  0.00  0.00     0.015 A 
ATOM     23  C   UNL d   1      26.060 -16.779  -1.238  0.00  0.00     0.093 A 
ATOM     24  C   UNL d   1      27.280 -18.458   0.605  0.00  0.00     0.020 A 
ATOM     25  C   UNL d   1      27.966 -17.825  -0.413  0.00  0.00     0.117 A 
ATOM     26  N   UNL d   1      27.394 -17.005  -1.328  0.00  0.00    -0.258 NA
ENDBRANCH   3  17
TORSDOF 3
ENDMDL
MODEL 8
REMARK VINA RESULT:    -6.591      3.290      8.086
REMARK INTER + INTRA:          -8.616
REMARK INTER:                  -7.486
REMARK INTRA:                  -1.130
REMARK CONF_INDEPENDENT:        0.895
REMARK UNBOUND:                -1.130
REMARK  3 active torsions:
REMARK  status: ('A' for Active; 'I' for Inactive)
REMARK       I    between atoms: C_2  and  N_4 
REMARK    1  A    between atoms: N_4  and  C_5 
REMARK    2  A    between atoms: C_7  and  C_8 
REMARK       I    between atoms: C_8  and  N_10 
REMARK    3  A    between atoms: N_10  and  C_11 
ROOT
ATOM      1  C   UNL d   1      27.573 -15.402  -3.196  0.00  0.00     0.256 C 
ATOM      2  O   UNL d   1      28.490 -16.230  -3.218  0.00  0.00    -0.267 OA
ATOM      3  N   UNL d   1      26.538 -15.419  -2.259  0.00  0.00    -0.321 N 
ATOM      4  H   UNL d   1      25.656 -14.972  -2.484  0.00  0.00     0.169 HD
ENDROOT
BRANCH   1   5
ATOM      5  C   UNL d   1      27.562 -14.350  -4.282  0.00  0.00     0.034 A 
ATOM      6  C   UNL d   1      26.714 -13.210  -4.149  0.00  0.00     0.050 A 
ATOM      7  C   UNL d   1      26.595 -12.265  -5.189  0.00  0.00     0.074 A 
ATOM      8  C   UNL d   1      27.398 -12.428  -6.323  0.00  0.00     0.143 A 
ATOM      9  C   UNL d   1      28.259 -13.512  -6.450  0.00  0.00     0.046 A 
ATOM     10  F   UNL d   1      27.432 -11.490  -7.281  0.00  0.00    -0.204 F 
ATOM     11  C   UNL d   1      28.333 -14.480  -5.444  0.00  0.00     0.020 A 
BRANCH   7  12
ATOM     12  N   UNL d   1      25.690 -11.166  -5.100  0.00  0.00    -0.325 N 
ATOM     13  C   UNL d   1      26.130  -9.900  -4.718  0.00  0.00     0.218 C 
ATOM     14  C   UNL d   1      25.064  -8.835  -4.639  0.00  0.00     0.117 C 
ATOM     15  O   UNL d   1      27.305  -9.596  -4.514  0.00  0.00    -0.274 OA
ATOM     16  H   UNL d   1      24.780 -11.252  -5.534  0.00  0.00     0.169 HD
ENDBRANCH   7  12
ENDBRANCH   1   5
BRANCH   3  17
ATOM     17  C   UNL d   1      26.399 -16.459  -1.284  0.00  0.00     0.064 A 
ATOM     18  C   UNL d   1      27.533 -17.099  -0.771  0.00  0.00     0.032 A 
ATOM     19  C   UNL d   1      27.405 -18.138   0.147  0.00  0.00     0.003 A 
ATOM     20  C   UNL d   1      26.140 -18.563   0.540  0.00  0.00     0.014 A 
ATOM     21  C   UNL d   1      24.995 -17.917   0.047  0.00  0.00    -0.005 A 
ATOM     22  C   UNL d   1      23.717 -18.356   0.420  0.00  0.00     0.015 A 
ATOM     23  C   UNL d   1      25.109 -16.824  -0.851  0.00  0.00     0.093 A 
ATOM     24  C   UNL d   1      22.595 -17.713  -0.081  0.00  0.00     0.020 A 
ATOM     25  C   UNL d   1      22.792 -16.645  -0.936  0.00  0.00     0.117 A 
ATOM     26  N   UNL d   1      24.009 -16.188  -1.323  0.00  0.00    -0.258 NA
ENDBRANCH   3  17
TORSDOF 3
ENDMDL
MODEL 9
REMARK VINA RESULT:    -6.515      2.294      3.705
REMARK INTER + INTRA:          -8.418
REMARK INTER:                  -7.410
REMARK INTRA:                  -1.009
REMARK CONF_INDEPENDENT:        0.895
REMARK UNBOUND:                -1.009
REMARK  3 active torsions:
REMARK  status: ('A' for Active; 'I' for Inactive)
REMARK       I    between atoms: C_2  and  N_4 
REMARK    1  A    between atoms: N_4  and  C_5 
REMARK    2  A    between atoms: C_7  and  C_8 
REMARK       I    between atoms: C_8  and  N_10 
REMARK    3  A    between atoms: N_10  and  C_11 
ROOT
ATOM      1  C   UNL d   1      25.581 -14.491  -3.209  0.00  0.00     0.256 C 
ATOM      2  O   UNL d   1      24.533 -14.439  -3.861  0.00  0.00    -0.267 OA
ATOM      3  N   UNL d   1      26.659 -13.625  -3.408  0.00  0.00    -0.321 N 
ATOM      4  H   UNL d   1      27.589 -13.915  -3.125  0.00  0.00     0.169 HD
ENDROOT
BRANCH   1   5
ATOM      5  C   UNL d   1      25.705 -15.590  -2.178  0.00  0.00     0.034 A 
ATOM      6  C   UNL d   1      26.994 -15.956  -1.689  0.00  0.00     0.050 A 
ATOM      7  C   UNL d   1      27.159 -17.047  -0.811  0.00  0.00     0.074 A 
ATOM      8  C   UNL d   1      26.012 -17.710  -0.362  0.00  0.00     0.143 A 
ATOM      9  C   UNL d   1      24.745 -17.340  -0.798  0.00  0.00     0.046 A 
ATOM     10  F   UNL d   1      26.093 -18.663   0.579  0.00  0.00    -0.204 F 
ATOM     11  C   UNL d   1      24.587 -16.297  -1.714  0.00  0.00     0.020 A 
BRANCH   7  12
ATOM     12  N   UNL d   1      28.450 -17.472  -0.381  0.00  0.00    -0.325 N 
ATOM     13  C   UNL d   1      29.555 -17.390  -1.227  0.00  0.00     0.218 C 
ATOM     14  C   UNL d   1      30.855 -17.899  -0.654  0.00  0.00     0.117 C 
ATOM     15  O   UNL d   1      29.545 -16.885  -2.349  0.00  0.00    -0.274 OA
ATOM     16  H   UNL d   1      28.608 -17.615   0.608  0.00  0.00     0.169 HD
ENDBRANCH   7  12
ENDBRANCH   1   5
BRANCH   3  17
ATOM     17  C   UNL d   1      26.678 -12.648  -4.453  0.00  0.00     0.064 A 
ATOM     18  C   UNL d   1      25.906 -11.485  -4.345  0.00  0.00     0.032 A 
ATOM     19  C   UNL d   1      25.887 -10.548  -5.375  0.00  0.00     0.003 A 
ATOM     20  C   UNL d   1      26.621 -10.779  -6.533  0.00  0.00     0.014 A 
ATOM     21  C   UNL d   1      27.413 -11.933  -6.648  0.00  0.00    -0.005 A 
ATOM     22  C   UNL d   1      28.136 -12.183  -7.823  0.00  0.00     0.015 A 
ATOM     23  C   UNL d   1      27.482 -12.873  -5.587  0.00  0.00     0.093 A 
ATOM     24  C   UNL d   1      28.908 -13.330  -7.924  0.00  0.00     0.020 A 
ATOM     25  C   UNL d   1      28.936 -14.186  -6.840  0.00  0.00     0.117 A 
ATOM     26  N   UNL d   1      28.254 -13.984  -5.686  0.00  0.00    -0.258 NA
ENDBRANCH   3  17
TORSDOF 3
ENDMDL
