MODEL 1
REMARK VINA RESULT:   -10.080      0.000      0.000
REMARK INTER + INTRA:         -12.841
REMARK INTER:                 -11.571
REMARK INTRA:                  -1.269
REMARK CONF_INDEPENDENT:        1.492
REMARK UNBOUND:                -1.269
REMARK  5 active torsions:
REMARK  status: ('A' for Active; 'I' for Inactive)
REMARK    1  A    between atoms: C_2  and  C_3 
REMARK    2  A    between atoms: C_12  and  C_13 
REMARK       I    between atoms: C_13  and  N_15 
REMARK    3  A    between atoms: N_15  and  C_16 
REMARK    4  A    between atoms: C_19  and  S_20 
REMARK    5  A    between atoms: S_20  and  N_23 
ROOT
ATOM      1  C   UNL d   1      31.918 -13.851  -5.091  0.00  0.00    -0.031 A 
ATOM      2  C   UNL d   1      33.029 -13.019  -5.157  0.00  0.00     0.009 A 
ATOM      3  C   UNL d   1      33.743 -12.740  -3.991  0.00  0.00     0.002 A 
ATOM      4  C   UNL d   1      33.347 -13.275  -2.746  0.00  0.00     0.014 A 
ATOM      5  C   UNL d   1      32.183 -14.066  -2.623  0.00  0.00    -0.008 A 
ATOM      6  C   UNL d   1      31.634 -14.589  -1.393  0.00  0.00     0.030 C 
ATOM      7  C   UNL d   1      30.336 -15.190  -1.392  0.00  0.00     0.026 A 
ATOM      8  C   UNL d   1      29.357 -15.658  -0.414  0.00  0.00     0.061 A 
ATOM      9  N   UNL d   1      29.574 -15.588   0.916  0.00  0.00    -0.397 N 
ATOM     10  C   UNL d   1      28.180 -16.122  -1.007  0.00  0.00     0.102 A 
ATOM     11  S   UNL d   1      28.287 -16.050  -2.723  0.00  0.00    -0.064 SA
ATOM     12  C   UNL d   1      29.799 -15.381  -2.639  0.00  0.00     0.088 A 
ATOM     13  N   UNL d   1      30.382 -15.039  -3.786  0.00  0.00    -0.349 N 
ATOM     14  C   UNL d   1      31.498 -14.327  -3.829  0.00  0.00     0.049 A 
ATOM     15  H   UNL d   1      30.453 -15.280   1.327  0.00  0.00     0.156 HD
ATOM     16  H   UNL d   1      28.970 -15.965   1.635  0.00  0.00     0.156 HD
ATOM     17  H   UNL d   1      29.859 -15.289  -4.616  0.00  0.00     0.166 HD
ENDROOT
BRANCH  10  18
ATOM     18  C   UNL d   1      26.899 -16.658  -0.567  0.00  0.00     0.265 C 
ATOM     19  O   UNL d   1      26.744 -17.050   0.592  0.00  0.00    -0.267 OA
ATOM     20  N   UNL d   1      25.888 -16.754  -1.503  0.00  0.00    -0.322 N 
ATOM     21  H   UNL d   1      26.134 -16.790  -2.474  0.00  0.00     0.169 HD
BRANCH  20  22
ATOM     22  C   UNL d   1      24.616 -17.227  -1.139  0.00  0.00     0.035 C 
ATOM     23  C   UNL d   1      24.434 -18.534  -0.685  0.00  0.00     0.031 C 
ATOM     24  C   UNL d   1      23.158 -19.092  -0.614  0.00  0.00     0.027 C 
ATOM     25  C   UNL d   1      22.056 -18.259  -0.742  0.00  0.00     0.079 C 
ATOM     26  C   UNL d   1      22.276 -16.890  -0.835  0.00  0.00     0.027 C 
ATOM     27  C   UNL d   1      23.525 -16.387  -1.214  0.00  0.00     0.031 C 
BRANCH  25  28
ATOM     28  S   UNL d   1      20.417 -18.975  -0.919  0.00  0.00     0.260 S 
ATOM     29  O   UNL d   1      19.497 -17.839  -0.849  0.00  0.00    -0.200 OA
ATOM     30  O   UNL d   1      20.453 -19.828  -2.069  0.00  0.00    -0.200 OA
BRANCH  28  31
ATOM     31  N   UNL d   1      20.112 -19.866   0.503  0.00  0.00    -0.307 N 
ATOM     32  C   UNL d   1      19.519 -21.201   0.293  0.00  0.00     0.135 C 
ATOM     33  C   UNL d   1      18.139 -21.106   0.907  0.00  0.00     0.022 C 
ATOM     34  C   UNL d   1      18.334 -20.178   2.096  0.00  0.00     0.022 C 
ATOM     35  C   UNL d   1      19.585 -19.327   1.781  0.00  0.00     0.135 C 
ENDBRANCH  28  31
ENDBRANCH  25  28
ENDBRANCH  20  22
ENDBRANCH  10  18
BRANCH   1  36
ATOM     36  C   UNL d   1      31.198 -14.281  -6.352  0.00  0.00     0.036 C 
ATOM     37  C   UNL d   1      31.563 -15.729  -6.684  0.00  0.00     0.010 C 
ENDBRANCH   1  36
TORSDOF 5
ENDMDL
MODEL 2
REMARK VINA RESULT:    -9.744      3.342      3.806
REMARK INTER + INTRA:         -12.352
REMARK INTER:                 -11.235
REMARK INTRA:                  -1.117
REMARK CONF_INDEPENDENT:        1.492
REMARK UNBOUND:                -1.117
REMARK  5 active torsions:
REMARK  status: ('A' for Active; 'I' for Inactive)
REMARK    1  A    between atoms: C_2  and  C_3 
REMARK    2  A    between atoms: C_12  and  C_13 
REMARK       I    between atoms: C_13  and  N_15 
REMARK    3  A    between atoms: N_15  and  C_16 
REMARK    4  A    between atoms: C_19  and  S_20 
REMARK    5  A    between atoms: S_20  and  N_23 
ROOT
ATOM      1  C   UNL d   1      33.450 -16.073   1.321  0.00  0.00    -0.031 A 
ATOM      2  C   UNL d   1      34.608 -15.323   1.492  0.00  0.00     0.009 A 
ATOM      3  C   UNL d   1      34.507 -13.943   1.668  0.00  0.00     0.002 A 
ATOM      4  C   UNL d   1      33.254 -13.294   1.661  0.00  0.00     0.014 A 
ATOM      5  C   UNL d   1      32.058 -14.008   1.419  0.00  0.00    -0.008 A 
ATOM      6  C   UNL d   1      30.736 -13.440   1.298  0.00  0.00     0.030 C 
ATOM      7  C   UNL d   1      29.651 -14.252   0.839  0.00  0.00     0.026 A 
ATOM      8  C   UNL d   1      28.267 -14.072   0.409  0.00  0.00     0.061 A 
ATOM      9  N   UNL d   1      27.671 -12.861   0.379  0.00  0.00    -0.397 N 
ATOM     10  C   UNL d   1      27.671 -15.265  -0.008  0.00  0.00     0.102 A 
ATOM     11  S   UNL d   1      28.753 -16.590   0.179  0.00  0.00    -0.064 SA
ATOM     12  C   UNL d   1      29.949 -15.585   0.729  0.00  0.00     0.088 A 
ATOM     13  N   UNL d   1      31.134 -16.131   0.994  0.00  0.00    -0.349 N 
ATOM     14  C   UNL d   1      32.208 -15.402   1.253  0.00  0.00     0.049 A 
ATOM     15  H   UNL d   1      28.110 -12.009   0.721  0.00  0.00     0.156 HD
ATOM     16  H   UNL d   1      26.697 -12.686   0.166  0.00  0.00     0.156 HD
ATOM     17  H   UNL d   1      31.166 -17.138   0.895  0.00  0.00     0.166 HD
ENDROOT
BRANCH  10  18
ATOM     18  C   UNL d   1      26.385 -15.689  -0.545  0.00  0.00     0.265 C 
ATOM     19  O   UNL d   1      25.863 -15.084  -1.483  0.00  0.00    -0.267 OA
ATOM     20  N   UNL d   1      25.756 -16.758   0.065  0.00  0.00    -0.322 N 
ATOM     21  H   UNL d   1      25.996 -16.979   1.012  0.00  0.00     0.169 HD
BRANCH  20  22
ATOM     22  C   UNL d   1      24.532 -17.242  -0.424  0.00  0.00     0.035 C 
ATOM     23  C   UNL d   1      23.433 -16.397  -0.589  0.00  0.00     0.031 C 
ATOM     24  C   UNL d   1      22.155 -16.921  -0.779  0.00  0.00     0.027 C 
ATOM     25  C   UNL d   1      22.021 -18.270  -1.070  0.00  0.00     0.079 C 
ATOM     26  C   UNL d   1      23.177 -19.018  -1.255  0.00  0.00     0.027 C 
ATOM     27  C   UNL d   1      24.409 -18.574  -0.765  0.00  0.00     0.031 C 
BRANCH  25  28
ATOM     28  S   UNL d   1      20.389 -19.024  -1.059  0.00  0.00     0.260 S 
ATOM     29  O   UNL d   1      19.457 -17.909  -0.895  0.00  0.00    -0.200 OA
ATOM     30  O   UNL d   1      20.317 -19.886  -2.201  0.00  0.00    -0.200 OA
BRANCH  28  31
ATOM     31  N   UNL d   1      20.264 -19.910   0.393  0.00  0.00    -0.307 N 
ATOM     32  C   UNL d   1      19.513 -21.176   0.295  0.00  0.00     0.135 C 
ATOM     33  C   UNL d   1      18.286 -20.958   1.154  0.00  0.00     0.022 C 
ATOM     34  C   UNL d   1      18.789 -20.078   2.288  0.00  0.00     0.022 C 
ATOM     35  C   UNL d   1      20.038 -19.347   1.747  0.00  0.00     0.135 C 
ENDBRANCH  28  31
ENDBRANCH  25  28
ENDBRANCH  20  22
ENDBRANCH  10  18
BRANCH   1  36
ATOM     36  C   UNL d   1      33.509 -17.584   1.258  0.00  0.00     0.036 C 
ATOM     37  C   UNL d   1      32.780 -18.178   2.464  0.00  0.00     0.010 C 
ENDBRANCH   1  36
TORSDOF 5
ENDMDL
MODEL 3
REMARK VINA RESULT:    -9.254      6.651      9.051
REMARK INTER + INTRA:         -11.807
REMARK INTER:                 -10.745
REMARK INTRA:                  -1.062
REMARK CONF_INDEPENDENT:        1.492
REMARK UNBOUND:                -1.062
REMARK  5 active torsions:
REMARK  status: ('A' for Active; 'I' for Inactive)
REMARK    1  A    between atoms: C_2  and  C_3 
REMARK    2  A    between atoms: C_12  and  C_13 
REMARK       I    between atoms: C_13  and  N_15 
REMARK    3  A    between atoms: N_15  and  C_16 
REMARK    4  A    between atoms: C_19  and  S_20 
REMARK    5  A    between atoms: S_20  and  N_23 
ROOT
ATOM      1  C   UNL d   1      31.364 -14.635   9.958  0.00  0.00    -0.031 A 
ATOM      2  C   UNL d   1      32.488 -14.254  10.681  0.00  0.00     0.009 A 
ATOM      3  C   UNL d   1      33.211 -13.132  10.276  0.00  0.00     0.002 A 
ATOM      4  C   UNL d   1      32.830 -12.387   9.139  0.00  0.00     0.014 A 
ATOM      5  C   UNL d   1      31.736 -12.782   8.335  0.00  0.00    -0.008 A 
ATOM      6  C   UNL d   1      31.313 -12.153   7.105  0.00  0.00     0.030 C 
ATOM      7  C   UNL d   1      30.326 -12.787   6.286  0.00  0.00     0.026 A 
ATOM      8  C   UNL d   1      29.760 -12.627   4.948  0.00  0.00     0.061 A 
ATOM      9  N   UNL d   1      30.158 -11.649   4.108  0.00  0.00    -0.397 N 
ATOM     10  C   UNL d   1      28.824 -13.616   4.636  0.00  0.00     0.102 A 
ATOM     11  S   UNL d   1      28.591 -14.683   5.965  0.00  0.00    -0.064 SA
ATOM     12  C   UNL d   1      29.727 -13.878   6.861  0.00  0.00     0.088 A 
ATOM     13  N   UNL d   1      30.012 -14.362   8.068  0.00  0.00    -0.349 N 
ATOM     14  C   UNL d   1      31.032 -13.918   8.787  0.00  0.00     0.049 A 
ATOM     15  H   UNL d   1      30.814 -10.916   4.368  0.00  0.00     0.156 HD
ATOM     16  H   UNL d   1      29.749 -11.442   3.205  0.00  0.00     0.156 HD
ATOM     17  H   UNL d   1      29.445 -15.152   8.350  0.00  0.00     0.166 HD
ENDROOT
BRANCH  10  18
ATOM     18  C   UNL d   1      27.989 -13.979   3.498  0.00  0.00     0.265 C 
ATOM     19  O   UNL d   1      26.791 -13.690   3.478  0.00  0.00    -0.267 OA
ATOM     20  N   UNL d   1      28.577 -14.696   2.474  0.00  0.00    -0.322 N 
ATOM     21  H   UNL d   1      29.405 -15.225   2.671  0.00  0.00     0.169 HD
BRANCH  20  22
ATOM     22  C   UNL d   1      27.841 -15.046   1.330  0.00  0.00     0.035 C 
ATOM     23  C   UNL d   1      27.246 -14.072   0.526  0.00  0.00     0.031 C 
ATOM     24  C   UNL d   1      26.280 -14.420  -0.416  0.00  0.00     0.027 C 
ATOM     25  C   UNL d   1      26.107 -15.759  -0.735  0.00  0.00     0.079 C 
ATOM     26  C   UNL d   1      26.977 -16.684  -0.170  0.00  0.00     0.027 C 
ATOM     27  C   UNL d   1      27.711 -16.374   0.979  0.00  0.00     0.031 C 
BRANCH  25  28
ATOM     28  S   UNL d   1      24.703 -16.260  -1.739  0.00  0.00     0.260 S 
ATOM     29  O   UNL d   1      24.004 -15.017  -2.061  0.00  0.00    -0.200 OA
ATOM     30  O   UNL d   1      25.209 -17.114  -2.772  0.00  0.00    -0.200 OA
BRANCH  28  31
ATOM     31  N   UNL d   1      23.635 -17.103  -0.709  0.00  0.00    -0.307 N 
ATOM     32  C   UNL d   1      24.006 -18.502  -0.428  0.00  0.00     0.135 C 
ATOM     33  C   UNL d   1      22.907 -19.323  -1.066  0.00  0.00     0.022 C 
ATOM     34  C   UNL d   1      21.662 -18.470  -0.877  0.00  0.00     0.022 C 
ATOM     35  C   UNL d   1      22.155 -17.015  -0.719  0.00  0.00     0.135 C 
ENDBRANCH  28  31
ENDBRANCH  25  28
ENDBRANCH  20  22
ENDBRANCH  10  18
BRANCH   1  36
ATOM     36  C   UNL d   1      30.481 -15.766  10.441  0.00  0.00     0.036 C 
ATOM     37  C   UNL d   1      29.285 -15.195  11.205  0.00  0.00     0.010 C 
ENDBRANCH   1  36
TORSDOF 5
ENDMDL
MODEL 4
REMARK VINA RESULT:    -8.893      7.112     10.314
REMARK INTER + INTRA:         -11.536
REMARK INTER:                 -10.385
REMARK INTRA:                  -1.152
REMARK CONF_INDEPENDENT:        1.492
REMARK UNBOUND:                -1.152
REMARK  5 active torsions:
REMARK  status: ('A' for Active; 'I' for Inactive)
REMARK    1  A    between atoms: C_2  and  C_3 
REMARK    2  A    between atoms: C_12  and  C_13 
REMARK       I    between atoms: C_13  and  N_15 
REMARK    3  A    between atoms: N_15  and  C_16 
REMARK    4  A    between atoms: C_19  and  S_20 
REMARK    5  A    between atoms: S_20  and  N_23 
ROOT
ATOM      1  C   UNL d   1      30.571 -14.211  10.067  0.00  0.00    -0.031 A 
ATOM      2  C   UNL d   1      31.095 -13.497  11.138  0.00  0.00     0.009 A 
ATOM      3  C   UNL d   1      30.781 -12.145  11.275  0.00  0.00     0.002 A 
ATOM      4  C   UNL d   1      29.955 -11.487  10.339  0.00  0.00     0.014 A 
ATOM      5  C   UNL d   1      29.460 -12.157   9.198  0.00  0.00    -0.008 A 
ATOM      6  C   UNL d   1      28.685 -11.566   8.131  0.00  0.00     0.030 C 
ATOM      7  C   UNL d   1      28.436 -12.310   6.935  0.00  0.00     0.026 A 
ATOM      8  C   UNL d   1      27.896 -12.070   5.599  0.00  0.00     0.061 A 
ATOM      9  N   UNL d   1      27.450 -10.857   5.208  0.00  0.00    -0.397 N 
ATOM     10  C   UNL d   1      27.950 -13.202   4.783  0.00  0.00     0.102 A 
ATOM     11  S   UNL d   1      28.585 -14.550   5.643  0.00  0.00    -0.064 SA
ATOM     12  C   UNL d   1      28.817 -13.626   6.997  0.00  0.00     0.088 A 
ATOM     13  N   UNL d   1      29.391 -14.210   8.047  0.00  0.00    -0.349 N 
ATOM     14  C   UNL d   1      29.797 -13.524   9.104  0.00  0.00     0.049 A 
ATOM     15  H   UNL d   1      27.385 -10.054   5.829  0.00  0.00     0.156 HD
ATOM     16  H   UNL d   1      26.996 -10.650   4.327  0.00  0.00     0.156 HD
ATOM     17  H   UNL d   1      29.572 -15.200   7.933  0.00  0.00     0.166 HD
ENDROOT
BRANCH  10  18
ATOM     18  C   UNL d   1      27.604 -13.550   3.411  0.00  0.00     0.265 C 
ATOM     19  O   UNL d   1      26.655 -13.006   2.843  0.00  0.00    -0.267 OA
ATOM     20  N   UNL d   1      28.345 -14.540   2.794  0.00  0.00    -0.322 N 
ATOM     21  H   UNL d   1      28.832 -15.202   3.366  0.00  0.00     0.169 HD
BRANCH  20  22
ATOM     22  C   UNL d   1      28.090 -14.899   1.460  0.00  0.00     0.035 C 
ATOM     23  C   UNL d   1      28.531 -14.105   0.400  0.00  0.00     0.031 C 
ATOM     24  C   UNL d   1      28.029 -14.293  -0.886  0.00  0.00     0.027 C 
ATOM     25  C   UNL d   1      27.293 -15.437  -1.158  0.00  0.00     0.079 C 
ATOM     26  C   UNL d   1      27.177 -16.394  -0.157  0.00  0.00     0.027 C 
ATOM     27  C   UNL d   1      27.405 -16.064   1.183  0.00  0.00     0.031 C 
BRANCH  25  28
ATOM     28  S   UNL d   1      26.415 -15.580  -2.720  0.00  0.00     0.260 S 
ATOM     29  O   UNL d   1      27.457 -15.544  -3.746  0.00  0.00    -0.200 OA
ATOM     30  O   UNL d   1      25.530 -16.700  -2.603  0.00  0.00    -0.200 OA
BRANCH  28  31
ATOM     31  N   UNL d   1      25.548 -14.126  -2.933  0.00  0.00    -0.307 N 
ATOM     32  C   UNL d   1      24.875 -13.982  -4.237  0.00  0.00     0.135 C 
ATOM     33  C   UNL d   1      25.586 -12.825  -4.906  0.00  0.00     0.022 C 
ATOM     34  C   UNL d   1      25.931 -11.896  -3.753  0.00  0.00     0.022 C 
ATOM     35  C   UNL d   1      25.973 -12.778  -2.485  0.00  0.00     0.135 C 
ENDBRANCH  28  31
ENDBRANCH  25  28
ENDBRANCH  20  22
ENDBRANCH  10  18
BRANCH   1  36
ATOM     36  C   UNL d   1      30.781 -15.706   9.958  0.00  0.00     0.036 C 
ATOM     37  C   UNL d   1      30.955 -16.305  11.354  0.00  0.00     0.010 C 
ENDBRANCH   1  36
TORSDOF 5
ENDMDL
MODEL 5
REMARK VINA RESULT:    -8.846      7.254     10.036
REMARK INTER + INTRA:         -11.521
REMARK INTER:                 -10.338
REMARK INTRA:                  -1.183
REMARK CONF_INDEPENDENT:        1.492
REMARK UNBOUND:                -1.183
REMARK  5 active torsions:
REMARK  status: ('A' for Active; 'I' for Inactive)
REMARK    1  A    between atoms: C_2  and  C_3 
REMARK    2  A    between atoms: C_12  and  C_13 
REMARK       I    between atoms: C_13  and  N_15 
REMARK    3  A    between atoms: N_15  and  C_16 
REMARK    4  A    between atoms: C_19  and  S_20 
REMARK    5  A    between atoms: S_20  and  N_23 
ROOT
ATOM      1  C   UNL d   1      30.836 -14.493  10.528  0.00  0.00    -0.031 A 
ATOM      2  C   UNL d   1      31.500 -13.823  11.549  0.00  0.00     0.009 A 
ATOM      3  C   UNL d   1      31.334 -12.444  11.679  0.00  0.00     0.002 A 
ATOM      4  C   UNL d   1      30.519 -11.717  10.786  0.00  0.00     0.014 A 
ATOM      5  C   UNL d   1      29.883 -12.348   9.693  0.00  0.00    -0.008 A 
ATOM      6  C   UNL d   1      29.103 -11.694   8.668  0.00  0.00     0.030 C 
ATOM      7  C   UNL d   1      28.701 -12.424   7.505  0.00  0.00     0.026 A 
ATOM      8  C   UNL d   1      28.100 -12.147   6.203  0.00  0.00     0.061 A 
ATOM      9  N   UNL d   1      27.754 -10.900   5.818  0.00  0.00    -0.397 N 
ATOM     10  C   UNL d   1      27.984 -13.289   5.406  0.00  0.00     0.102 A 
ATOM     11  S   UNL d   1      28.536 -14.684   6.249  0.00  0.00    -0.064 SA
ATOM     12  C   UNL d   1      28.950 -13.771   7.568  0.00  0.00     0.088 A 
ATOM     13  N   UNL d   1      29.531 -14.397   8.589  0.00  0.00    -0.349 N 
ATOM     14  C   UNL d   1      30.073 -13.743   9.604  0.00  0.00     0.049 A 
ATOM     15  H   UNL d   1      27.813 -10.087   6.426  0.00  0.00     0.156 HD
ATOM     16  H   UNL d   1      27.266 -10.659   4.964  0.00  0.00     0.156 HD
ATOM     17  H   UNL d   1      29.602 -15.402   8.483  0.00  0.00     0.166 HD
ENDROOT
BRANCH  10  18
ATOM     18  C   UNL d   1      27.514 -13.617   4.067  0.00  0.00     0.265 C 
ATOM     19  O   UNL d   1      26.309 -13.696   3.824  0.00  0.00    -0.267 OA
ATOM     20  N   UNL d   1      28.465 -13.881   3.100  0.00  0.00    -0.322 N 
ATOM     21  H   UNL d   1      29.378 -14.174   3.392  0.00  0.00     0.169 HD
BRANCH  20  22
ATOM     22  C   UNL d   1      28.084 -14.168   1.779  0.00  0.00     0.035 C 
ATOM     23  C   UNL d   1      27.133 -13.390   1.116  0.00  0.00     0.031 C 
ATOM     24  C   UNL d   1      26.539 -13.842  -0.061  0.00  0.00     0.027 C 
ATOM     25  C   UNL d   1      27.087 -14.940  -0.709  0.00  0.00     0.079 C 
ATOM     26  C   UNL d   1      28.266 -15.476  -0.205  0.00  0.00     0.027 C 
ATOM     27  C   UNL d   1      28.665 -15.226   1.112  0.00  0.00     0.031 C 
BRANCH  25  28
ATOM     28  S   UNL d   1      26.198 -15.704  -2.071  0.00  0.00     0.260 S 
ATOM     29  O   UNL d   1      24.993 -14.892  -2.241  0.00  0.00    -0.200 OA
ATOM     30  O   UNL d   1      27.134 -15.872  -3.142  0.00  0.00    -0.200 OA
BRANCH  28  31
ATOM     31  N   UNL d   1      25.629 -17.210  -1.506  0.00  0.00    -0.307 N 
ATOM     32  C   UNL d   1      24.174 -17.418  -1.627  0.00  0.00     0.135 C 
ATOM     33  C   UNL d   1      23.680 -17.498  -0.199  0.00  0.00     0.022 C 
ATOM     34  C   UNL d   1      24.818 -18.184   0.540  0.00  0.00     0.022 C 
ATOM     35  C   UNL d   1      26.094 -17.923  -0.291  0.00  0.00     0.135 C 
ENDBRANCH  28  31
ENDBRANCH  25  28
ENDBRANCH  20  22
ENDBRANCH  10  18
BRANCH   1  36
ATOM     36  C   UNL d   1      30.886 -16.004  10.434  0.00  0.00     0.036 C 
ATOM     37  C   UNL d   1      31.100 -16.598  11.827  0.00  0.00     0.010 C 
ENDBRANCH   1  36
TORSDOF 5
ENDMDL
MODEL 6
REMARK VINA RESULT:    -8.757      6.930      9.286
REMARK INTER + INTRA:         -11.311
REMARK INTER:                 -10.249
REMARK INTRA:                  -1.062
REMARK CONF_INDEPENDENT:        1.492
REMARK UNBOUND:                -1.062
REMARK  5 active torsions:
REMARK  status: ('A' for Active; 'I' for Inactive)
REMARK    1  A    between atoms: C_2  and  C_3 
REMARK    2  A    between atoms: C_12  and  C_13 
REMARK       I    between atoms: C_13  and  N_15 
REMARK    3  A    between atoms: N_15  and  C_16 
REMARK    4  A    between atoms: C_19  and  S_20 
REMARK    5  A    between atoms: S_20  and  N_23 
ROOT
ATOM      1  C   UNL d   1      30.047  -9.927   9.116  0.00  0.00    -0.031 A 
ATOM      2  C   UNL d   1      30.422 -10.074  10.446  0.00  0.00     0.009 A 
ATOM      3  C   UNL d   1      30.802 -11.333  10.913  0.00  0.00     0.002 A 
ATOM      4  C   UNL d   1      30.796 -12.460  10.064  0.00  0.00     0.014 A 
ATOM      5  C   UNL d   1      30.353 -12.369   8.725  0.00  0.00    -0.008 A 
ATOM      6  C   UNL d   1      30.219 -13.466   7.795  0.00  0.00     0.030 C 
ATOM      7  C   UNL d   1      29.556 -13.262   6.544  0.00  0.00     0.026 A 
ATOM      8  C   UNL d   1      29.051 -14.072   5.438  0.00  0.00     0.061 A 
ATOM      9  N   UNL d   1      29.162 -15.417   5.418  0.00  0.00    -0.397 N 
ATOM     10  C   UNL d   1      28.409 -13.310   4.459  0.00  0.00     0.102 A 
ATOM     11  S   UNL d   1      28.473 -11.634   4.845  0.00  0.00    -0.064 SA
ATOM     12  C   UNL d   1      29.265 -11.952   6.265  0.00  0.00     0.088 A 
ATOM     13  N   UNL d   1      29.534 -10.919   7.060  0.00  0.00    -0.349 N 
ATOM     14  C   UNL d   1      29.986 -11.076   8.295  0.00  0.00     0.049 A 
ATOM     15  H   UNL d   1      29.666 -15.950   6.123  0.00  0.00     0.156 HD
ATOM     16  H   UNL d   1      28.903 -16.020   4.648  0.00  0.00     0.156 HD
ATOM     17  H   UNL d   1      29.283 -10.016   6.679  0.00  0.00     0.166 HD
ENDROOT
BRANCH  10  18
ATOM     18  C   UNL d   1      27.714 -13.548   3.201  0.00  0.00     0.265 C 
ATOM     19  O   UNL d   1      26.671 -12.948   2.934  0.00  0.00    -0.267 OA
ATOM     20  N   UNL d   1      28.239 -14.500   2.348  0.00  0.00    -0.322 N 
ATOM     21  H   UNL d   1      28.834 -15.210   2.729  0.00  0.00     0.169 HD
BRANCH  20  22
ATOM     22  C   UNL d   1      27.641 -14.754   1.103  0.00  0.00     0.035 C 
ATOM     23  C   UNL d   1      27.154 -13.714   0.309  0.00  0.00     0.031 C 
ATOM     24  C   UNL d   1      26.304 -13.977  -0.764  0.00  0.00     0.027 C 
ATOM     25  C   UNL d   1      26.160 -15.286  -1.200  0.00  0.00     0.079 C 
ATOM     26  C   UNL d   1      26.949 -16.264  -0.607  0.00  0.00     0.027 C 
ATOM     27  C   UNL d   1      27.543 -16.050   0.641  0.00  0.00     0.031 C 
BRANCH  25  28
ATOM     28  S   UNL d   1      24.881 -15.689  -2.397  0.00  0.00     0.260 S 
ATOM     29  O   UNL d   1      24.117 -14.454  -2.568  0.00  0.00    -0.200 OA
ATOM     30  O   UNL d   1      25.530 -16.318  -3.509  0.00  0.00    -0.200 OA
BRANCH  28  31
ATOM     31  N   UNL d   1      23.802 -16.761  -1.624  0.00  0.00    -0.307 N 
ATOM     32  C   UNL d   1      23.655 -16.565  -0.170  0.00  0.00     0.135 C 
ATOM     33  C   UNL d   1      24.226 -17.824   0.445  0.00  0.00     0.022 C 
ATOM     34  C   UNL d   1      23.852 -18.914  -0.548  0.00  0.00     0.022 C 
ATOM     35  C   UNL d   1      23.651 -18.210  -1.908  0.00  0.00     0.135 C 
ENDBRANCH  28  31
ENDBRANCH  25  28
ENDBRANCH  20  22
ENDBRANCH  10  18
BRANCH   1  36
ATOM     36  C   UNL d   1      29.756  -8.557   8.541  0.00  0.00     0.036 C 
ATOM     37  C   UNL d   1      30.073  -7.484   9.584  0.00  0.00     0.010 C 
ENDBRANCH   1  36
TORSDOF 5
ENDMDL
MODEL 7
REMARK VINA RESULT:    -8.698      6.866      9.498
REMARK INTER + INTRA:         -11.187
REMARK INTER:                 -10.189
REMARK INTRA:                  -0.998
REMARK CONF_INDEPENDENT:        1.492
REMARK UNBOUND:                -0.998
REMARK  5 active torsions:
REMARK  status: ('A' for Active; 'I' for Inactive)
REMARK    1  A    between atoms: C_2  and  C_3 
REMARK    2  A    between atoms: C_12  and  C_13 
REMARK       I    between atoms: C_13  and  N_15 
REMARK    3  A    between atoms: N_15  and  C_16 
REMARK    4  A    between atoms: C_19  and  S_20 
REMARK    5  A    between atoms: S_20  and  N_23 
ROOT
ATOM      1  C   UNL d   1      26.900 -13.842  -4.558  0.00  0.00    -0.031 A 
ATOM      2  C   UNL d   1      27.384 -14.244  -5.798  0.00  0.00     0.009 A 
ATOM      3  C   UNL d   1      28.407 -15.191  -5.856  0.00  0.00     0.002 A 
ATOM      4  C   UNL d   1      28.967 -15.735  -4.681  0.00  0.00     0.014 A 
ATOM      5  C   UNL d   1      28.554 -15.303  -3.401  0.00  0.00    -0.008 A 
ATOM      6  C   UNL d   1      29.115 -15.720  -2.137  0.00  0.00     0.030 C 
ATOM      7  C   UNL d   1      28.745 -15.040  -0.934  0.00  0.00     0.026 A 
ATOM      8  C   UNL d   1      29.173 -14.994   0.462  0.00  0.00     0.061 A 
ATOM      9  N   UNL d   1      30.189 -15.748   0.932  0.00  0.00    -0.397 N 
ATOM     10  C   UNL d   1      28.458 -14.059   1.216  0.00  0.00     0.102 A 
ATOM     11  S   UNL d   1      27.247 -13.297   0.260  0.00  0.00    -0.064 SA
ATOM     12  C   UNL d   1      27.718 -14.145  -1.083  0.00  0.00     0.088 A 
ATOM     13  N   UNL d   1      27.093 -13.877  -2.227  0.00  0.00    -0.349 N 
ATOM     14  C   UNL d   1      27.513 -14.349  -3.391  0.00  0.00     0.049 A 
ATOM     15  H   UNL d   1      30.673 -16.450   0.376  0.00  0.00     0.156 HD
ATOM     16  H   UNL d   1      30.476 -15.816   1.900  0.00  0.00     0.156 HD
ATOM     17  H   UNL d   1      26.331 -13.215  -2.147  0.00  0.00     0.166 HD
ENDROOT
BRANCH  10  18
ATOM     18  C   UNL d   1      28.453 -13.568   2.587  0.00  0.00     0.265 C 
ATOM     19  O   UNL d   1      28.262 -12.374   2.828  0.00  0.00    -0.267 OA
ATOM     20  N   UNL d   1      28.716 -14.475   3.595  0.00  0.00    -0.322 N 
ATOM     21  H   UNL d   1      29.221 -15.311   3.369  0.00  0.00     0.169 HD
BRANCH  20  22
ATOM     22  C   UNL d   1      28.691 -14.077   4.941  0.00  0.00     0.035 C 
ATOM     23  C   UNL d   1      27.656 -13.286   5.443  0.00  0.00     0.031 C 
ATOM     24  C   UNL d   1      27.781 -12.648   6.676  0.00  0.00     0.027 C 
ATOM     25  C   UNL d   1      28.821 -13.015   7.517  0.00  0.00     0.079 C 
ATOM     26  C   UNL d   1      29.633 -14.075   7.131  0.00  0.00     0.027 C 
ATOM     27  C   UNL d   1      29.696 -14.484   5.795  0.00  0.00     0.031 C 
BRANCH  25  28
ATOM     28  S   UNL d   1      29.164 -12.037   8.985  0.00  0.00     0.260 S 
ATOM     29  O   UNL d   1      30.581 -12.265   9.271  0.00  0.00    -0.200 OA
ATOM     30  O   UNL d   1      28.663 -10.718   8.738  0.00  0.00    -0.200 OA
BRANCH  28  31
ATOM     31  N   UNL d   1      28.337 -12.781  10.278  0.00  0.00    -0.307 N 
ATOM     32  C   UNL d   1      28.773 -12.367  11.625  0.00  0.00     0.135 C 
ATOM     33  C   UNL d   1      29.379 -13.614  12.230  0.00  0.00     0.022 C 
ATOM     34  C   UNL d   1      28.532 -14.742  11.661  0.00  0.00     0.022 C 
ATOM     35  C   UNL d   1      27.918 -14.202  10.350  0.00  0.00     0.135 C 
ENDBRANCH  28  31
ENDBRANCH  25  28
ENDBRANCH  20  22
ENDBRANCH  10  18
BRANCH   1  36
ATOM     36  C   UNL d   1      25.705 -12.917  -4.458  0.00  0.00     0.036 C 
ATOM     37  C   UNL d   1      24.492 -13.697  -3.949  0.00  0.00     0.010 C 
ENDBRANCH   1  36
TORSDOF 5
ENDMDL
MODEL 8
REMARK VINA RESULT:    -8.661      6.664      9.879
REMARK INTER + INTRA:         -11.190
REMARK INTER:                 -10.153
REMARK INTRA:                  -1.037
REMARK CONF_INDEPENDENT:        1.492
REMARK UNBOUND:                -1.037
REMARK  5 active torsions:
REMARK  status: ('A' for Active; 'I' for Inactive)
REMARK    1  A    between atoms: C_2  and  C_3 
REMARK    2  A    between atoms: C_12  and  C_13 
REMARK       I    between atoms: C_13  and  N_15 
REMARK    3  A    between atoms: N_15  and  C_16 
REMARK    4  A    between atoms: C_19  and  S_20 
REMARK    5  A    between atoms: S_20  and  N_23 
ROOT
ATOM      1  C   UNL d   1      29.919 -10.171   8.203  0.00  0.00    -0.031 A 
ATOM      2  C   UNL d   1      30.029 -10.266   9.585  0.00  0.00     0.009 A 
ATOM      3  C   UNL d   1      29.973 -11.522  10.189  0.00  0.00     0.002 A 
ATOM      4  C   UNL d   1      29.792 -12.694   9.424  0.00  0.00     0.014 A 
ATOM      5  C   UNL d   1      29.605 -12.636   8.025  0.00  0.00    -0.008 A 
ATOM      6  C   UNL d   1      29.322 -13.755   7.156  0.00  0.00     0.030 C 
ATOM      7  C   UNL d   1      28.943 -13.522   5.796  0.00  0.00     0.026 A 
ATOM      8  C   UNL d   1      28.415 -14.288   4.670  0.00  0.00     0.061 A 
ATOM      9  N   UNL d   1      28.156 -15.610   4.754  0.00  0.00    -0.397 N 
ATOM     10  C   UNL d   1      28.165 -13.496   3.547  0.00  0.00     0.102 A 
ATOM     11  S   UNL d   1      28.623 -11.862   3.834  0.00  0.00    -0.064 SA
ATOM     12  C   UNL d   1      29.067 -12.219   5.389  0.00  0.00     0.088 A 
ATOM     13  N   UNL d   1      29.481 -11.212   6.154  0.00  0.00    -0.349 N 
ATOM     14  C   UNL d   1      29.675 -11.346   7.457  0.00  0.00     0.049 A 
ATOM     15  H   UNL d   1      28.379 -16.177   5.569  0.00  0.00     0.156 HD
ATOM     16  H   UNL d   1      27.865 -16.205   3.988  0.00  0.00     0.156 HD
ATOM     17  H   UNL d   1      29.549 -10.320   5.679  0.00  0.00     0.166 HD
ENDROOT
BRANCH  10  18
ATOM     18  C   UNL d   1      27.635 -13.680   2.202  0.00  0.00     0.265 C 
ATOM     19  O   UNL d   1      26.796 -12.903   1.743  0.00  0.00    -0.267 OA
ATOM     20  N   UNL d   1      28.071 -14.778   1.486  0.00  0.00    -0.322 N 
ATOM     21  H   UNL d   1      28.436 -15.565   1.988  0.00  0.00     0.169 HD
BRANCH  20  22
ATOM     22  C   UNL d   1      27.630 -14.997   0.171  0.00  0.00     0.035 C 
ATOM     23  C   UNL d   1      28.530 -15.300  -0.852  0.00  0.00     0.031 C 
ATOM     24  C   UNL d   1      28.142 -15.219  -2.189  0.00  0.00     0.027 C 
ATOM     25  C   UNL d   1      26.793 -15.096  -2.488  0.00  0.00     0.079 C 
ATOM     26  C   UNL d   1      25.882 -15.160  -1.440  0.00  0.00     0.027 C 
ATOM     27  C   UNL d   1      26.284 -14.928  -0.121  0.00  0.00     0.031 C 
BRANCH  25  28
ATOM     28  S   UNL d   1      26.285 -14.725  -4.172  0.00  0.00     0.260 S 
ATOM     29  O   UNL d   1      27.123 -15.577  -5.017  0.00  0.00    -0.200 OA
ATOM     30  O   UNL d   1      24.857 -14.820  -4.211  0.00  0.00    -0.200 OA
BRANCH  28  31
ATOM     31  N   UNL d   1      26.808 -13.136  -4.506  0.00  0.00    -0.307 N 
ATOM     32  C   UNL d   1      27.300 -12.378  -3.340  0.00  0.00     0.135 C 
ATOM     33  C   UNL d   1      26.303 -11.253  -3.169  0.00  0.00     0.022 C 
ATOM     34  C   UNL d   1      25.893 -10.912  -4.594  0.00  0.00     0.022 C 
ATOM     35  C   UNL d   1      26.164 -12.178  -5.437  0.00  0.00     0.135 C 
ENDBRANCH  28  31
ENDBRANCH  25  28
ENDBRANCH  20  22
ENDBRANCH  10  18
BRANCH   1  36
ATOM     36  C   UNL d   1      30.106  -8.842   7.502  0.00  0.00     0.036 C 
ATOM     37  C   UNL d   1      29.652  -7.708   8.422  0.00  0.00     0.010 C 
ENDBRANCH   1  36
TORSDOF 5
ENDMDL
MODEL 9
REMARK VINA RESULT:    -8.656      6.902     10.246
REMARK INTER + INTRA:         -11.458
REMARK INTER:                 -10.148
REMARK INTRA:                  -1.310
REMARK CONF_INDEPENDENT:        1.492
REMARK UNBOUND:                -1.310
REMARK  5 active torsions:
REMARK  status: ('A' for Active; 'I' for Inactive)
REMARK    1  A    between atoms: C_2  and  C_3 
REMARK    2  A    between atoms: C_12  and  C_13 
REMARK       I    between atoms: C_13  and  N_15 
REMARK    3  A    between atoms: N_15  and  C_16 
REMARK    4  A    between atoms: C_19  and  S_20 
REMARK    5  A    between atoms: S_20  and  N_23 
ROOT
ATOM      1  C   UNL d   1      30.833 -14.092   9.755  0.00  0.00    -0.031 A 
ATOM      2  C   UNL d   1      31.412 -13.393  10.807  0.00  0.00     0.009 A 
ATOM      3  C   UNL d   1      31.095 -12.046  10.988  0.00  0.00     0.002 A 
ATOM      4  C   UNL d   1      30.210 -11.380  10.114  0.00  0.00     0.014 A 
ATOM      5  C   UNL d   1      29.655 -12.034   8.991  0.00  0.00    -0.008 A 
ATOM      6  C   UNL d   1      28.815 -11.430   7.983  0.00  0.00     0.030 C 
ATOM      7  C   UNL d   1      28.503 -12.155   6.789  0.00  0.00     0.026 A 
ATOM      8  C   UNL d   1      27.884 -11.895   5.492  0.00  0.00     0.061 A 
ATOM      9  N   UNL d   1      27.405 -10.680   5.150  0.00  0.00    -0.397 N 
ATOM     10  C   UNL d   1      27.901 -13.012   4.652  0.00  0.00     0.102 A 
ATOM     11  S   UNL d   1      28.597 -14.369   5.448  0.00  0.00    -0.064 SA
ATOM     12  C   UNL d   1      28.899 -13.468   6.804  0.00  0.00     0.088 A 
ATOM     13  N   UNL d   1      29.538 -14.065   7.807  0.00  0.00    -0.349 N 
ATOM     14  C   UNL d   1      29.999 -13.395   8.852  0.00  0.00     0.049 A 
ATOM     15  H   UNL d   1      27.370  -9.890   5.789  0.00  0.00     0.156 HD
ATOM     16  H   UNL d   1      26.899 -10.461   4.301  0.00  0.00     0.156 HD
ATOM     17  H   UNL d   1      29.721 -15.051   7.664  0.00  0.00     0.166 HD
ENDROOT
BRANCH  10  18
ATOM     18  C   UNL d   1      27.479 -13.338   3.296  0.00  0.00     0.265 C 
ATOM     19  O   UNL d   1      26.576 -12.703   2.747  0.00  0.00    -0.267 OA
ATOM     20  N   UNL d   1      28.093 -14.407   2.673  0.00  0.00    -0.322 N 
ATOM     21  H   UNL d   1      28.525 -15.110   3.241  0.00  0.00     0.169 HD
BRANCH  20  22
ATOM     22  C   UNL d   1      27.762 -14.753   1.353  0.00  0.00     0.035 C 
ATOM     23  C   UNL d   1      27.801 -13.809   0.326  0.00  0.00     0.031 C 
ATOM     24  C   UNL d   1      27.192 -14.067  -0.902  0.00  0.00     0.027 C 
ATOM     25  C   UNL d   1      26.782 -15.361  -1.187  0.00  0.00     0.079 C 
ATOM     26  C   UNL d   1      27.089 -16.361  -0.273  0.00  0.00     0.027 C 
ATOM     27  C   UNL d   1      27.405 -16.052   1.053  0.00  0.00     0.031 C 
BRANCH  25  28
ATOM     28  S   UNL d   1      25.766 -15.672  -2.636  0.00  0.00     0.260 S 
ATOM     29  O   UNL d   1      25.365 -17.075  -2.525  0.00  0.00    -0.200 OA
ATOM     30  O   UNL d   1      24.789 -14.627  -2.698  0.00  0.00    -0.200 OA
BRANCH  28  31
ATOM     31  N   UNL d   1      26.806 -15.626  -3.988  0.00  0.00    -0.307 N 
ATOM     32  C   UNL d   1      28.246 -15.564  -3.671  0.00  0.00     0.135 C 
ATOM     33  C   UNL d   1      28.689 -14.209  -4.178  0.00  0.00     0.022 C 
ATOM     34  C   UNL d   1      27.839 -13.990  -5.420  0.00  0.00     0.022 C 
ATOM     35  C   UNL d   1      26.581 -14.869  -5.243  0.00  0.00     0.135 C 
ENDBRANCH  28  31
ENDBRANCH  25  28
ENDBRANCH  20  22
ENDBRANCH  10  18
BRANCH   1  36
ATOM     36  C   UNL d   1      31.051 -15.583   9.605  0.00  0.00     0.036 C 
ATOM     37  C   UNL d   1      30.861 -16.269  10.959  0.00  0.00     0.010 C 
ENDBRANCH   1  36
TORSDOF 5
ENDMDL
