MODEL 1
REMARK VINA RESULT:    -8.728      0.000      0.000
REMARK INTER + INTRA:         -11.895
REMARK INTER:                 -10.219
REMARK INTRA:                  -1.676
REMARK CONF_INDEPENDENT:        1.492
REMARK UNBOUND:                -1.676
REMARK  5 active torsions:
REMARK  status: ('A' for Active; 'I' for Inactive)
REMARK    1  A    between atoms: C_3  and  S_4 
REMARK    2  A    between atoms: S_4  and  C_5 
REMARK    3  A    between atoms: C_5  and  C_6 
REMARK       I    between atoms: C_6  and  N_8 
REMARK    4  A    between atoms: N_8  and  C_9 
REMARK    5  A    between atoms: C_21  and  C_22 
ROOT
ATOM      1  C   UNL d   1      29.836 -13.832  -1.932  0.00  0.00     0.162 C 
ATOM      2  N   UNL d   1      28.679 -14.627  -1.629  0.00  0.00    -0.296 N 
ATOM      3  C   UNL d   1      27.344 -14.411  -2.001  0.00  0.00     0.172 A 
ATOM      4  N   UNL d   1      26.353 -15.215  -1.682  0.00  0.00    -0.221 NA
ATOM      5  C   UNL d   1      26.688 -16.345  -0.917  0.00  0.00     0.104 A 
ATOM      6  C   UNL d   1      25.879 -17.393  -0.385  0.00  0.00     0.021 A 
ATOM      7  C   UNL d   1      26.742 -18.244   0.298  0.00  0.00     0.103 A 
ATOM      8  N   UNL d   1      28.012 -17.736   0.200  0.00  0.00    -0.359 N 
ATOM      9  C   UNL d   1      27.971 -16.585  -0.533  0.00  0.00     0.131 A 
ATOM     10  C   UNL d   1      29.051 -15.739  -0.864  0.00  0.00     0.278 A 
ATOM     11  O   UNL d   1      30.205 -15.971  -0.507  0.00  0.00    -0.265 OA
ATOM     12  H   UNL d   1      28.852 -18.140   0.600  0.00  0.00     0.165 HD
ENDROOT
BRANCH   3  13
ATOM     13  S   UNL d   1      26.815 -12.997  -2.965  0.00  0.00    -0.082 SA
BRANCH  13  14
ATOM     14  C   UNL d   1      26.639 -13.349  -4.739  0.00  0.00     0.185 C 
BRANCH  14  15
ATOM     15  C   UNL d   1      27.264 -14.642  -5.217  0.00  0.00     0.231 C 
ATOM     16  O   UNL d   1      26.606 -15.476  -5.777  0.00  0.00    -0.272 OA
ATOM     17  N   UNL d   1      28.675 -14.754  -4.916  0.00  0.00    -0.326 N 
ATOM     18  H   UNL d   1      29.190 -14.050  -4.407  0.00  0.00     0.169 HD
BRANCH  17  19
ATOM     19  C   UNL d   1      29.416 -15.766  -5.583  0.00  0.00     0.037 C 
ATOM     20  C   UNL d   1      29.989 -15.801  -6.865  0.00  0.00     0.032 C 
ATOM     21  C   UNL d   1      30.946 -16.908  -7.227  0.00  0.00     0.042 C 
ATOM     22  C   UNL d   1      31.260 -17.944  -6.275  0.00  0.00     0.102 C 
ATOM     23  C   UNL d   1      30.639 -17.704  -5.106  0.00  0.00     0.104 C 
ATOM     24  O   UNL d   1      32.083 -19.093  -6.096  0.00  0.00    -0.346 OA
ATOM     25  C   UNL d   1      29.659 -16.826  -4.793  0.00  0.00     0.069 C 
ATOM     26  O   UNL d   1      31.411 -17.845  -3.998  0.00  0.00    -0.346 OA
ATOM     27  C   UNL d   1      31.151 -19.131  -3.569  0.00  0.00     0.202 C 
ATOM     28  C   UNL d   1      31.985 -19.873  -4.610  0.00  0.00     0.202 C 
ENDBRANCH  17  19
ENDBRANCH  14  15
ENDBRANCH  13  14
ENDBRANCH   3  13
BRANCH   6  29
ATOM     29  C   UNL d   1      24.457 -17.669  -0.461  0.00  0.00    -0.022 A 
ATOM     30  C   UNL d   1      23.986 -18.991  -0.499  0.00  0.00     0.012 A 
ATOM     31  C   UNL d   1      22.614 -19.255  -0.540  0.00  0.00     0.001 A 
ATOM     32  C   UNL d   1      21.705 -18.201  -0.563  0.00  0.00     0.000 A 
ATOM     33  C   UNL d   1      22.167 -16.884  -0.566  0.00  0.00     0.001 A 
ATOM     34  C   UNL d   1      23.538 -16.619  -0.520  0.00  0.00     0.012 A 
ENDBRANCH   6  29
TORSDOF 5
ENDMDL
MODEL 2
REMARK VINA RESULT:    -8.634      2.547      6.950
REMARK INTER + INTRA:         -11.995
REMARK INTER:                 -10.126
REMARK INTRA:                  -1.869
REMARK CONF_INDEPENDENT:        1.492
REMARK UNBOUND:                -1.869
REMARK  5 active torsions:
REMARK  status: ('A' for Active; 'I' for Inactive)
REMARK    1  A    between atoms: C_3  and  S_4 
REMARK    2  A    between atoms: S_4  and  C_5 
REMARK    3  A    between atoms: C_5  and  C_6 
REMARK       I    between atoms: C_6  and  N_8 
REMARK    4  A    between atoms: N_8  and  C_9 
REMARK    5  A    between atoms: C_21  and  C_22 
ROOT
ATOM      1  C   UNL d   1      32.577 -18.024  -6.480  0.00  0.00     0.162 C 
ATOM      2  N   UNL d   1      31.389 -17.301  -6.125  0.00  0.00    -0.296 N 
ATOM      3  C   UNL d   1      30.533 -17.503  -5.031  0.00  0.00     0.172 A 
ATOM      4  N   UNL d   1      29.470 -16.769  -4.785  0.00  0.00    -0.221 NA
ATOM      5  C   UNL d   1      29.202 -15.732  -5.696  0.00  0.00     0.104 A 
ATOM      6  C   UNL d   1      28.143 -14.779  -5.748  0.00  0.00     0.021 A 
ATOM      7  C   UNL d   1      28.379 -13.996  -6.874  0.00  0.00     0.103 A 
ATOM      8  N   UNL d   1      29.516 -14.456  -7.486  0.00  0.00    -0.359 N 
ATOM      9  C   UNL d   1      30.006 -15.510  -6.770  0.00  0.00     0.131 A 
ATOM     10  C   UNL d   1      31.153 -16.281  -7.055  0.00  0.00     0.278 A 
ATOM     11  O   UNL d   1      31.868 -16.066  -8.032  0.00  0.00    -0.265 OA
ATOM     12  H   UNL d   1      29.935 -14.083  -8.331  0.00  0.00     0.165 HD
ENDROOT
BRANCH   3  13
ATOM     13  S   UNL d   1      30.781 -18.802  -3.823  0.00  0.00    -0.082 SA
BRANCH  13  14
ATOM     14  C   UNL d   1      30.897 -18.194  -2.114  0.00  0.00     0.185 C 
BRANCH  14  15
ATOM     15  C   UNL d   1      29.810 -17.233  -1.684  0.00  0.00     0.231 C 
ATOM     16  O   UNL d   1      29.652 -16.185  -2.250  0.00  0.00    -0.272 OA
ATOM     17  N   UNL d   1      29.035 -17.698  -0.553  0.00  0.00    -0.326 N 
ATOM     18  H   UNL d   1      29.221 -18.567  -0.075  0.00  0.00     0.169 HD
BRANCH  17  19
ATOM     19  C   UNL d   1      27.811 -17.033  -0.272  0.00  0.00     0.037 C 
ATOM     20  C   UNL d   1      27.506 -15.667  -0.153  0.00  0.00     0.032 C 
ATOM     21  C   UNL d   1      26.066 -15.224  -0.101  0.00  0.00     0.042 C 
ATOM     22  C   UNL d   1      25.000 -16.194  -0.149  0.00  0.00     0.102 C 
ATOM     23  C   UNL d   1      25.505 -17.431  -0.300  0.00  0.00     0.104 C 
ATOM     24  O   UNL d   1      23.580 -16.301  -0.196  0.00  0.00    -0.346 OA
ATOM     25  C   UNL d   1      26.774 -17.885  -0.189  0.00  0.00     0.069 C 
ATOM     26  O   UNL d   1      24.892 -18.199  -1.238  0.00  0.00    -0.346 OA
ATOM     27  C   UNL d   1      23.980 -18.945  -0.517  0.00  0.00     0.202 C 
ATOM     28  C   UNL d   1      22.938 -17.851  -0.300  0.00  0.00     0.202 C 
ENDBRANCH  17  19
ENDBRANCH  14  15
ENDBRANCH  13  14
ENDBRANCH   3  13
BRANCH   6  29
ATOM     29  C   UNL d   1      27.002 -14.530  -4.886  0.00  0.00    -0.022 A 
ATOM     30  C   UNL d   1      26.333 -13.297  -4.924  0.00  0.00     0.012 A 
ATOM     31  C   UNL d   1      25.214 -13.073  -4.117  0.00  0.00     0.001 A 
ATOM     32  C   UNL d   1      24.770 -14.070  -3.253  0.00  0.00     0.000 A 
ATOM     33  C   UNL d   1      25.455 -15.284  -3.180  0.00  0.00     0.001 A 
ATOM     34  C   UNL d   1      26.570 -15.512  -3.992  0.00  0.00     0.012 A 
ENDBRANCH   6  29
TORSDOF 5
ENDMDL
MODEL 3
REMARK VINA RESULT:    -8.036      3.529      6.531
REMARK INTER + INTRA:         -11.918
REMARK INTER:                  -9.527
REMARK INTRA:                  -2.391
REMARK CONF_INDEPENDENT:        1.492
REMARK UNBOUND:                -2.391
REMARK  5 active torsions:
REMARK  status: ('A' for Active; 'I' for Inactive)
REMARK    1  A    between atoms: C_3  and  S_4 
REMARK    2  A    between atoms: S_4  and  C_5 
REMARK    3  A    between atoms: C_5  and  C_6 
REMARK       I    between atoms: C_6  and  N_8 
REMARK    4  A    between atoms: N_8  and  C_9 
REMARK    5  A    between atoms: C_21  and  C_22 
ROOT
ATOM      1  C   UNL d   1      29.565 -15.426  -3.327  0.00  0.00     0.162 C 
ATOM      2  N   UNL d   1      29.167 -14.661  -2.178  0.00  0.00    -0.296 N 
ATOM      3  C   UNL d   1      28.453 -13.454  -2.132  0.00  0.00     0.172 A 
ATOM      4  N   UNL d   1      28.123 -12.837  -1.018  0.00  0.00    -0.221 NA
ATOM      5  C   UNL d   1      28.531 -13.451   0.179  0.00  0.00     0.104 A 
ATOM      6  C   UNL d   1      28.368 -13.055   1.539  0.00  0.00     0.021 A 
ATOM      7  C   UNL d   1      28.979 -14.041   2.308  0.00  0.00     0.103 A 
ATOM      8  N   UNL d   1      29.499 -14.985   1.461  0.00  0.00    -0.359 N 
ATOM      9  C   UNL d   1      29.228 -14.618   0.174  0.00  0.00     0.131 A 
ATOM     10  C   UNL d   1      29.593 -15.300  -1.007  0.00  0.00     0.278 A 
ATOM     11  O   UNL d   1      30.225 -16.355  -0.993  0.00  0.00    -0.265 OA
ATOM     12  H   UNL d   1      30.004 -15.822   1.732  0.00  0.00     0.165 HD
ENDROOT
BRANCH   3  13
ATOM     13  S   UNL d   1      27.900 -12.589  -3.600  0.00  0.00    -0.082 SA
BRANCH  13  14
ATOM     14  C   UNL d   1      26.197 -12.998  -4.087  0.00  0.00     0.185 C 
BRANCH  14  15
ATOM     15  C   UNL d   1      25.664 -14.316  -3.570  0.00  0.00     0.231 C 
ATOM     16  O   UNL d   1      25.157 -15.112  -4.313  0.00  0.00    -0.272 OA
ATOM     17  N   UNL d   1      25.817 -14.485  -2.140  0.00  0.00    -0.326 N 
ATOM     18  H   UNL d   1      26.212 -13.778  -1.539  0.00  0.00     0.169 HD
BRANCH  17  19
ATOM     19  C   UNL d   1      25.642 -15.790  -1.606  0.00  0.00     0.037 C 
ATOM     20  C   UNL d   1      26.538 -16.651  -0.952  0.00  0.00     0.032 C 
ATOM     21  C   UNL d   1      26.020 -17.884  -0.257  0.00  0.00     0.042 C 
ATOM     22  C   UNL d   1      24.613 -18.199  -0.279  0.00  0.00     0.102 C 
ATOM     23  C   UNL d   1      23.931 -17.233  -0.922  0.00  0.00     0.104 C 
ATOM     24  O   UNL d   1      23.662 -19.130   0.231  0.00  0.00    -0.346 OA
ATOM     25  C   UNL d   1      24.366 -16.209  -1.689  0.00  0.00     0.069 C 
ATOM     26  O   UNL d   1      22.801 -16.808  -0.300  0.00  0.00    -0.346 OA
ATOM     27  C   UNL d   1      21.795 -17.546  -0.893  0.00  0.00     0.202 C 
ATOM     28  C   UNL d   1      22.051 -18.868  -0.173  0.00  0.00     0.202 C 
ENDBRANCH  17  19
ENDBRANCH  14  15
ENDBRANCH  13  14
ENDBRANCH   3  13
BRANCH   6  29
ATOM     29  C   UNL d   1      27.720 -11.915   2.159  0.00  0.00    -0.022 A 
ATOM     30  C   UNL d   1      28.139 -11.448   3.415  0.00  0.00     0.012 A 
ATOM     31  C   UNL d   1      27.535 -10.329   3.994  0.00  0.00     0.001 A 
ATOM     32  C   UNL d   1      26.494  -9.682   3.333  0.00  0.00     0.000 A 
ATOM     33  C   UNL d   1      26.044 -10.165   2.103  0.00  0.00     0.001 A 
ATOM     34  C   UNL d   1      26.652 -11.279   1.520  0.00  0.00     0.012 A 
ENDBRANCH   6  29
TORSDOF 5
ENDMDL
MODEL 4
REMARK VINA RESULT:    -7.851      2.523      3.700
REMARK INTER + INTRA:         -12.319
REMARK INTER:                  -9.342
REMARK INTRA:                  -2.977
REMARK CONF_INDEPENDENT:        1.492
REMARK UNBOUND:                -2.977
REMARK  5 active torsions:
REMARK  status: ('A' for Active; 'I' for Inactive)
REMARK    1  A    between atoms: C_3  and  S_4 
REMARK    2  A    between atoms: S_4  and  C_5 
REMARK    3  A    between atoms: C_5  and  C_6 
REMARK       I    between atoms: C_6  and  N_8 
REMARK    4  A    between atoms: N_8  and  C_9 
REMARK    5  A    between atoms: C_21  and  C_22 
ROOT
ATOM      1  C   UNL d   1      30.437 -13.568   1.260  0.00  0.00     0.162 C 
ATOM      2  N   UNL d   1      29.266 -14.336   0.944  0.00  0.00    -0.296 N 
ATOM      3  C   UNL d   1      27.922 -13.933   0.955  0.00  0.00     0.172 A 
ATOM      4  N   UNL d   1      26.917 -14.717   0.631  0.00  0.00    -0.221 NA
ATOM      5  C   UNL d   1      27.245 -16.032   0.261  0.00  0.00     0.104 A 
ATOM      6  C   UNL d   1      26.423 -17.134  -0.119  0.00  0.00     0.021 A 
ATOM      7  C   UNL d   1      27.286 -18.196  -0.371  0.00  0.00     0.103 A 
ATOM      8  N   UNL d   1      28.569 -17.769  -0.144  0.00  0.00    -0.359 N 
ATOM      9  C   UNL d   1      28.536 -16.460   0.243  0.00  0.00     0.131 A 
ATOM     10  C   UNL d   1      29.632 -15.639   0.584  0.00  0.00     0.278 A 
ATOM     11  O   UNL d   1      30.793 -16.044   0.563  0.00  0.00    -0.265 OA
ATOM     12  H   UNL d   1      29.412 -18.325  -0.244  0.00  0.00     0.165 HD
ENDROOT
BRANCH   3  13
ATOM     13  S   UNL d   1      27.401 -12.284   1.422  0.00  0.00    -0.082 SA
BRANCH  13  14
ATOM     14  C   UNL d   1      27.388 -11.105   0.038  0.00  0.00     0.185 C 
BRANCH  14  15
ATOM     15  C   UNL d   1      27.145 -11.702  -1.331  0.00  0.00     0.231 C 
ATOM     16  O   UNL d   1      27.609 -11.198  -2.317  0.00  0.00    -0.272 OA
ATOM     17  N   UNL d   1      26.311 -12.886  -1.310  0.00  0.00    -0.326 N 
ATOM     18  H   UNL d   1      25.904 -13.261  -0.467  0.00  0.00     0.169 HD
BRANCH  17  19
ATOM     19  C   UNL d   1      26.279 -13.693  -2.479  0.00  0.00     0.037 C 
ATOM     20  C   UNL d   1      25.230 -14.010  -3.356  0.00  0.00     0.032 C 
ATOM     21  C   UNL d   1      25.531 -14.686  -4.670  0.00  0.00     0.042 C 
ATOM     22  C   UNL d   1      26.886 -15.029  -5.023  0.00  0.00     0.102 C 
ATOM     23  C   UNL d   1      27.735 -14.607  -4.068  0.00  0.00     0.104 C 
ATOM     24  O   UNL d   1      27.668 -15.574  -6.082  0.00  0.00    -0.346 OA
ATOM     25  C   UNL d   1      27.498 -14.150  -2.818  0.00  0.00     0.069 C 
ATOM     26  O   UNL d   1      28.845 -13.967  -4.519  0.00  0.00    -0.346 OA
ATOM     27  C   UNL d   1      29.807 -14.957  -4.566  0.00  0.00     0.202 C 
ATOM     28  C   UNL d   1      29.329 -15.655  -5.836  0.00  0.00     0.202 C 
ENDBRANCH  17  19
ENDBRANCH  14  15
ENDBRANCH  13  14
ENDBRANCH   3  13
BRANCH   6  29
ATOM     29  C   UNL d   1      24.988 -17.279  -0.277  0.00  0.00    -0.022 A 
ATOM     30  C   UNL d   1      24.354 -18.493   0.030  0.00  0.00     0.012 A 
ATOM     31  C   UNL d   1      22.968 -18.620  -0.092  0.00  0.00     0.001 A 
ATOM     32  C   UNL d   1      22.209 -17.542  -0.539  0.00  0.00     0.000 A 
ATOM     33  C   UNL d   1      22.836 -16.344  -0.884  0.00  0.00     0.001 A 
ATOM     34  C   UNL d   1      24.222 -16.214  -0.757  0.00  0.00     0.012 A 
ENDBRANCH   6  29
TORSDOF 5
ENDMDL
MODEL 5
REMARK VINA RESULT:    -7.839      2.520      5.203
REMARK INTER + INTRA:         -11.799
REMARK INTER:                  -9.330
REMARK INTRA:                  -2.469
REMARK CONF_INDEPENDENT:        1.492
REMARK UNBOUND:                -2.469
REMARK  5 active torsions:
REMARK  status: ('A' for Active; 'I' for Inactive)
REMARK    1  A    between atoms: C_3  and  S_4 
REMARK    2  A    between atoms: S_4  and  C_5 
REMARK    3  A    between atoms: C_5  and  C_6 
REMARK       I    between atoms: C_6  and  N_8 
REMARK    4  A    between atoms: N_8  and  C_9 
REMARK    5  A    between atoms: C_21  and  C_22 
ROOT
ATOM      1  C   UNL d   1      30.048 -15.068  -3.713  0.00  0.00     0.162 C 
ATOM      2  N   UNL d   1      28.866 -15.567  -3.067  0.00  0.00    -0.296 N 
ATOM      3  C   UNL d   1      27.535 -15.513  -3.509  0.00  0.00     0.172 A 
ATOM      4  N   UNL d   1      26.519 -16.017  -2.844  0.00  0.00    -0.221 NA
ATOM      5  C   UNL d   1      26.820 -16.635  -1.618  0.00  0.00     0.104 A 
ATOM      6  C   UNL d   1      25.979 -17.253  -0.646  0.00  0.00     0.021 A 
ATOM      7  C   UNL d   1      26.818 -17.688   0.375  0.00  0.00     0.103 A 
ATOM      8  N   UNL d   1      28.104 -17.343   0.051  0.00  0.00    -0.359 N 
ATOM      9  C   UNL d   1      28.097 -16.702  -1.155  0.00  0.00     0.131 A 
ATOM     10  C   UNL d   1      29.205 -16.171  -1.850  0.00  0.00     0.278 A 
ATOM     11  O   UNL d   1      30.353 -16.239  -1.415  0.00  0.00    -0.265 OA
ATOM     12  H   UNL d   1      28.933 -17.528   0.605  0.00  0.00     0.165 HD
ENDROOT
BRANCH   3  13
ATOM     13  S   UNL d   1      27.048 -14.739  -5.049  0.00  0.00    -0.082 SA
BRANCH  13  14
ATOM     14  C   UNL d   1      25.892 -13.353  -4.834  0.00  0.00     0.185 C 
BRANCH  14  15
ATOM     15  C   UNL d   1      26.069 -12.540  -3.570  0.00  0.00     0.231 C 
ATOM     16  O   UNL d   1      25.177 -11.858  -3.143  0.00  0.00    -0.272 OA
ATOM     17  N   UNL d   1      27.384 -12.664  -2.977  0.00  0.00    -0.326 N 
ATOM     18  H   UNL d   1      28.125 -13.215  -3.384  0.00  0.00     0.169 HD
BRANCH  17  19
ATOM     19  C   UNL d   1      27.554 -12.203  -1.644  0.00  0.00     0.037 C 
ATOM     20  C   UNL d   1      27.406 -10.925  -1.080  0.00  0.00     0.032 C 
ATOM     21  C   UNL d   1      27.400 -10.765   0.419  0.00  0.00     0.042 C 
ATOM     22  C   UNL d   1      27.570 -11.911   1.278  0.00  0.00     0.102 C 
ATOM     23  C   UNL d   1      27.658 -13.033   0.542  0.00  0.00     0.104 C 
ATOM     24  O   UNL d   1      27.577 -12.295   2.650  0.00  0.00    -0.346 OA
ATOM     25  C   UNL d   1      27.828 -13.204  -0.789  0.00  0.00     0.069 C 
ATOM     26  O   UNL d   1      26.905 -14.076   0.980  0.00  0.00    -0.346 OA
ATOM     27  C   UNL d   1      27.780 -14.823   1.744  0.00  0.00     0.202 C 
ATOM     28  C   UNL d   1      27.798 -13.929   2.980  0.00  0.00     0.202 C 
ENDBRANCH  17  19
ENDBRANCH  14  15
ENDBRANCH  13  14
ENDBRANCH   3  13
BRANCH   6  29
ATOM     29  C   UNL d   1      24.547 -17.477  -0.588  0.00  0.00    -0.022 A 
ATOM     30  C   UNL d   1      23.648 -16.441  -0.888  0.00  0.00     0.012 A 
ATOM     31  C   UNL d   1      22.269 -16.670  -0.864  0.00  0.00     0.001 A 
ATOM     32  C   UNL d   1      21.780 -17.927  -0.520  0.00  0.00     0.000 A 
ATOM     33  C   UNL d   1      22.666 -18.950  -0.182  0.00  0.00     0.001 A 
ATOM     34  C   UNL d   1      24.045 -18.725  -0.212  0.00  0.00     0.012 A 
ENDBRANCH   6  29
TORSDOF 5
ENDMDL
MODEL 6
REMARK VINA RESULT:    -7.457      2.579      5.974
REMARK INTER + INTRA:         -11.573
REMARK INTER:                  -8.949
REMARK INTRA:                  -2.624
REMARK CONF_INDEPENDENT:        1.492
REMARK UNBOUND:                -2.624
REMARK  5 active torsions:
REMARK  status: ('A' for Active; 'I' for Inactive)
REMARK    1  A    between atoms: C_3  and  S_4 
REMARK    2  A    between atoms: S_4  and  C_5 
REMARK    3  A    between atoms: C_5  and  C_6 
REMARK       I    between atoms: C_6  and  N_8 
REMARK    4  A    between atoms: N_8  and  C_9 
REMARK    5  A    between atoms: C_21  and  C_22 
ROOT
ATOM      1  C   UNL d   1      30.365 -15.477  -5.893  0.00  0.00     0.162 C 
ATOM      2  N   UNL d   1      29.972 -15.220  -4.536  0.00  0.00    -0.296 N 
ATOM      3  C   UNL d   1      29.017 -14.311  -4.056  0.00  0.00     0.172 A 
ATOM      4  N   UNL d   1      28.718 -14.162  -2.784  0.00  0.00    -0.221 NA
ATOM      5  C   UNL d   1      29.422 -14.975  -1.878  0.00  0.00     0.104 A 
ATOM      6  C   UNL d   1      29.370 -15.058  -0.456  0.00  0.00     0.021 A 
ATOM      7  C   UNL d   1      30.293 -16.032  -0.088  0.00  0.00     0.103 A 
ATOM      8  N   UNL d   1      30.887 -16.512  -1.227  0.00  0.00    -0.359 N 
ATOM      9  C   UNL d   1      30.359 -15.863  -2.306  0.00  0.00     0.131 A 
ATOM     10  C   UNL d   1      30.695 -16.044  -3.665  0.00  0.00     0.278 A 
ATOM     11  O   UNL d   1      31.546 -16.851  -4.032  0.00  0.00    -0.265 OA
ATOM     12  H   UNL d   1      31.603 -17.229  -1.273  0.00  0.00     0.165 HD
ENDROOT
BRANCH   3  13
ATOM     13  S   UNL d   1      28.077 -13.226  -5.127  0.00  0.00    -0.082 SA
BRANCH  13  14
ATOM     14  C   UNL d   1      26.286 -13.269  -4.817  0.00  0.00     0.185 C 
BRANCH  14  15
ATOM     15  C   UNL d   1      25.769 -14.513  -4.129  0.00  0.00     0.231 C 
ATOM     16  O   UNL d   1      25.155 -15.347  -4.738  0.00  0.00    -0.272 OA
ATOM     17  N   UNL d   1      26.072 -14.565  -2.714  0.00  0.00    -0.326 N 
ATOM     18  H   UNL d   1      26.555 -13.827  -2.225  0.00  0.00     0.169 HD
BRANCH  17  19
ATOM     19  C   UNL d   1      25.912 -15.810  -2.049  0.00  0.00     0.037 C 
ATOM     20  C   UNL d   1      26.838 -16.630  -1.384  0.00  0.00     0.032 C 
ATOM     21  C   UNL d   1      26.350 -17.780  -0.541  0.00  0.00     0.042 C 
ATOM     22  C   UNL d   1      24.939 -18.058  -0.430  0.00  0.00     0.102 C 
ATOM     23  C   UNL d   1      24.230 -17.139  -1.109  0.00  0.00     0.104 C 
ATOM     24  O   UNL d   1      24.011 -18.913   0.233  0.00  0.00    -0.346 OA
ATOM     25  C   UNL d   1      24.626 -16.201  -1.999  0.00  0.00     0.069 C 
ATOM     26  O   UNL d   1      23.158 -16.629  -0.449  0.00  0.00    -0.346 OA
ATOM     27  C   UNL d   1      22.096 -17.391  -0.895  0.00  0.00     0.202 C 
ATOM     28  C   UNL d   1      22.380 -18.647  -0.075  0.00  0.00     0.202 C 
ENDBRANCH  17  19
ENDBRANCH  14  15
ENDBRANCH  13  14
ENDBRANCH   3  13
BRANCH   6  29
ATOM     29  C   UNL d   1      28.575 -14.364   0.540  0.00  0.00    -0.022 A 
ATOM     30  C   UNL d   1      27.474 -13.582   0.157  0.00  0.00     0.012 A 
ATOM     31  C   UNL d   1      26.690 -12.941   1.120  0.00  0.00     0.001 A 
ATOM     32  C   UNL d   1      27.013 -13.061   2.470  0.00  0.00     0.000 A 
ATOM     33  C   UNL d   1      28.129 -13.803   2.855  0.00  0.00     0.001 A 
ATOM     34  C   UNL d   1      28.910 -14.450   1.893  0.00  0.00     0.012 A 
ENDBRANCH   6  29
TORSDOF 5
ENDMDL
MODEL 7
REMARK VINA RESULT:    -7.296      1.444      1.684
REMARK INTER + INTRA:         -11.737
REMARK INTER:                  -8.787
REMARK INTRA:                  -2.950
REMARK CONF_INDEPENDENT:        1.492
REMARK UNBOUND:                -2.950
REMARK  5 active torsions:
REMARK  status: ('A' for Active; 'I' for Inactive)
REMARK    1  A    between atoms: C_3  and  S_4 
REMARK    2  A    between atoms: S_4  and  C_5 
REMARK    3  A    between atoms: C_5  and  C_6 
REMARK       I    between atoms: C_6  and  N_8 
REMARK    4  A    between atoms: N_8  and  C_9 
REMARK    5  A    between atoms: C_21  and  C_22 
ROOT
ATOM      1  C   UNL d   1      28.958 -12.288  -1.524  0.00  0.00     0.162 C 
ATOM      2  N   UNL d   1      28.007 -13.340  -1.307  0.00  0.00    -0.296 N 
ATOM      3  C   UNL d   1      26.694 -13.451  -1.792  0.00  0.00     0.172 A 
ATOM      4  N   UNL d   1      25.903 -14.472  -1.544  0.00  0.00    -0.221 NA
ATOM      5  C   UNL d   1      26.435 -15.493  -0.738  0.00  0.00     0.104 A 
ATOM      6  C   UNL d   1      25.861 -16.708  -0.261  0.00  0.00     0.021 A 
ATOM      7  C   UNL d   1      26.843 -17.330   0.504  0.00  0.00     0.103 A 
ATOM      8  N   UNL d   1      27.957 -16.530   0.504  0.00  0.00    -0.359 N 
ATOM      9  C   UNL d   1      27.701 -15.418  -0.246  0.00  0.00     0.131 A 
ATOM     10  C   UNL d   1      28.570 -14.335  -0.498  0.00  0.00     0.278 A 
ATOM     11  O   UNL d   1      29.711 -14.284  -0.043  0.00  0.00    -0.265 OA
ATOM     12  H   UNL d   1      28.833 -16.722   0.978  0.00  0.00     0.165 HD
ENDROOT
BRANCH   3  13
ATOM     13  S   UNL d   1      25.923 -12.200  -2.816  0.00  0.00    -0.082 SA
BRANCH  13  14
ATOM     14  C   UNL d   1      25.821 -12.658  -4.572  0.00  0.00     0.185 C 
BRANCH  14  15
ATOM     15  C   UNL d   1      26.912 -13.577  -5.075  0.00  0.00     0.231 C 
ATOM     16  O   UNL d   1      27.574 -13.284  -6.034  0.00  0.00    -0.272 OA
ATOM     17  N   UNL d   1      27.042 -14.800  -4.311  0.00  0.00    -0.326 N 
ATOM     18  H   UNL d   1      26.441 -15.034  -3.535  0.00  0.00     0.169 HD
BRANCH  17  19
ATOM     19  C   UNL d   1      28.218 -15.575  -4.498  0.00  0.00     0.037 C 
ATOM     20  C   UNL d   1      29.118 -15.648  -5.574  0.00  0.00     0.032 C 
ATOM     21  C   UNL d   1      30.431 -16.367  -5.404  0.00  0.00     0.042 C 
ATOM     22  C   UNL d   1      30.761 -17.002  -4.152  0.00  0.00     0.102 C 
ATOM     23  C   UNL d   1      29.787 -16.783  -3.250  0.00  0.00     0.104 C 
ATOM     24  O   UNL d   1      31.811 -17.702  -3.489  0.00  0.00    -0.346 OA
ATOM     25  C   UNL d   1      28.538 -16.289  -3.404  0.00  0.00     0.069 C 
ATOM     26  O   UNL d   1      30.212 -16.403  -2.017  0.00  0.00    -0.346 OA
ATOM     27  C   UNL d   1      30.249 -17.582  -1.298  0.00  0.00     0.202 C 
ATOM     28  C   UNL d   1      31.535 -18.151  -1.893  0.00  0.00     0.202 C 
ENDBRANCH  17  19
ENDBRANCH  14  15
ENDBRANCH  13  14
ENDBRANCH   3  13
BRANCH   6  29
ATOM     29  C   UNL d   1      24.559 -17.319  -0.451  0.00  0.00    -0.022 A 
ATOM     30  C   UNL d   1      24.404 -18.712  -0.370  0.00  0.00     0.012 A 
ATOM     31  C   UNL d   1      23.143 -19.295  -0.521  0.00  0.00     0.001 A 
ATOM     32  C   UNL d   1      22.033 -18.493  -0.774  0.00  0.00     0.000 A 
ATOM     33  C   UNL d   1      22.186 -17.112  -0.895  0.00  0.00     0.001 A 
ATOM     34  C   UNL d   1      23.445 -16.526  -0.738  0.00  0.00     0.012 A 
ENDBRANCH   6  29
TORSDOF 5
ENDMDL
MODEL 8
REMARK VINA RESULT:    -7.159      2.625      6.065
REMARK INTER + INTRA:         -11.721
REMARK INTER:                  -8.650
REMARK INTRA:                  -3.070
REMARK CONF_INDEPENDENT:        1.492
REMARK UNBOUND:                -3.070
REMARK  5 active torsions:
REMARK  status: ('A' for Active; 'I' for Inactive)
REMARK    1  A    between atoms: C_3  and  S_4 
REMARK    2  A    between atoms: S_4  and  C_5 
REMARK    3  A    between atoms: C_5  and  C_6 
REMARK       I    between atoms: C_6  and  N_8 
REMARK    4  A    between atoms: N_8  and  C_9 
REMARK    5  A    between atoms: C_21  and  C_22 
ROOT
ATOM      1  C   UNL d   1      28.963 -13.554  -6.550  0.00  0.00     0.162 C 
ATOM      2  N   UNL d   1      28.146 -14.135  -5.522  0.00  0.00    -0.296 N 
ATOM      3  C   UNL d   1      28.406 -15.262  -4.727  0.00  0.00     0.172 A 
ATOM      4  N   UNL d   1      27.593 -15.707  -3.795  0.00  0.00    -0.221 NA
ATOM      5  C   UNL d   1      26.398 -14.989  -3.614  0.00  0.00     0.104 A 
ATOM      6  C   UNL d   1      25.300 -15.200  -2.728  0.00  0.00     0.021 A 
ATOM      7  C   UNL d   1      24.387 -14.184  -2.989  0.00  0.00     0.103 A 
ATOM      8  N   UNL d   1      24.894 -13.399  -3.992  0.00  0.00    -0.359 N 
ATOM      9  C   UNL d   1      26.109 -13.895  -4.369  0.00  0.00     0.131 A 
ATOM     10  C   UNL d   1      26.966 -13.396  -5.373  0.00  0.00     0.278 A 
ATOM     11  O   UNL d   1      26.688 -12.406  -6.047  0.00  0.00    -0.265 OA
ATOM     12  H   UNL d   1      24.451 -12.581  -4.396  0.00  0.00     0.165 HD
ENDROOT
BRANCH   3  13
ATOM     13  S   UNL d   1      29.892 -16.249  -4.889  0.00  0.00    -0.082 SA
BRANCH  13  14
ATOM     14  C   UNL d   1      30.857 -16.369  -3.353  0.00  0.00     0.185 C 
BRANCH  14  15
ATOM     15  C   UNL d   1      30.490 -15.380  -2.268  0.00  0.00     0.231 C 
ATOM     16  O   UNL d   1      31.255 -14.514  -1.937  0.00  0.00    -0.272 OA
ATOM     17  N   UNL d   1      29.180 -15.602  -1.695  0.00  0.00    -0.326 N 
ATOM     18  H   UNL d   1      28.578 -16.365  -1.969  0.00  0.00     0.169 HD
BRANCH  17  19
ATOM     19  C   UNL d   1      28.618 -14.562  -0.906  0.00  0.00     0.037 C 
ATOM     20  C   UNL d   1      27.866 -13.432  -1.265  0.00  0.00     0.032 C 
ATOM     21  C   UNL d   1      27.173 -12.624  -0.197  0.00  0.00     0.042 C 
ATOM     22  C   UNL d   1      27.296 -12.990   1.192  0.00  0.00     0.102 C 
ATOM     23  C   UNL d   1      28.022 -14.116   1.313  0.00  0.00     0.104 C 
ATOM     24  O   UNL d   1      26.831 -12.637   2.492  0.00  0.00    -0.346 OA
ATOM     25  C   UNL d   1      28.787 -14.772   0.411  0.00  0.00     0.069 C 
ATOM     26  O   UNL d   1      27.507 -15.053   2.150  0.00  0.00    -0.346 OA
ATOM     27  C   UNL d   1      28.152 -14.823   3.349  0.00  0.00     0.202 C 
ATOM     28  C   UNL d   1      27.370 -13.582   3.774  0.00  0.00     0.202 C 
ENDBRANCH  17  19
ENDBRANCH  14  15
ENDBRANCH  13  14
ENDBRANCH   3  13
BRANCH   6  29
ATOM     29  C   UNL d   1      25.042 -16.197  -1.706  0.00  0.00    -0.022 A 
ATOM     30  C   UNL d   1      23.731 -16.457  -1.275  0.00  0.00     0.012 A 
ATOM     31  C   UNL d   1      23.482 -17.440  -0.314  0.00  0.00     0.001 A 
ATOM     32  C   UNL d   1      24.542 -18.156   0.238  0.00  0.00     0.000 A 
ATOM     33  C   UNL d   1      25.851 -17.875  -0.156  0.00  0.00     0.001 A 
ATOM     34  C   UNL d   1      26.101 -16.896  -1.121  0.00  0.00     0.012 A 
ENDBRANCH   6  29
TORSDOF 5
ENDMDL
MODEL 9
REMARK VINA RESULT:    -6.766      2.377      6.064
REMARK INTER + INTRA:         -11.506
REMARK INTER:                  -8.258
REMARK INTRA:                  -3.248
REMARK CONF_INDEPENDENT:        1.492
REMARK UNBOUND:                -3.248
REMARK  5 active torsions:
REMARK  status: ('A' for Active; 'I' for Inactive)
REMARK    1  A    between atoms: C_3  and  S_4 
REMARK    2  A    between atoms: S_4  and  C_5 
REMARK    3  A    between atoms: C_5  and  C_6 
REMARK       I    between atoms: C_6  and  N_8 
REMARK    4  A    between atoms: N_8  and  C_9 
REMARK    5  A    between atoms: C_21  and  C_22 
ROOT
ATOM      1  C   UNL d   1      27.030 -14.680   0.981  0.00  0.00     0.162 C 
ATOM      2  N   UNL d   1      27.732 -15.335  -0.087  0.00  0.00    -0.296 N 
ATOM      3  C   UNL d   1      27.625 -16.665  -0.521  0.00  0.00     0.172 A 
ATOM      4  N   UNL d   1      28.307 -17.166  -1.527  0.00  0.00    -0.221 NA
ATOM      5  C   UNL d   1      29.190 -16.290  -2.182  0.00  0.00     0.104 A 
ATOM      6  C   UNL d   1      30.084 -16.499  -3.273  0.00  0.00     0.021 A 
ATOM      7  C   UNL d   1      30.717 -15.280  -3.497  0.00  0.00     0.103 A 
ATOM      8  N   UNL d   1      30.244 -14.376  -2.581  0.00  0.00    -0.359 N 
ATOM      9  C   UNL d   1      29.324 -14.995  -1.786  0.00  0.00     0.131 A 
ATOM     10  C   UNL d   1      28.603 -14.433  -0.711  0.00  0.00     0.278 A 
ATOM     11  O   UNL d   1      28.738 -13.261  -0.366  0.00  0.00    -0.265 OA
ATOM     12  H   UNL d   1      30.523 -13.404  -2.499  0.00  0.00     0.165 HD
ENDROOT
BRANCH   3  13
ATOM     13  S   UNL d   1      26.539 -17.861   0.252  0.00  0.00    -0.082 SA
BRANCH  13  14
ATOM     14  C   UNL d   1      24.811 -17.738  -0.299  0.00  0.00     0.185 C 
BRANCH  14  15
ATOM     15  C   UNL d   1      24.528 -16.681  -1.344  0.00  0.00     0.231 C 
ATOM     16  O   UNL d   1      23.541 -15.999  -1.283  0.00  0.00    -0.272 OA
ATOM     17  N   UNL d   1      25.533 -16.606  -2.383  0.00  0.00    -0.326 N 
ATOM     18  H   UNL d   1      26.332 -17.222  -2.426  0.00  0.00     0.169 HD
BRANCH  17  19
ATOM     19  C   UNL d   1      25.532 -15.461  -3.224  0.00  0.00     0.037 C 
ATOM     20  C   UNL d   1      24.853 -14.236  -3.118  0.00  0.00     0.032 C 
ATOM     21  C   UNL d   1      25.233 -13.090  -4.021  0.00  0.00     0.042 C 
ATOM     22  C   UNL d   1      26.272 -13.249  -5.008  0.00  0.00     0.102 C 
ATOM     23  C   UNL d   1      26.813 -14.477  -4.917  0.00  0.00     0.104 C 
ATOM     24  O   UNL d   1      27.007 -12.526  -5.991  0.00  0.00    -0.346 OA
ATOM     25  C   UNL d   1      26.402 -15.574  -4.243  0.00  0.00     0.069 C 
ATOM     26  O   UNL d   1      28.171 -14.516  -4.944  0.00  0.00    -0.346 OA
ATOM     27  C   UNL d   1      28.473 -14.769  -6.268  0.00  0.00     0.202 C 
ATOM     28  C   UNL d   1      28.205 -13.370  -6.816  0.00  0.00     0.202 C 
ENDBRANCH  17  19
ENDBRANCH  14  15
ENDBRANCH  13  14
ENDBRANCH   3  13
BRANCH   6  29
ATOM     29  C   UNL d   1      30.377 -17.659  -4.093  0.00  0.00    -0.022 A 
ATOM     30  C   UNL d   1      30.915 -18.823  -3.520  0.00  0.00     0.012 A 
ATOM     31  C   UNL d   1      31.165 -19.950  -4.306  0.00  0.00     0.001 A 
ATOM     32  C   UNL d   1      30.901 -19.916  -5.673  0.00  0.00     0.000 A 
ATOM     33  C   UNL d   1      30.405 -18.750  -6.257  0.00  0.00     0.001 A 
ATOM     34  C   UNL d   1      30.147 -17.624  -5.470  0.00  0.00     0.012 A 
ENDBRANCH   6  29
TORSDOF 5
ENDMDL
