MODEL 1
REMARK VINA RESULT:   -31.845      0.000      0.000
REMARK INTER + INTRA:         -35.162
REMARK INTER:                 -33.933
REMARK INTRA:                  -1.229
REMARK CONF_INDEPENDENT:        2.088
REMARK UNBOUND:                -1.229
REMARK  7 active torsions:
REMARK  status: ('A' for Active; 'I' for Inactive)
REMARK    1  A    between atoms: C_2  and  C_3 
REMARK       I    between atoms: C_3  and  N_5 
REMARK    2  A    between atoms: N_5  and  C_6 
REMARK    3  A    between atoms: C_9  and  S_10 
REMARK    4  A    between atoms: S_10  and  N_13 
REMARK    5  A    between atoms: N_13  and  C_14 
REMARK    6  A    between atoms: C_17  and  O_18 
REMARK    7  A    between atoms: O_18  and  C_19 
ROOT
ATOM      1  S   UNL d   1      27.905 -16.045  -0.768  0.00  0.00     0.263 S 
ATOM      2  O   UNL d   1      28.244 -17.121  -1.683  0.00  0.00    -0.200 OA
ATOM      3  O   UNL d   1      28.925 -15.351  -0.017  0.00  0.00    -0.200 OA
ENDROOT
BRANCH   1   4
ATOM      4  C   UNL d   1      27.101 -14.781  -1.760  0.00  0.00     0.080 A 
ATOM      5  C   UNL d   1      26.729 -15.117  -3.075  0.00  0.00     0.027 A 
ATOM      6  C   UNL d   1      26.242 -14.133  -3.957  0.00  0.00     0.031 A 
ATOM      7  C   UNL d   1      26.099 -12.812  -3.526  0.00  0.00     0.034 A 
ATOM      8  C   UNL d   1      26.426 -12.501  -2.200  0.00  0.00     0.031 A 
ATOM      9  C   UNL d   1      26.918 -13.474  -1.317  0.00  0.00     0.027 A 
BRANCH   7  10
ATOM     10  N   UNL d   1      25.617 -11.815  -4.415  0.00  0.00    -0.327 N 
ATOM     11  C   UNL d   1      26.198 -11.610  -5.662  0.00  0.00     0.221 C 
ATOM     12  O   UNL d   1      27.160 -12.253  -6.078  0.00  0.00    -0.273 OA
ATOM     13  H   UNL d   1      24.691 -11.441  -4.246  0.00  0.00     0.169 HD
BRANCH  11  14
ATOM     14  C   UNL d   1      25.528 -10.549  -6.530  0.00  0.00     0.098 C 
ATOM     15  C   UNL d   1      25.255  -9.293  -5.703  0.00  0.00     0.014 C 
ENDBRANCH  11  14
ENDBRANCH   7  10
ENDBRANCH   1   4
BRANCH   1  16
ATOM     16  N   UNL d   1      26.764 -16.643   0.319  0.00  0.00    -0.281 N 
ATOM     17  H   UNL d   1      26.938 -16.654   1.315  0.00  0.00     0.179 HD
BRANCH  16  18
ATOM     18  C   UNL d   1      25.491 -17.111  -0.137  0.00  0.00     0.042 A 
ATOM     19  C   UNL d   1      24.506 -16.188  -0.505  0.00  0.00     0.033 A 
ATOM     20  C   UNL d   1      23.221 -16.623  -0.884  0.00  0.00     0.039 A 
ATOM     21  C   UNL d   1      22.928 -17.988  -0.957  0.00  0.00     0.079 A 
ATOM     22  C   UNL d   1      23.907 -18.898  -0.549  0.00  0.00     0.039 A 
ATOM     23  C   UNL d   1      25.166 -18.463  -0.126  0.00  0.00     0.033 A 
BRANCH  21  24
ATOM     24  O   UNL d   1      21.696 -18.335  -1.485  0.00  0.00    -0.277 OA
BRANCH  24  25
ATOM     25  C   UNL d   1      20.772 -18.909  -0.619  0.00  0.00     0.273 A 
ATOM     26  N   UNL d   1      19.607 -19.324  -1.151  0.00  0.00    -0.219 NA
ATOM     27  C   UNL d   1      18.777 -19.972  -0.308  0.00  0.00     0.122 A 
ATOM     28  C   UNL d   1      19.068 -20.213   1.016  0.00  0.00     0.039 A 
ATOM     29  C   UNL d   1      20.268 -19.711   1.458  0.00  0.00     0.122 A 
ATOM     30  N   UNL d   1      21.129 -19.039   0.673  0.00  0.00    -0.219 NA
ENDBRANCH  24  25
ENDBRANCH  21  24
ENDBRANCH  16  18
ENDBRANCH   1  16
TORSDOF 7
ENDMDL
MODEL 2
REMARK VINA RESULT:   -31.802      4.264      6.497
REMARK INTER + INTRA:         -34.567
REMARK INTER:                 -33.891
REMARK INTRA:                  -0.677
REMARK CONF_INDEPENDENT:        2.088
REMARK UNBOUND:                -0.677
REMARK  7 active torsions:
REMARK  status: ('A' for Active; 'I' for Inactive)
REMARK    1  A    between atoms: C_2  and  C_3 
REMARK       I    between atoms: C_3  and  N_5 
REMARK    2  A    between atoms: N_5  and  C_6 
REMARK    3  A    between atoms: C_9  and  S_10 
REMARK    4  A    between atoms: S_10  and  N_13 
REMARK    5  A    between atoms: N_13  and  C_14 
REMARK    6  A    between atoms: C_17  and  O_18 
REMARK    7  A    between atoms: O_18  and  C_19 
ROOT
ATOM      1  S   UNL d   1      27.260 -14.868   0.105  0.00  0.00     0.263 S 
ATOM      2  O   UNL d   1      25.970 -14.200   0.078  0.00  0.00    -0.200 OA
ATOM      3  O   UNL d   1      28.210 -14.706  -0.970  0.00  0.00    -0.200 OA
ENDROOT
BRANCH   1   4
ATOM      4  C   UNL d   1      28.099 -14.272   1.577  0.00  0.00     0.080 A 
ATOM      5  C   UNL d   1      29.494 -14.441   1.650  0.00  0.00     0.027 A 
ATOM      6  C   UNL d   1      30.194 -14.142   2.836  0.00  0.00     0.031 A 
ATOM      7  C   UNL d   1      29.508 -13.652   3.950  0.00  0.00     0.034 A 
ATOM      8  C   UNL d   1      28.127 -13.442   3.848  0.00  0.00     0.031 A 
ATOM      9  C   UNL d   1      27.423 -13.741   2.672  0.00  0.00     0.027 A 
BRANCH   7  10
ATOM     10  N   UNL d   1      30.207 -13.359   5.151  0.00  0.00    -0.327 N 
ATOM     11  C   UNL d   1      29.631 -13.574   6.398  0.00  0.00     0.221 C 
ATOM     12  O   UNL d   1      28.493 -14.014   6.555  0.00  0.00    -0.273 OA
ATOM     13  H   UNL d   1      31.212 -13.246   5.096  0.00  0.00     0.169 HD
BRANCH  11  14
ATOM     14  C   UNL d   1      30.529 -13.275   7.595  0.00  0.00     0.098 C 
ATOM     15  C   UNL d   1      30.901 -14.576   8.307  0.00  0.00     0.014 C 
ENDBRANCH  11  14
ENDBRANCH   7  10
ENDBRANCH   1   4
BRANCH   1  16
ATOM     16  N   UNL d   1      26.974 -16.516   0.313  0.00  0.00    -0.281 N 
ATOM     17  H   UNL d   1      27.639 -17.113   0.786  0.00  0.00     0.179 HD
BRANCH  16  18
ATOM     18  C   UNL d   1      25.754 -17.112  -0.139  0.00  0.00     0.042 A 
ATOM     19  C   UNL d   1      24.938 -16.417  -1.040  0.00  0.00     0.033 A 
ATOM     20  C   UNL d   1      23.697 -16.948  -1.440  0.00  0.00     0.039 A 
ATOM     21  C   UNL d   1      23.287 -18.208  -0.990  0.00  0.00     0.079 A 
ATOM     22  C   UNL d   1      24.091 -18.872  -0.061  0.00  0.00     0.039 A 
ATOM     23  C   UNL d   1      25.300 -18.322   0.374  0.00  0.00     0.033 A 
BRANCH  21  24
ATOM     24  O   UNL d   1      22.130 -18.724  -1.549  0.00  0.00    -0.277 OA
BRANCH  24  25
ATOM     25  C   UNL d   1      21.089 -19.035  -0.682  0.00  0.00     0.273 A 
ATOM     26  N   UNL d   1      19.895 -19.322  -1.234  0.00  0.00    -0.219 NA
ATOM     27  C   UNL d   1      18.935 -19.723  -0.376  0.00  0.00     0.122 A 
ATOM     28  C   UNL d   1      19.126 -19.843   0.983  0.00  0.00     0.039 A 
ATOM     29  C   UNL d   1      20.373 -19.487   1.438  0.00  0.00     0.122 A 
ATOM     30  N   UNL d   1      21.365 -19.060   0.636  0.00  0.00    -0.219 NA
ENDBRANCH  24  25
ENDBRANCH  21  24
ENDBRANCH  16  18
ENDBRANCH   1  16
TORSDOF 7
ENDMDL
MODEL 3
REMARK VINA RESULT:   -31.619      4.177      6.305
REMARK INTER + INTRA:         -34.179
REMARK INTER:                 -33.707
REMARK INTRA:                  -0.472
REMARK CONF_INDEPENDENT:        2.088
REMARK UNBOUND:                -0.472
REMARK  7 active torsions:
REMARK  status: ('A' for Active; 'I' for Inactive)
REMARK    1  A    between atoms: C_2  and  C_3 
REMARK       I    between atoms: C_3  and  N_5 
REMARK    2  A    between atoms: N_5  and  C_6 
REMARK    3  A    between atoms: C_9  and  S_10 
REMARK    4  A    between atoms: S_10  and  N_13 
REMARK    5  A    between atoms: N_13  and  C_14 
REMARK    6  A    between atoms: C_17  and  O_18 
REMARK    7  A    between atoms: O_18  and  C_19 
ROOT
ATOM      1  S   UNL d   1      27.437 -15.256   0.016  0.00  0.00     0.263 S 
ATOM      2  O   UNL d   1      26.271 -14.390  -0.002  0.00  0.00    -0.200 OA
ATOM      3  O   UNL d   1      28.373 -15.274  -1.084  0.00  0.00    -0.200 OA
ENDROOT
BRANCH   1   4
ATOM      4  C   UNL d   1      28.399 -14.767   1.452  0.00  0.00     0.080 A 
ATOM      5  C   UNL d   1      27.798 -14.891   2.718  0.00  0.00     0.027 A 
ATOM      6  C   UNL d   1      28.432 -14.380   3.868  0.00  0.00     0.031 A 
ATOM      7  C   UNL d   1      29.681 -13.764   3.765  0.00  0.00     0.034 A 
ATOM      8  C   UNL d   1      30.291 -13.691   2.507  0.00  0.00     0.031 A 
ATOM      9  C   UNL d   1      29.664 -14.192   1.355  0.00  0.00     0.027 A 
BRANCH   7  10
ATOM     10  N   UNL d   1      30.320 -13.239   4.920  0.00  0.00    -0.327 N 
ATOM     11  C   UNL d   1      29.590 -12.819   6.027  0.00  0.00     0.221 C 
ATOM     12  O   UNL d   1      28.363 -12.857   6.086  0.00  0.00    -0.273 OA
ATOM     13  H   UNL d   1      31.310 -13.421   5.034  0.00  0.00     0.169 HD
BRANCH  11  14
ATOM     14  C   UNL d   1      30.420 -12.342   7.216  0.00  0.00     0.098 C 
ATOM     15  C   UNL d   1      29.784 -12.819   8.521  0.00  0.00     0.014 C 
ENDBRANCH  11  14
ENDBRANCH   7  10
ENDBRANCH   1   4
BRANCH   1  16
ATOM     16  N   UNL d   1      26.896 -16.831   0.276  0.00  0.00    -0.281 N 
ATOM     17  H   UNL d   1      27.454 -17.504   0.784  0.00  0.00     0.179 HD
BRANCH  16  18
ATOM     18  C   UNL d   1      25.606 -17.248  -0.179  0.00  0.00     0.042 A 
ATOM     19  C   UNL d   1      24.746 -16.314  -0.769  0.00  0.00     0.033 A 
ATOM     20  C   UNL d   1      23.443 -16.682  -1.156  0.00  0.00     0.039 A 
ATOM     21  C   UNL d   1      23.008 -18.004  -1.012  0.00  0.00     0.079 A 
ATOM     22  C   UNL d   1      23.861 -18.917  -0.386  0.00  0.00     0.039 A 
ATOM     23  C   UNL d   1      25.137 -18.538   0.043  0.00  0.00     0.033 A 
BRANCH  21  24
ATOM     24  O   UNL d   1      21.774 -18.318  -1.556  0.00  0.00    -0.277 OA
BRANCH  24  25
ATOM     25  C   UNL d   1      20.838 -18.906  -0.713  0.00  0.00     0.273 A 
ATOM     26  N   UNL d   1      19.685 -19.320  -1.270  0.00  0.00    -0.219 NA
ATOM     27  C   UNL d   1      18.843 -19.981  -0.449  0.00  0.00     0.122 A 
ATOM     28  C   UNL d   1      19.113 -20.236   0.877  0.00  0.00     0.039 A 
ATOM     29  C   UNL d   1      20.304 -19.736   1.346  0.00  0.00     0.122 A 
ATOM     30  N   UNL d   1      21.175 -19.050   0.583  0.00  0.00    -0.219 NA
ENDBRANCH  24  25
ENDBRANCH  21  24
ENDBRANCH  16  18
ENDBRANCH   1  16
TORSDOF 7
ENDMDL
MODEL 4
REMARK VINA RESULT:   -31.322      1.795      2.174
REMARK INTER + INTRA:         -34.302
REMARK INTER:                 -33.411
REMARK INTRA:                  -0.892
REMARK CONF_INDEPENDENT:        2.088
REMARK UNBOUND:                -0.892
REMARK  7 active torsions:
REMARK  status: ('A' for Active; 'I' for Inactive)
REMARK    1  A    between atoms: C_2  and  C_3 
REMARK       I    between atoms: C_3  and  N_5 
REMARK    2  A    between atoms: N_5  and  C_6 
REMARK    3  A    between atoms: C_9  and  S_10 
REMARK    4  A    between atoms: S_10  and  N_13 
REMARK    5  A    between atoms: N_13  and  C_14 
REMARK    6  A    between atoms: C_17  and  O_18 
REMARK    7  A    between atoms: O_18  and  C_19 
ROOT
ATOM      1  S   UNL d   1      27.268 -15.076   0.399  0.00  0.00     0.263 S 
ATOM      2  O   UNL d   1      28.500 -14.871   1.139  0.00  0.00    -0.200 OA
ATOM      3  O   UNL d   1      26.077 -14.315   0.701  0.00  0.00    -0.200 OA
ENDROOT
BRANCH   1   4
ATOM      4  C   UNL d   1      27.648 -14.702  -1.316  0.00  0.00     0.080 A 
ATOM      5  C   UNL d   1      28.993 -14.461  -1.653  0.00  0.00     0.027 A 
ATOM      6  C   UNL d   1      29.342 -14.009  -2.941  0.00  0.00     0.031 A 
ATOM      7  C   UNL d   1      28.354 -13.817  -3.909  0.00  0.00     0.034 A 
ATOM      8  C   UNL d   1      27.025 -14.107  -3.577  0.00  0.00     0.031 A 
ATOM      9  C   UNL d   1      26.668 -14.553  -2.294  0.00  0.00     0.027 A 
BRANCH   7  10
ATOM     10  N   UNL d   1      28.700 -13.352  -5.205  0.00  0.00    -0.327 N 
ATOM     11  C   UNL d   1      28.414 -14.095  -6.345  0.00  0.00     0.221 C 
ATOM     12  O   UNL d   1      27.862 -15.194  -6.319  0.00  0.00    -0.273 OA
ATOM     13  H   UNL d   1      28.912 -12.367  -5.311  0.00  0.00     0.169 HD
BRANCH  11  14
ATOM     14  C   UNL d   1      28.786 -13.434  -7.669  0.00  0.00     0.098 C 
ATOM     15  C   UNL d   1      27.912 -12.202  -7.901  0.00  0.00     0.014 C 
ENDBRANCH  11  14
ENDBRANCH   7  10
ENDBRANCH   1   4
BRANCH   1  16
ATOM     16  N   UNL d   1      26.885 -16.715   0.492  0.00  0.00    -0.281 N 
ATOM     17  H   UNL d   1      27.514 -17.381   0.920  0.00  0.00     0.179 HD
BRANCH  16  18
ATOM     18  C   UNL d   1      25.632 -17.204   0.004  0.00  0.00     0.042 A 
ATOM     19  C   UNL d   1      24.788 -16.348  -0.713  0.00  0.00     0.033 A 
ATOM     20  C   UNL d   1      23.518 -16.783  -1.138  0.00  0.00     0.039 A 
ATOM     21  C   UNL d   1      23.104 -18.098  -0.902  0.00  0.00     0.079 A 
ATOM     22  C   UNL d   1      23.939 -18.930  -0.152  0.00  0.00     0.039 A 
ATOM     23  C   UNL d   1      25.179 -18.482   0.312  0.00  0.00     0.033 A 
BRANCH  21  24
ATOM     24  O   UNL d   1      21.911 -18.491  -1.485  0.00  0.00    -0.277 OA
BRANCH  24  25
ATOM     25  C   UNL d   1      20.921 -18.980  -0.639  0.00  0.00     0.273 A 
ATOM     26  N   UNL d   1      19.747 -19.322  -1.202  0.00  0.00    -0.219 NA
ATOM     27  C   UNL d   1      18.846 -19.891  -0.374  0.00  0.00     0.122 A 
ATOM     28  C   UNL d   1      19.078 -20.123   0.963  0.00  0.00     0.039 A 
ATOM     29  C   UNL d   1      20.296 -19.699   1.435  0.00  0.00     0.122 A 
ATOM     30  N   UNL d   1      21.227 -19.107   0.667  0.00  0.00    -0.219 NA
ENDBRANCH  24  25
ENDBRANCH  21  24
ENDBRANCH  16  18
ENDBRANCH   1  16
TORSDOF 7
ENDMDL
MODEL 5
REMARK VINA RESULT:   -31.309      3.029      4.178
REMARK INTER + INTRA:         -34.035
REMARK INTER:                 -33.397
REMARK INTRA:                  -0.638
REMARK CONF_INDEPENDENT:        2.088
REMARK UNBOUND:                -0.638
REMARK  7 active torsions:
REMARK  status: ('A' for Active; 'I' for Inactive)
REMARK    1  A    between atoms: C_2  and  C_3 
REMARK       I    between atoms: C_3  and  N_5 
REMARK    2  A    between atoms: N_5  and  C_6 
REMARK    3  A    between atoms: C_9  and  S_10 
REMARK    4  A    between atoms: S_10  and  N_13 
REMARK    5  A    between atoms: N_13  and  C_14 
REMARK    6  A    between atoms: C_17  and  O_18 
REMARK    7  A    between atoms: O_18  and  C_19 
ROOT
ATOM      1  S   UNL d   1      27.698 -15.824  -0.302  0.00  0.00     0.263 S 
ATOM      2  O   UNL d   1      28.911 -15.718   0.490  0.00  0.00    -0.200 OA
ATOM      3  O   UNL d   1      26.735 -14.748  -0.345  0.00  0.00    -0.200 OA
ENDROOT
BRANCH   1   4
ATOM      4  C   UNL d   1      28.230 -16.056  -2.001  0.00  0.00     0.080 A 
ATOM      5  C   UNL d   1      29.320 -16.914  -2.237  0.00  0.00     0.027 A 
ATOM      6  C   UNL d   1      29.889 -17.018  -3.522  0.00  0.00     0.031 A 
ATOM      7  C   UNL d   1      29.358 -16.283  -4.585  0.00  0.00     0.034 A 
ATOM      8  C   UNL d   1      28.243 -15.470  -4.348  0.00  0.00     0.031 A 
ATOM      9  C   UNL d   1      27.674 -15.357  -3.070  0.00  0.00     0.027 A 
BRANCH   7  10
ATOM     10  N   UNL d   1      29.934 -16.377  -5.880  0.00  0.00    -0.327 N 
ATOM     11  C   UNL d   1      30.650 -17.501  -6.278  0.00  0.00     0.221 C 
ATOM     12  O   UNL d   1      30.845 -18.475  -5.552  0.00  0.00    -0.273 OA
ATOM     13  H   UNL d   1      29.596 -15.742  -6.593  0.00  0.00     0.169 HD
BRANCH  11  14
ATOM     14  C   UNL d   1      31.150 -17.483  -7.720  0.00  0.00     0.098 C 
ATOM     15  C   UNL d   1      31.734 -18.847  -8.086  0.00  0.00     0.014 C 
ENDBRANCH  11  14
ENDBRANCH   7  10
ENDBRANCH   1   4
BRANCH   1  16
ATOM     16  N   UNL d   1      26.898 -17.228   0.179  0.00  0.00    -0.281 N 
ATOM     17  H   UNL d   1      27.355 -17.929   0.747  0.00  0.00     0.179 HD
BRANCH  16  18
ATOM     18  C   UNL d   1      25.528 -17.448  -0.170  0.00  0.00     0.042 A 
ATOM     19  C   UNL d   1      24.684 -16.351  -0.377  0.00  0.00     0.033 A 
ATOM     20  C   UNL d   1      23.315 -16.541  -0.646  0.00  0.00     0.039 A 
ATOM     21  C   UNL d   1      22.789 -17.831  -0.771  0.00  0.00     0.079 A 
ATOM     22  C   UNL d   1      23.633 -18.916  -0.524  0.00  0.00     0.039 A 
ATOM     23  C   UNL d   1      24.982 -18.726  -0.208  0.00  0.00     0.033 A 
BRANCH  21  24
ATOM     24  O   UNL d   1      21.472 -17.931  -1.188  0.00  0.00    -0.277 OA
BRANCH  24  25
ATOM     25  C   UNL d   1      20.670 -18.864  -0.541  0.00  0.00     0.273 A 
ATOM     26  N   UNL d   1      21.013 -19.202   0.716  0.00  0.00    -0.219 NA
ATOM     27  C   UNL d   1      20.156 -20.026   1.354  0.00  0.00     0.122 A 
ATOM     28  C   UNL d   1      18.997 -20.509   0.789  0.00  0.00     0.039 A 
ATOM     29  C   UNL d   1      18.768 -20.126  -0.510  0.00  0.00     0.122 A 
ATOM     30  N   UNL d   1      19.593 -19.324  -1.207  0.00  0.00    -0.219 NA
ENDBRANCH  24  25
ENDBRANCH  21  24
ENDBRANCH  16  18
ENDBRANCH   1  16
TORSDOF 7
ENDMDL
MODEL 6
REMARK VINA RESULT:   -31.189      3.115      4.461
REMARK INTER + INTRA:         -33.997
REMARK INTER:                 -33.277
REMARK INTRA:                  -0.720
REMARK CONF_INDEPENDENT:        2.088
REMARK UNBOUND:                -0.720
REMARK  7 active torsions:
REMARK  status: ('A' for Active; 'I' for Inactive)
REMARK    1  A    between atoms: C_2  and  C_3 
REMARK       I    between atoms: C_3  and  N_5 
REMARK    2  A    between atoms: N_5  and  C_6 
REMARK    3  A    between atoms: C_9  and  S_10 
REMARK    4  A    between atoms: S_10  and  N_13 
REMARK    5  A    between atoms: N_13  and  C_14 
REMARK    6  A    between atoms: C_17  and  O_18 
REMARK    7  A    between atoms: O_18  and  C_19 
ROOT
ATOM      1  S   UNL d   1      27.603 -15.703  -0.094  0.00  0.00     0.263 S 
ATOM      2  O   UNL d   1      28.586 -15.366   0.921  0.00  0.00    -0.200 OA
ATOM      3  O   UNL d   1      26.604 -14.749  -0.514  0.00  0.00    -0.200 OA
ENDROOT
BRANCH   1   4
ATOM      4  C   UNL d   1      28.534 -16.101  -1.577  0.00  0.00     0.080 A 
ATOM      5  C   UNL d   1      28.189 -15.436  -2.768  0.00  0.00     0.027 A 
ATOM      6  C   UNL d   1      28.767 -15.812  -3.996  0.00  0.00     0.031 A 
ATOM      7  C   UNL d   1      29.711 -16.840  -4.041  0.00  0.00     0.034 A 
ATOM      8  C   UNL d   1      30.083 -17.461  -2.842  0.00  0.00     0.031 A 
ATOM      9  C   UNL d   1      29.508 -17.096  -1.615  0.00  0.00     0.027 A 
BRANCH   7  10
ATOM     10  N   UNL d   1      30.289 -17.230  -5.278  0.00  0.00    -0.327 N 
ATOM     11  C   UNL d   1      30.643 -18.550  -5.532  0.00  0.00     0.221 C 
ATOM     12  O   UNL d   1      30.497 -19.461  -4.718  0.00  0.00    -0.273 OA
ATOM     13  H   UNL d   1      30.196 -16.595  -6.062  0.00  0.00     0.169 HD
BRANCH  11  14
ATOM     14  C   UNL d   1      31.191 -18.826  -6.929  0.00  0.00     0.098 C 
ATOM     15  C   UNL d   1      30.672 -20.170  -7.438  0.00  0.00     0.014 C 
ENDBRANCH  11  14
ENDBRANCH   7  10
ENDBRANCH   1   4
BRANCH   1  16
ATOM     16  N   UNL d   1      26.816 -17.106   0.407  0.00  0.00    -0.281 N 
ATOM     17  H   UNL d   1      27.247 -17.751   1.057  0.00  0.00     0.179 HD
BRANCH  16  18
ATOM     18  C   UNL d   1      25.490 -17.403  -0.040  0.00  0.00     0.042 A 
ATOM     19  C   UNL d   1      24.592 -16.356  -0.281  0.00  0.00     0.033 A 
ATOM     20  C   UNL d   1      23.259 -16.626  -0.648  0.00  0.00     0.039 A 
ATOM     21  C   UNL d   1      22.828 -17.943  -0.837  0.00  0.00     0.079 A 
ATOM     22  C   UNL d   1      23.723 -18.978  -0.556  0.00  0.00     0.039 A 
ATOM     23  C   UNL d   1      25.031 -18.711  -0.143  0.00  0.00     0.033 A 
BRANCH  21  24
ATOM     24  O   UNL d   1      21.552 -18.115  -1.347  0.00  0.00    -0.277 OA
BRANCH  24  25
ATOM     25  C   UNL d   1      20.674 -18.900  -0.609  0.00  0.00     0.273 A 
ATOM     26  N   UNL d   1      19.556 -19.321  -1.230  0.00  0.00    -0.219 NA
ATOM     27  C   UNL d   1      18.778 -20.167  -0.524  0.00  0.00     0.122 A 
ATOM     28  C   UNL d   1      19.076 -20.595   0.750  0.00  0.00     0.039 A 
ATOM     29  C   UNL d   1      20.222 -20.072   1.298  0.00  0.00     0.122 A 
ATOM     30  N   UNL d   1      21.028 -19.209   0.654  0.00  0.00    -0.219 NA
ENDBRANCH  24  25
ENDBRANCH  21  24
ENDBRANCH  16  18
ENDBRANCH   1  16
TORSDOF 7
ENDMDL
MODEL 7
REMARK VINA RESULT:   -31.012      3.191      4.483
REMARK INTER + INTRA:         -34.032
REMARK INTER:                 -33.100
REMARK INTRA:                  -0.932
REMARK CONF_INDEPENDENT:        2.088
REMARK UNBOUND:                -0.932
REMARK  7 active torsions:
REMARK  status: ('A' for Active; 'I' for Inactive)
REMARK    1  A    between atoms: C_2  and  C_3 
REMARK       I    between atoms: C_3  and  N_5 
REMARK    2  A    between atoms: N_5  and  C_6 
REMARK    3  A    between atoms: C_9  and  S_10 
REMARK    4  A    between atoms: S_10  and  N_13 
REMARK    5  A    between atoms: N_13  and  C_14 
REMARK    6  A    between atoms: C_17  and  O_18 
REMARK    7  A    between atoms: O_18  and  C_19 
ROOT
ATOM      1  S   UNL d   1      27.885 -16.260  -0.668  0.00  0.00     0.263 S 
ATOM      2  O   UNL d   1      27.187 -15.928  -1.898  0.00  0.00    -0.200 OA
ATOM      3  O   UNL d   1      29.232 -16.782  -0.689  0.00  0.00    -0.200 OA
ENDROOT
BRANCH   1   4
ATOM      4  C   UNL d   1      27.980 -14.736   0.278  0.00  0.00     0.080 A 
ATOM      5  C   UNL d   1      28.231 -14.835   1.658  0.00  0.00     0.027 A 
ATOM      6  C   UNL d   1      28.161 -13.697   2.486  0.00  0.00     0.031 A 
ATOM      7  C   UNL d   1      27.864 -12.448   1.937  0.00  0.00     0.034 A 
ATOM      8  C   UNL d   1      27.665 -12.354   0.554  0.00  0.00     0.031 A 
ATOM      9  C   UNL d   1      27.727 -13.484  -0.276  0.00  0.00     0.027 A 
BRANCH   7  10
ATOM     10  N   UNL d   1      27.783 -11.300   2.768  0.00  0.00    -0.327 N 
ATOM     11  C   UNL d   1      26.773 -10.357   2.610  0.00  0.00     0.221 C 
ATOM     12  O   UNL d   1      25.897 -10.437   1.750  0.00  0.00    -0.273 OA
ATOM     13  H   UNL d   1      28.302 -11.310   3.637  0.00  0.00     0.169 HD
BRANCH  11  14
ATOM     14  C   UNL d   1      26.779  -9.213   3.620  0.00  0.00     0.098 C 
ATOM     15  C   UNL d   1      27.796  -9.498   4.725  0.00  0.00     0.014 C 
ENDBRANCH  11  14
ENDBRANCH   7  10
ENDBRANCH   1   4
BRANCH   1  16
ATOM     16  N   UNL d   1      26.914 -17.335   0.193  0.00  0.00    -0.281 N 
ATOM     17  H   UNL d   1      27.263 -17.833   1.001  0.00  0.00     0.179 HD
BRANCH  16  18
ATOM     18  C   UNL d   1      25.546 -17.542  -0.173  0.00  0.00     0.042 A 
ATOM     19  C   UNL d   1      24.733 -16.439  -0.459  0.00  0.00     0.033 A 
ATOM     20  C   UNL d   1      23.365 -16.612  -0.746  0.00  0.00     0.039 A 
ATOM     21  C   UNL d   1      22.810 -17.894  -0.809  0.00  0.00     0.079 A 
ATOM     22  C   UNL d   1      23.623 -18.983  -0.483  0.00  0.00     0.039 A 
ATOM     23  C   UNL d   1      24.969 -18.807  -0.149  0.00  0.00     0.033 A 
BRANCH  21  24
ATOM     24  O   UNL d   1      21.501 -17.987  -1.248  0.00  0.00    -0.277 OA
BRANCH  24  25
ATOM     25  C   UNL d   1      20.667 -18.875  -0.578  0.00  0.00     0.273 A 
ATOM     26  N   UNL d   1      20.993 -19.184   0.691  0.00  0.00    -0.219 NA
ATOM     27  C   UNL d   1      20.108 -19.962   1.348  0.00  0.00     0.122 A 
ATOM     28  C   UNL d   1      18.938 -20.428   0.791  0.00  0.00     0.039 A 
ATOM     29  C   UNL d   1      18.728 -20.079  -0.521  0.00  0.00     0.122 A 
ATOM     30  N   UNL d   1      19.581 -19.324  -1.237  0.00  0.00    -0.219 NA
ENDBRANCH  24  25
ENDBRANCH  21  24
ENDBRANCH  16  18
ENDBRANCH   1  16
TORSDOF 7
ENDMDL
MODEL 8
REMARK VINA RESULT:   -30.010      4.124      6.372
REMARK INTER + INTRA:         -32.834
REMARK INTER:                 -32.098
REMARK INTRA:                  -0.736
REMARK CONF_INDEPENDENT:        2.088
REMARK UNBOUND:                -0.736
REMARK  7 active torsions:
REMARK  status: ('A' for Active; 'I' for Inactive)
REMARK    1  A    between atoms: C_2  and  C_3 
REMARK       I    between atoms: C_3  and  N_5 
REMARK    2  A    between atoms: N_5  and  C_6 
REMARK    3  A    between atoms: C_9  and  S_10 
REMARK    4  A    between atoms: S_10  and  N_13 
REMARK    5  A    between atoms: N_13  and  C_14 
REMARK    6  A    between atoms: C_17  and  O_18 
REMARK    7  A    between atoms: O_18  and  C_19 
ROOT
ATOM      1  S   UNL d   1      27.812 -16.054  -1.068  0.00  0.00     0.263 S 
ATOM      2  O   UNL d   1      27.494 -14.848  -0.323  0.00  0.00    -0.200 OA
ATOM      3  O   UNL d   1      27.608 -16.128  -2.496  0.00  0.00    -0.200 OA
ENDROOT
BRANCH   1   4
ATOM      4  C   UNL d   1      29.567 -16.345  -0.822  0.00  0.00     0.080 A 
ATOM      5  C   UNL d   1      30.043 -17.660  -0.980  0.00  0.00     0.027 A 
ATOM      6  C   UNL d   1      31.372 -17.988  -0.649  0.00  0.00     0.031 A 
ATOM      7  C   UNL d   1      32.242 -17.002  -0.180  0.00  0.00     0.034 A 
ATOM      8  C   UNL d   1      31.771 -15.687  -0.073  0.00  0.00     0.031 A 
ATOM      9  C   UNL d   1      30.446 -15.353  -0.396  0.00  0.00     0.027 A 
BRANCH   7  10
ATOM     10  N   UNL d   1      33.580 -17.329   0.165  0.00  0.00    -0.327 N 
ATOM     11  C   UNL d   1      33.972 -17.489   1.489  0.00  0.00     0.221 C 
ATOM     12  O   UNL d   1      33.210 -17.351   2.445  0.00  0.00    -0.273 OA
ATOM     13  H   UNL d   1      34.176 -17.704  -0.564  0.00  0.00     0.169 HD
BRANCH  11  14
ATOM     14  C   UNL d   1      35.425 -17.907   1.698  0.00  0.00     0.098 C 
ATOM     15  C   UNL d   1      35.483 -19.292   2.341  0.00  0.00     0.014 C 
ENDBRANCH  11  14
ENDBRANCH   7  10
ENDBRANCH   1   4
BRANCH   1  16
ATOM     16  N   UNL d   1      26.977 -17.330  -0.349  0.00  0.00    -0.281 N 
ATOM     17  H   UNL d   1      27.441 -17.986   0.265  0.00  0.00     0.179 HD
BRANCH  16  18
ATOM     18  C   UNL d   1      25.571 -17.494  -0.555  0.00  0.00     0.042 A 
ATOM     19  C   UNL d   1      24.830 -16.454  -1.128  0.00  0.00     0.033 A 
ATOM     20  C   UNL d   1      23.433 -16.563  -1.270  0.00  0.00     0.039 A 
ATOM     21  C   UNL d   1      22.771 -17.737  -0.897  0.00  0.00     0.079 A 
ATOM     22  C   UNL d   1      23.516 -18.751  -0.290  0.00  0.00     0.039 A 
ATOM     23  C   UNL d   1      24.896 -18.623  -0.104  0.00  0.00     0.033 A 
BRANCH  21  24
ATOM     24  O   UNL d   1      21.426 -17.822  -1.211  0.00  0.00    -0.277 OA
BRANCH  24  25
ATOM     25  C   UNL d   1      20.681 -18.798  -0.558  0.00  0.00     0.273 A 
ATOM     26  N   UNL d   1      21.046 -19.110   0.700  0.00  0.00    -0.219 NA
ATOM     27  C   UNL d   1      20.241 -19.980   1.344  0.00  0.00     0.122 A 
ATOM     28  C   UNL d   1      19.111 -20.533   0.784  0.00  0.00     0.039 A 
ATOM     29  C   UNL d   1      18.857 -20.170  -0.517  0.00  0.00     0.122 A 
ATOM     30  N   UNL d   1      19.632 -19.325  -1.219  0.00  0.00    -0.219 NA
ENDBRANCH  24  25
ENDBRANCH  21  24
ENDBRANCH  16  18
ENDBRANCH   1  16
TORSDOF 7
ENDMDL
MODEL 9
REMARK VINA RESULT:   -29.806      3.661      5.248
REMARK INTER + INTRA:         -32.730
REMARK INTER:                 -31.894
REMARK INTRA:                  -0.836
REMARK CONF_INDEPENDENT:        2.088
REMARK UNBOUND:                -0.836
REMARK  7 active torsions:
REMARK  status: ('A' for Active; 'I' for Inactive)
REMARK    1  A    between atoms: C_2  and  C_3 
REMARK       I    between atoms: C_3  and  N_5 
REMARK    2  A    between atoms: N_5  and  C_6 
REMARK    3  A    between atoms: C_9  and  S_10 
REMARK    4  A    between atoms: S_10  and  N_13 
REMARK    5  A    between atoms: N_13  and  C_14 
REMARK    6  A    between atoms: C_17  and  O_18 
REMARK    7  A    between atoms: O_18  and  C_19 
ROOT
ATOM      1  S   UNL d   1      27.902 -16.812  -0.804  0.00  0.00     0.263 S 
ATOM      2  O   UNL d   1      27.225 -16.378  -2.013  0.00  0.00    -0.200 OA
ATOM      3  O   UNL d   1      28.978 -17.776  -0.853  0.00  0.00    -0.200 OA
ENDROOT
BRANCH   1   4
ATOM      4  C   UNL d   1      28.619 -15.335  -0.076  0.00  0.00     0.080 A 
ATOM      5  C   UNL d   1      29.999 -15.122  -0.249  0.00  0.00     0.027 A 
ATOM      6  C   UNL d   1      30.654 -14.073   0.426  0.00  0.00     0.031 A 
ATOM      7  C   UNL d   1      29.932 -13.214   1.258  0.00  0.00     0.034 A 
ATOM      8  C   UNL d   1      28.551 -13.407   1.383  0.00  0.00     0.031 A 
ATOM      9  C   UNL d   1      27.891 -14.453   0.718  0.00  0.00     0.027 A 
BRANCH   7  10
ATOM     10  N   UNL d   1      30.589 -12.162   1.948  0.00  0.00    -0.327 N 
ATOM     11  C   UNL d   1      31.737 -12.389   2.699  0.00  0.00     0.221 C 
ATOM     12  O   UNL d   1      32.254 -13.497   2.832  0.00  0.00    -0.273 OA
ATOM     13  H   UNL d   1      30.373 -11.211   1.673  0.00  0.00     0.169 HD
BRANCH  11  14
ATOM     14  C   UNL d   1      32.367 -11.149   3.326  0.00  0.00     0.098 C 
ATOM     15  C   UNL d   1      33.177 -11.543   4.561  0.00  0.00     0.014 C 
ENDBRANCH  11  14
ENDBRANCH   7  10
ENDBRANCH   1   4
BRANCH   1  16
ATOM     16  N   UNL d   1      26.727 -17.386   0.259  0.00  0.00    -0.281 N 
ATOM     17  H   UNL d   1      26.959 -17.665   1.203  0.00  0.00     0.179 HD
BRANCH  16  18
ATOM     18  C   UNL d   1      25.353 -17.453  -0.134  0.00  0.00     0.042 A 
ATOM     19  C   UNL d   1      24.722 -18.698  -0.233  0.00  0.00     0.033 A 
ATOM     20  C   UNL d   1      23.394 -18.795  -0.691  0.00  0.00     0.039 A 
ATOM     21  C   UNL d   1      22.663 -17.641  -0.996  0.00  0.00     0.079 A 
ATOM     22  C   UNL d   1      23.317 -16.408  -0.930  0.00  0.00     0.039 A 
ATOM     23  C   UNL d   1      24.651 -16.317  -0.523  0.00  0.00     0.033 A 
BRANCH  21  24
ATOM     24  O   UNL d   1      21.321 -17.812  -1.289  0.00  0.00    -0.277 OA
BRANCH  24  25
ATOM     25  C   UNL d   1      20.623 -18.757  -0.546  0.00  0.00     0.273 A 
ATOM     26  N   UNL d   1      21.060 -19.000   0.704  0.00  0.00    -0.219 NA
ATOM     27  C   UNL d   1      20.300 -19.841   1.436  0.00  0.00     0.122 A 
ATOM     28  C   UNL d   1      19.146 -20.430   0.969  0.00  0.00     0.039 A 
ATOM     29  C   UNL d   1      18.818 -20.138  -0.333  0.00  0.00     0.122 A 
ATOM     30  N   UNL d   1      19.545 -19.325  -1.120  0.00  0.00    -0.219 NA
ENDBRANCH  24  25
ENDBRANCH  21  24
ENDBRANCH  16  18
ENDBRANCH   1  16
TORSDOF 7
ENDMDL
