MODEL 1
REMARK VINA RESULT:    -9.914      0.000      0.000
REMARK INTER + INTRA:         -13.517
REMARK INTER:                 -12.301
REMARK INTRA:                  -1.216
REMARK CONF_INDEPENDENT:        2.386
REMARK UNBOUND:                -1.216
REMARK  8 active torsions:
REMARK  status: ('A' for Active; 'I' for Inactive)
REMARK    1  A    between atoms: O_2  and  C_3 
REMARK    2  A    between atoms: C_3  and  C_5 
REMARK    3  A    between atoms: C_8  and  N_9 
REMARK    4  A    between atoms: N_9  and  C_10 
REMARK    5  A    between atoms: C_10  and  C_11 
REMARK       I    between atoms: C_11  and  N_13 
REMARK    6  A    between atoms: N_13  and  C_14 
REMARK    7  A    between atoms: C_17  and  N_18 
REMARK       I    between atoms: N_18  and  C_19 
REMARK    8  A    between atoms: C_19  and  C_21 
ROOT
ATOM      1  C   UNL d   1      25.452 -15.926  -1.936  0.00  0.00     0.034 A 
ATOM      2  C   UNL d   1      24.097 -15.577  -1.871  0.00  0.00     0.032 A 
ATOM      3  C   UNL d   1      23.162 -16.429  -1.223  0.00  0.00     0.032 A 
ATOM      4  C   UNL d   1      23.574 -17.646  -0.656  0.00  0.00     0.035 A 
ATOM      5  C   UNL d   1      24.934 -17.936  -0.694  0.00  0.00     0.032 A 
ATOM      6  C   UNL d   1      25.853 -17.105  -1.329  0.00  0.00     0.032 A 
ENDROOT
BRANCH   1   7
ATOM      7  N   UNL d   1      26.425 -15.095  -2.549  0.00  0.00    -0.326 N 
ATOM      8  C   UNL d   1      26.217 -14.498  -3.798  0.00  0.00     0.239 C 
ATOM      9  O   UNL d   1      25.158 -14.557  -4.426  0.00  0.00    -0.271 OA
ATOM     10  H   UNL d   1      27.253 -14.875  -2.011  0.00  0.00     0.169 HD
BRANCH   8  11
ATOM     11  C   UNL d   1      27.407 -13.697  -4.365  0.00  0.00     0.223 C 
BRANCH  11  12
ATOM     12  N   UNL d   1      28.685 -14.294  -3.935  0.00  0.00    -0.381 N 
ATOM     13  H   UNL d   1      29.295 -13.646  -3.431  0.00  0.00     0.160 HD
BRANCH  12  14
ATOM     14  C   UNL d   1      29.257 -15.401  -4.540  0.00  0.00     0.028 A 
ATOM     15  C   UNL d   1      29.475 -16.580  -3.810  0.00  0.00     0.030 A 
ATOM     16  C   UNL d   1      30.056 -17.718  -4.405  0.00  0.00     0.020 A 
ATOM     17  C   UNL d   1      30.355 -17.728  -5.773  0.00  0.00     0.039 A 
ATOM     18  C   UNL d   1      30.101 -16.580  -6.522  0.00  0.00     0.020 A 
ATOM     19  C   UNL d   1      29.552 -15.441  -5.908  0.00  0.00     0.030 A 
BRANCH  17  20
ATOM     20  C   UNL d   1      30.784 -18.992  -6.426  0.00  0.00     0.292 C 
ATOM     21  O   UNL d   1      31.486 -19.008  -7.435  0.00  0.00    -0.259 OA
BRANCH  20  22
ATOM     22  O   UNL d   1      30.311 -20.085  -5.776  0.00  0.00    -0.323 OA
ATOM     23  C   UNL d   1      31.324 -21.037  -5.416  0.00  0.00     0.213 C 
ENDBRANCH  20  22
ENDBRANCH  17  20
ENDBRANCH  12  14
ENDBRANCH  11  12
ENDBRANCH   8  11
ENDBRANCH   1   7
BRANCH   4  24
ATOM     24  N   UNL d   1      22.630 -18.560  -0.096  0.00  0.00    -0.323 N 
ATOM     25  C   UNL d   1      21.274 -18.587  -0.424  0.00  0.00     0.256 C 
ATOM     26  O   UNL d   1      20.701 -17.878  -1.248  0.00  0.00    -0.267 OA
ATOM     27  H   UNL d   1      22.969 -19.210   0.602  0.00  0.00     0.169 HD
BRANCH  25  28
ATOM     28  C   UNL d   1      20.388 -19.546   0.272  0.00  0.00     0.032 A 
ATOM     29  C   UNL d   1      19.304 -20.073  -0.452  0.00  0.00     0.017 A 
ATOM     30  C   UNL d   1      18.298 -20.784   0.198  0.00  0.00     0.002 A 
ATOM     31  C   UNL d   1      18.397 -21.021   1.565  0.00  0.00     0.007 A 
ATOM     32  C   UNL d   1      19.473 -20.499   2.299  0.00  0.00    -0.061 A 
ATOM     33  C   UNL d   1      19.527 -20.671   3.787  0.00  0.00     0.048 C 
ATOM     34  C   UNL d   1      20.471 -19.754   1.648  0.00  0.00     0.023 A 
ENDBRANCH  25  28
ENDBRANCH   4  24
TORSDOF 8
ENDMDL
MODEL 2
REMARK VINA RESULT:    -9.791      1.018      1.703
REMARK INTER + INTRA:         -13.307
REMARK INTER:                 -12.177
REMARK INTRA:                  -1.129
REMARK CONF_INDEPENDENT:        2.386
REMARK UNBOUND:                -1.129
REMARK  8 active torsions:
REMARK  status: ('A' for Active; 'I' for Inactive)
REMARK    1  A    between atoms: O_2  and  C_3 
REMARK    2  A    between atoms: C_3  and  C_5 
REMARK    3  A    between atoms: C_8  and  N_9 
REMARK    4  A    between atoms: N_9  and  C_10 
REMARK    5  A    between atoms: C_10  and  C_11 
REMARK       I    between atoms: C_11  and  N_13 
REMARK    6  A    between atoms: N_13  and  C_14 
REMARK    7  A    between atoms: C_17  and  N_18 
REMARK       I    between atoms: N_18  and  C_19 
REMARK    8  A    between atoms: C_19  and  C_21 
ROOT
ATOM      1  C   UNL d   1      25.506 -16.136  -2.148  0.00  0.00     0.034 A 
ATOM      2  C   UNL d   1      24.259 -15.507  -2.046  0.00  0.00     0.032 A 
ATOM      3  C   UNL d   1      23.225 -16.075  -1.253  0.00  0.00     0.032 A 
ATOM      4  C   UNL d   1      23.428 -17.287  -0.573  0.00  0.00     0.035 A 
ATOM      5  C   UNL d   1      24.695 -17.857  -0.655  0.00  0.00     0.032 A 
ATOM      6  C   UNL d   1      25.708 -17.305  -1.432  0.00  0.00     0.032 A 
ENDROOT
BRANCH   1   7
ATOM      7  N   UNL d   1      26.574 -15.594  -2.907  0.00  0.00    -0.326 N 
ATOM      8  C   UNL d   1      26.379 -15.028  -4.173  0.00  0.00     0.239 C 
ATOM      9  O   UNL d   1      25.274 -14.865  -4.696  0.00  0.00    -0.271 OA
ATOM     10  H   UNL d   1      27.483 -15.550  -2.465  0.00  0.00     0.169 HD
BRANCH   8  11
ATOM     11  C   UNL d   1      27.655 -14.564  -4.905  0.00  0.00     0.223 C 
BRANCH  11  12
ATOM     12  N   UNL d   1      28.836 -15.287  -4.396  0.00  0.00    -0.381 N 
ATOM     13  H   UNL d   1      29.265 -14.851  -3.577  0.00  0.00     0.160 HD
BRANCH  12  14
ATOM     14  C   UNL d   1      29.608 -16.136  -5.171  0.00  0.00     0.028 A 
ATOM     15  C   UNL d   1      29.899 -17.437  -4.731  0.00  0.00     0.030 A 
ATOM     16  C   UNL d   1      30.683 -18.318  -5.502  0.00  0.00     0.020 A 
ATOM     17  C   UNL d   1      31.124 -17.942  -6.777  0.00  0.00     0.039 A 
ATOM     18  C   UNL d   1      30.803 -16.670  -7.248  0.00  0.00     0.020 A 
ATOM     19  C   UNL d   1      30.049 -15.790  -6.454  0.00  0.00     0.030 A 
BRANCH  17  20
ATOM     20  C   UNL d   1      31.780 -18.944  -7.656  0.00  0.00     0.292 C 
ATOM     21  O   UNL d   1      32.994 -18.953  -7.855  0.00  0.00    -0.259 OA
BRANCH  20  22
ATOM     22  O   UNL d   1      30.887 -19.816  -8.187  0.00  0.00    -0.323 OA
ATOM     23  C   UNL d   1      30.780 -19.748  -9.618  0.00  0.00     0.213 C 
ENDBRANCH  20  22
ENDBRANCH  17  20
ENDBRANCH  12  14
ENDBRANCH  11  12
ENDBRANCH   8  11
ENDBRANCH   1   7
BRANCH   4  24
ATOM     24  N   UNL d   1      22.367 -17.922   0.142  0.00  0.00    -0.323 N 
ATOM     25  C   UNL d   1      21.474 -18.832  -0.424  0.00  0.00     0.256 C 
ATOM     26  O   UNL d   1      21.479 -19.248  -1.581  0.00  0.00    -0.267 OA
ATOM     27  H   UNL d   1      22.246 -17.671   1.116  0.00  0.00     0.169 HD
BRANCH  25  28
ATOM     28  C   UNL d   1      20.380 -19.376   0.411  0.00  0.00     0.032 A 
ATOM     29  C   UNL d   1      20.561 -19.368   1.806  0.00  0.00     0.017 A 
ATOM     30  C   UNL d   1      19.695 -20.075   2.636  0.00  0.00     0.002 A 
ATOM     31  C   UNL d   1      18.610 -20.749   2.083  0.00  0.00     0.007 A 
ATOM     32  C   UNL d   1      18.420 -20.766   0.693  0.00  0.00    -0.061 A 
ATOM     33  C   UNL d   1      17.309 -21.575   0.092  0.00  0.00     0.048 C 
ATOM     34  C   UNL d   1      19.314 -20.080  -0.146  0.00  0.00     0.023 A 
ENDBRANCH  25  28
ENDBRANCH   4  24
TORSDOF 8
ENDMDL
MODEL 3
REMARK VINA RESULT:    -9.691      3.490      6.539
REMARK INTER + INTRA:         -13.064
REMARK INTER:                 -12.077
REMARK INTRA:                  -0.987
REMARK CONF_INDEPENDENT:        2.386
REMARK UNBOUND:                -0.987
REMARK  8 active torsions:
REMARK  status: ('A' for Active; 'I' for Inactive)
REMARK    1  A    between atoms: O_2  and  C_3 
REMARK    2  A    between atoms: C_3  and  C_5 
REMARK    3  A    between atoms: C_8  and  N_9 
REMARK    4  A    between atoms: N_9  and  C_10 
REMARK    5  A    between atoms: C_10  and  C_11 
REMARK       I    between atoms: C_11  and  N_13 
REMARK    6  A    between atoms: N_13  and  C_14 
REMARK    7  A    between atoms: C_17  and  N_18 
REMARK       I    between atoms: N_18  and  C_19 
REMARK    8  A    between atoms: C_19  and  C_21 
ROOT
ATOM      1  C   UNL d   1      25.407 -15.944  -1.671  0.00  0.00     0.034 A 
ATOM      2  C   UNL d   1      25.825 -17.182  -1.167  0.00  0.00     0.032 A 
ATOM      3  C   UNL d   1      24.875 -18.125  -0.688  0.00  0.00     0.032 A 
ATOM      4  C   UNL d   1      23.503 -17.826  -0.693  0.00  0.00     0.035 A 
ATOM      5  C   UNL d   1      23.121 -16.608  -1.248  0.00  0.00     0.032 A 
ATOM      6  C   UNL d   1      24.048 -15.682  -1.716  0.00  0.00     0.032 A 
ENDROOT
BRANCH   1   7
ATOM      7  N   UNL d   1      26.317 -14.983  -2.183  0.00  0.00    -0.326 N 
ATOM      8  C   UNL d   1      26.117 -14.347  -3.414  0.00  0.00     0.239 C 
ATOM      9  O   UNL d   1      25.109 -14.487  -4.110  0.00  0.00    -0.271 OA
ATOM     10  H   UNL d   1      27.083 -14.703  -1.584  0.00  0.00     0.169 HD
BRANCH   8  11
ATOM     11  C   UNL d   1      27.241 -13.394  -3.868  0.00  0.00     0.223 C 
BRANCH  11  12
ATOM     12  N   UNL d   1      26.824 -12.631  -5.059  0.00  0.00    -0.381 N 
ATOM     13  H   UNL d   1      27.333 -12.882  -5.910  0.00  0.00     0.160 HD
BRANCH  12  14
ATOM     14  C   UNL d   1      26.214 -11.389  -5.000  0.00  0.00     0.028 A 
ATOM     15  C   UNL d   1      25.860 -10.710  -6.177  0.00  0.00     0.030 A 
ATOM     16  C   UNL d   1      25.239  -9.446  -6.140  0.00  0.00     0.020 A 
ATOM     17  C   UNL d   1      24.881  -8.868  -4.916  0.00  0.00     0.039 A 
ATOM     18  C   UNL d   1      25.184  -9.551  -3.739  0.00  0.00     0.020 A 
ATOM     19  C   UNL d   1      25.833 -10.795  -3.790  0.00  0.00     0.030 A 
BRANCH  17  20
ATOM     20  C   UNL d   1      24.057  -7.632  -4.896  0.00  0.00     0.292 C 
ATOM     21  O   UNL d   1      24.357  -6.649  -4.222  0.00  0.00    -0.259 OA
BRANCH  20  22
ATOM     22  O   UNL d   1      22.967  -7.735  -5.699  0.00  0.00    -0.323 OA
ATOM     23  C   UNL d   1      22.319  -6.483  -5.972  0.00  0.00     0.213 C 
ENDBRANCH  20  22
ENDBRANCH  17  20
ENDBRANCH  12  14
ENDBRANCH  11  12
ENDBRANCH   8  11
ENDBRANCH   1   7
BRANCH   4  24
ATOM     24  N   UNL d   1      22.547 -18.719  -0.120  0.00  0.00    -0.323 N 
ATOM     25  C   UNL d   1      21.176 -18.666  -0.369  0.00  0.00     0.256 C 
ATOM     26  O   UNL d   1      20.593 -17.891  -1.125  0.00  0.00    -0.267 OA
ATOM     27  H   UNL d   1      22.892 -19.417   0.527  0.00  0.00     0.169 HD
BRANCH  25  28
ATOM     28  C   UNL d   1      20.283 -19.614   0.334  0.00  0.00     0.032 A 
ATOM     29  C   UNL d   1      19.148 -20.073  -0.358  0.00  0.00     0.017 A 
ATOM     30  C   UNL d   1      18.144 -20.767   0.312  0.00  0.00     0.002 A 
ATOM     31  C   UNL d   1      18.293 -21.055   1.666  0.00  0.00     0.007 A 
ATOM     32  C   UNL d   1      19.419 -20.600   2.367  0.00  0.00    -0.061 A 
ATOM     33  C   UNL d   1      19.530 -20.825   3.846  0.00  0.00     0.048 C 
ATOM     34  C   UNL d   1      20.416 -19.871   1.698  0.00  0.00     0.023 A 
ENDBRANCH  25  28
ENDBRANCH   4  24
TORSDOF 8
ENDMDL
MODEL 4
REMARK VINA RESULT:    -9.437      2.823      5.876
REMARK INTER + INTRA:         -12.903
REMARK INTER:                 -11.823
REMARK INTRA:                  -1.080
REMARK CONF_INDEPENDENT:        2.386
REMARK UNBOUND:                -1.080
REMARK  8 active torsions:
REMARK  status: ('A' for Active; 'I' for Inactive)
REMARK    1  A    between atoms: O_2  and  C_3 
REMARK    2  A    between atoms: C_3  and  C_5 
REMARK    3  A    between atoms: C_8  and  N_9 
REMARK    4  A    between atoms: N_9  and  C_10 
REMARK    5  A    between atoms: C_10  and  C_11 
REMARK       I    between atoms: C_11  and  N_13 
REMARK    6  A    between atoms: N_13  and  C_14 
REMARK    7  A    between atoms: C_17  and  N_18 
REMARK       I    between atoms: N_18  and  C_19 
REMARK    8  A    between atoms: C_19  and  C_21 
ROOT
ATOM      1  C   UNL d   1      25.539 -16.158  -2.049  0.00  0.00     0.034 A 
ATOM      2  C   UNL d   1      24.273 -15.561  -2.025  0.00  0.00     0.032 A 
ATOM      3  C   UNL d   1      23.222 -16.127  -1.252  0.00  0.00     0.032 A 
ATOM      4  C   UNL d   1      23.428 -17.305  -0.516  0.00  0.00     0.035 A 
ATOM      5  C   UNL d   1      24.712 -17.842  -0.523  0.00  0.00     0.032 A 
ATOM      6  C   UNL d   1      25.742 -17.293  -1.280  0.00  0.00     0.032 A 
ENDROOT
BRANCH   1   7
ATOM      7  N   UNL d   1      26.624 -15.616  -2.785  0.00  0.00    -0.326 N 
ATOM      8  C   UNL d   1      26.544 -15.371  -4.162  0.00  0.00     0.239 C 
ATOM      9  O   UNL d   1      25.519 -15.511  -4.832  0.00  0.00    -0.271 OA
ATOM     10  H   UNL d   1      27.442 -15.328  -2.264  0.00  0.00     0.169 HD
BRANCH   8  11
ATOM     11  C   UNL d   1      27.839 -14.863  -4.829  0.00  0.00     0.223 C 
BRANCH  11  12
ATOM     12  N   UNL d   1      27.548 -13.732  -5.730  0.00  0.00    -0.381 N 
ATOM     13  H   UNL d   1      28.068 -13.759  -6.609  0.00  0.00     0.160 HD
BRANCH  12  14
ATOM     14  C   UNL d   1      27.052 -12.514  -5.295  0.00  0.00     0.028 A 
ATOM     15  C   UNL d   1      27.464 -11.317  -5.903  0.00  0.00     0.030 A 
ATOM     16  C   UNL d   1      26.975 -10.067  -5.477  0.00  0.00     0.020 A 
ATOM     17  C   UNL d   1      25.991  -9.992  -4.483  0.00  0.00     0.039 A 
ATOM     18  C   UNL d   1      25.536 -11.175  -3.902  0.00  0.00     0.020 A 
ATOM     19  C   UNL d   1      26.059 -12.413  -4.313  0.00  0.00     0.030 A 
BRANCH  17  20
ATOM     20  C   UNL d   1      25.344  -8.690  -4.180  0.00  0.00     0.292 C 
ATOM     21  O   UNL d   1      25.820  -7.886  -3.381  0.00  0.00    -0.259 OA
BRANCH  20  22
ATOM     22  O   UNL d   1      24.197  -8.517  -4.885  0.00  0.00    -0.323 OA
ATOM     23  C   UNL d   1      23.916  -7.149  -5.221  0.00  0.00     0.213 C 
ENDBRANCH  20  22
ENDBRANCH  17  20
ENDBRANCH  12  14
ENDBRANCH  11  12
ENDBRANCH   8  11
ENDBRANCH   1   7
BRANCH   4  24
ATOM     24  N   UNL d   1      22.355 -17.941   0.180  0.00  0.00    -0.323 N 
ATOM     25  C   UNL d   1      21.451 -18.825  -0.411  0.00  0.00     0.256 C 
ATOM     26  O   UNL d   1      21.456 -19.214  -1.577  0.00  0.00    -0.267 OA
ATOM     27  H   UNL d   1      22.234 -17.712   1.158  0.00  0.00     0.169 HD
BRANCH  25  28
ATOM     28  C   UNL d   1      20.347 -19.373   0.407  0.00  0.00     0.032 A 
ATOM     29  C   UNL d   1      20.509 -19.372   1.803  0.00  0.00     0.017 A 
ATOM     30  C   UNL d   1      19.632 -20.082   2.618  0.00  0.00     0.002 A 
ATOM     31  C   UNL d   1      18.554 -20.753   2.048  0.00  0.00     0.007 A 
ATOM     32  C   UNL d   1      18.383 -20.764   0.656  0.00  0.00    -0.061 A 
ATOM     33  C   UNL d   1      17.280 -21.570   0.036  0.00  0.00     0.048 C 
ATOM     34  C   UNL d   1      19.288 -20.074  -0.168  0.00  0.00     0.023 A 
ENDBRANCH  25  28
ENDBRANCH   4  24
TORSDOF 8
ENDMDL
MODEL 5
REMARK VINA RESULT:    -9.244      1.911      2.656
REMARK INTER + INTRA:         -12.966
REMARK INTER:                 -11.631
REMARK INTRA:                  -1.336
REMARK CONF_INDEPENDENT:        2.386
REMARK UNBOUND:                -1.336
REMARK  8 active torsions:
REMARK  status: ('A' for Active; 'I' for Inactive)
REMARK    1  A    between atoms: O_2  and  C_3 
REMARK    2  A    between atoms: C_3  and  C_5 
REMARK    3  A    between atoms: C_8  and  N_9 
REMARK    4  A    between atoms: N_9  and  C_10 
REMARK    5  A    between atoms: C_10  and  C_11 
REMARK       I    between atoms: C_11  and  N_13 
REMARK    6  A    between atoms: N_13  and  C_14 
REMARK    7  A    between atoms: C_17  and  N_18 
REMARK       I    between atoms: N_18  and  C_19 
REMARK    8  A    between atoms: C_19  and  C_21 
ROOT
ATOM      1  C   UNL d   1      25.626 -16.087  -1.865  0.00  0.00     0.034 A 
ATOM      2  C   UNL d   1      24.266 -15.752  -1.896  0.00  0.00     0.032 A 
ATOM      3  C   UNL d   1      23.305 -16.571  -1.245  0.00  0.00     0.032 A 
ATOM      4  C   UNL d   1      23.696 -17.742  -0.575  0.00  0.00     0.035 A 
ATOM      5  C   UNL d   1      25.059 -18.016  -0.521  0.00  0.00     0.032 A 
ATOM      6  C   UNL d   1      26.004 -17.218  -1.159  0.00  0.00     0.032 A 
ENDROOT
BRANCH   1   7
ATOM      7  N   UNL d   1      26.624 -15.287  -2.479  0.00  0.00    -0.326 N 
ATOM      8  C   UNL d   1      26.500 -14.817  -3.792  0.00  0.00     0.239 C 
ATOM      9  O   UNL d   1      25.495 -14.969  -4.490  0.00  0.00    -0.271 OA
ATOM     10  H   UNL d   1      27.401 -14.991  -1.904  0.00  0.00     0.169 HD
BRANCH   8  11
ATOM     11  C   UNL d   1      27.710 -14.035  -4.341  0.00  0.00     0.223 C 
BRANCH  11  12
ATOM     12  N   UNL d   1      27.906 -14.324  -5.775  0.00  0.00    -0.381 N 
ATOM     13  H   UNL d   1      27.082 -14.719  -6.233  0.00  0.00     0.160 HD
BRANCH  12  14
ATOM     14  C   UNL d   1      29.147 -14.542  -6.351  0.00  0.00     0.028 A 
ATOM     15  C   UNL d   1      29.648 -15.845  -6.497  0.00  0.00     0.030 A 
ATOM     16  C   UNL d   1      30.908 -16.089  -7.078  0.00  0.00     0.020 A 
ATOM     17  C   UNL d   1      31.661 -15.034  -7.608  0.00  0.00     0.039 A 
ATOM     18  C   UNL d   1      31.155 -13.738  -7.513  0.00  0.00     0.020 A 
ATOM     19  C   UNL d   1      29.913 -13.506  -6.900  0.00  0.00     0.030 A 
BRANCH  17  20
ATOM     20  C   UNL d   1      32.891 -15.323  -8.389  0.00  0.00     0.292 C 
ATOM     21  O   UNL d   1      32.990 -16.302  -9.126  0.00  0.00    -0.259 OA
BRANCH  20  22
ATOM     22  O   UNL d   1      33.853 -14.388  -8.185  0.00  0.00    -0.323 OA
ATOM     23  C   UNL d   1      34.165 -13.604  -9.347  0.00  0.00     0.213 C 
ENDBRANCH  20  22
ENDBRANCH  17  20
ENDBRANCH  12  14
ENDBRANCH  11  12
ENDBRANCH   8  11
ENDBRANCH   1   7
BRANCH   4  24
ATOM     24  N   UNL d   1      22.731 -18.628  -0.006  0.00  0.00    -0.323 N 
ATOM     25  C   UNL d   1      21.375 -18.625  -0.333  0.00  0.00     0.256 C 
ATOM     26  O   UNL d   1      20.818 -17.910  -1.162  0.00  0.00    -0.267 OA
ATOM     27  H   UNL d   1      23.056 -19.280   0.697  0.00  0.00     0.169 HD
BRANCH  25  28
ATOM     28  C   UNL d   1      20.467 -19.557   0.371  0.00  0.00     0.032 A 
ATOM     29  C   UNL d   1      19.391 -20.093  -0.358  0.00  0.00     0.017 A 
ATOM     30  C   UNL d   1      18.366 -20.777   0.292  0.00  0.00     0.002 A 
ATOM     31  C   UNL d   1      18.439 -20.978   1.667  0.00  0.00     0.007 A 
ATOM     32  C   UNL d   1      19.506 -20.447   2.406  0.00  0.00    -0.061 A 
ATOM     33  C   UNL d   1      19.531 -20.579   3.900  0.00  0.00     0.048 C 
ATOM     34  C   UNL d   1      20.522 -19.729   1.754  0.00  0.00     0.023 A 
ENDBRANCH  25  28
ENDBRANCH   4  24
TORSDOF 8
ENDMDL
MODEL 6
REMARK VINA RESULT:    -9.109      0.981      1.771
REMARK INTER + INTRA:         -12.714
REMARK INTER:                 -11.495
REMARK INTRA:                  -1.219
REMARK CONF_INDEPENDENT:        2.386
REMARK UNBOUND:                -1.219
REMARK  8 active torsions:
REMARK  status: ('A' for Active; 'I' for Inactive)
REMARK    1  A    between atoms: O_2  and  C_3 
REMARK    2  A    between atoms: C_3  and  C_5 
REMARK    3  A    between atoms: C_8  and  N_9 
REMARK    4  A    between atoms: N_9  and  C_10 
REMARK    5  A    between atoms: C_10  and  C_11 
REMARK       I    between atoms: C_11  and  N_13 
REMARK    6  A    between atoms: N_13  and  C_14 
REMARK    7  A    between atoms: C_17  and  N_18 
REMARK       I    between atoms: N_18  and  C_19 
REMARK    8  A    between atoms: C_19  and  C_21 
ROOT
ATOM      1  C   UNL d   1      25.639 -16.086  -1.908  0.00  0.00     0.034 A 
ATOM      2  C   UNL d   1      24.329 -15.602  -2.006  0.00  0.00     0.032 A 
ATOM      3  C   UNL d   1      23.285 -16.181  -1.234  0.00  0.00     0.032 A 
ATOM      4  C   UNL d   1      23.544 -17.261  -0.375  0.00  0.00     0.035 A 
ATOM      5  C   UNL d   1      24.866 -17.683  -0.265  0.00  0.00     0.032 A 
ATOM      6  C   UNL d   1      25.890 -17.120  -1.020  0.00  0.00     0.032 A 
ENDROOT
BRANCH   1   7
ATOM      7  N   UNL d   1      26.717 -15.523  -2.639  0.00  0.00    -0.326 N 
ATOM      8  C   UNL d   1      26.580 -15.106  -3.969  0.00  0.00     0.239 C 
ATOM      9  O   UNL d   1      25.512 -15.100  -4.586  0.00  0.00    -0.271 OA
ATOM     10  H   UNL d   1      27.579 -15.352  -2.139  0.00  0.00     0.169 HD
BRANCH   8  11
ATOM     11  C   UNL d   1      27.867 -14.599  -4.649  0.00  0.00     0.223 C 
BRANCH  11  12
ATOM     12  N   UNL d   1      29.060 -15.103  -3.942  0.00  0.00    -0.381 N 
ATOM     13  H   UNL d   1      29.612 -14.371  -3.491  0.00  0.00     0.160 HD
BRANCH  12  14
ATOM     14  C   UNL d   1      29.680 -16.304  -4.243  0.00  0.00     0.028 A 
ATOM     15  C   UNL d   1      29.982 -16.638  -5.572  0.00  0.00     0.030 A 
ATOM     16  C   UNL d   1      30.611 -17.855  -5.902  0.00  0.00     0.020 A 
ATOM     17  C   UNL d   1      31.031 -18.732  -4.894  0.00  0.00     0.039 A 
ATOM     18  C   UNL d   1      30.780 -18.392  -3.565  0.00  0.00     0.020 A 
ATOM     19  C   UNL d   1      30.122 -17.191  -3.253  0.00  0.00     0.030 A 
BRANCH  17  20
ATOM     20  C   UNL d   1      31.862 -19.913  -5.240  0.00  0.00     0.292 C 
ATOM     21  O   UNL d   1      33.091 -19.869  -5.271  0.00  0.00    -0.259 OA
BRANCH  20  22
ATOM     22  O   UNL d   1      31.105 -21.007  -5.507  0.00  0.00    -0.323 OA
ATOM     23  C   UNL d   1      30.753 -21.773  -4.344  0.00  0.00     0.213 C 
ENDBRANCH  20  22
ENDBRANCH  17  20
ENDBRANCH  12  14
ENDBRANCH  11  12
ENDBRANCH   8  11
ENDBRANCH   1   7
BRANCH   4  24
ATOM     24  N   UNL d   1      22.488 -17.920   0.327  0.00  0.00    -0.323 N 
ATOM     25  C   UNL d   1      21.546 -18.753  -0.276  0.00  0.00     0.256 C 
ATOM     26  O   UNL d   1      21.497 -19.074  -1.462  0.00  0.00    -0.267 OA
ATOM     27  H   UNL d   1      22.411 -17.745   1.321  0.00  0.00     0.169 HD
BRANCH  25  28
ATOM     28  C   UNL d   1      20.465 -19.330   0.553  0.00  0.00     0.032 A 
ATOM     29  C   UNL d   1      20.651 -19.341   1.947  0.00  0.00     0.017 A 
ATOM     30  C   UNL d   1      19.800 -20.076   2.768  0.00  0.00     0.002 A 
ATOM     31  C   UNL d   1      18.725 -20.761   2.208  0.00  0.00     0.007 A 
ATOM     32  C   UNL d   1      18.531 -20.759   0.819  0.00  0.00    -0.061 A 
ATOM     33  C   UNL d   1      17.433 -21.577   0.209  0.00  0.00     0.048 C 
ATOM     34  C   UNL d   1      19.409 -20.044  -0.012  0.00  0.00     0.023 A 
ENDBRANCH  25  28
ENDBRANCH   4  24
TORSDOF 8
ENDMDL
MODEL 7
REMARK VINA RESULT:    -8.925      4.720      7.117
REMARK INTER + INTRA:         -12.462
REMARK INTER:                 -11.312
REMARK INTRA:                  -1.150
REMARK CONF_INDEPENDENT:        2.386
REMARK UNBOUND:                -1.150
REMARK  8 active torsions:
REMARK  status: ('A' for Active; 'I' for Inactive)
REMARK    1  A    between atoms: O_2  and  C_3 
REMARK    2  A    between atoms: C_3  and  C_5 
REMARK    3  A    between atoms: C_8  and  N_9 
REMARK    4  A    between atoms: N_9  and  C_10 
REMARK    5  A    between atoms: C_10  and  C_11 
REMARK       I    between atoms: C_11  and  N_13 
REMARK    6  A    between atoms: N_13  and  C_14 
REMARK    7  A    between atoms: C_17  and  N_18 
REMARK       I    between atoms: N_18  and  C_19 
REMARK    8  A    between atoms: C_19  and  C_21 
ROOT
ATOM      1  C   UNL d   1      26.420 -16.260  -1.012  0.00  0.00     0.034 A 
ATOM      2  C   UNL d   1      26.490 -17.198   0.026  0.00  0.00     0.032 A 
ATOM      3  C   UNL d   1      25.404 -18.080   0.277  0.00  0.00     0.032 A 
ATOM      4  C   UNL d   1      24.233 -18.013  -0.496  0.00  0.00     0.035 A 
ATOM      5  C   UNL d   1      24.219 -17.104  -1.550  0.00  0.00     0.032 A 
ATOM      6  C   UNL d   1      25.279 -16.239  -1.798  0.00  0.00     0.032 A 
ENDROOT
BRANCH   1   7
ATOM      7  N   UNL d   1      27.489 -15.378  -1.316  0.00  0.00    -0.326 N 
ATOM      8  C   UNL d   1      28.243 -14.747  -0.319  0.00  0.00     0.239 C 
ATOM      9  O   UNL d   1      28.115 -14.965   0.888  0.00  0.00    -0.271 OA
ATOM     10  H   UNL d   1      27.750 -15.281  -2.288  0.00  0.00     0.169 HD
BRANCH   8  11
ATOM     11  C   UNL d   1      29.310 -13.750  -0.814  0.00  0.00     0.223 C 
BRANCH  11  12
ATOM     12  N   UNL d   1      29.637 -12.773   0.242  0.00  0.00    -0.381 N 
ATOM     13  H   UNL d   1      30.344 -13.101   0.903  0.00  0.00     0.160 HD
BRANCH  12  14
ATOM     14  C   UNL d   1      28.780 -11.761   0.642  0.00  0.00     0.028 A 
ATOM     15  C   UNL d   1      28.203 -11.778   1.922  0.00  0.00     0.030 A 
ATOM     16  C   UNL d   1      27.328 -10.760   2.350  0.00  0.00     0.020 A 
ATOM     17  C   UNL d   1      27.077  -9.651   1.532  0.00  0.00     0.039 A 
ATOM     18  C   UNL d   1      27.681  -9.596   0.276  0.00  0.00     0.020 A 
ATOM     19  C   UNL d   1      28.524 -10.636  -0.151  0.00  0.00     0.030 A 
BRANCH  17  20
ATOM     20  C   UNL d   1      26.313  -8.496   2.068  0.00  0.00     0.292 C 
ATOM     21  O   UNL d   1      25.524  -7.851   1.380  0.00  0.00    -0.259 OA
BRANCH  20  22
ATOM     22  O   UNL d   1      26.595  -8.262   3.374  0.00  0.00    -0.323 OA
ATOM     23  C   UNL d   1      27.714  -7.386   3.585  0.00  0.00     0.213 C 
ENDBRANCH  20  22
ENDBRANCH  17  20
ENDBRANCH  12  14
ENDBRANCH  11  12
ENDBRANCH   8  11
ENDBRANCH   1   7
BRANCH   4  24
ATOM     24  N   UNL d   1      23.095 -18.820  -0.189  0.00  0.00    -0.323 N 
ATOM     25  C   UNL d   1      21.773 -18.423  -0.396  0.00  0.00     0.256 C 
ATOM     26  O   UNL d   1      21.390 -17.367  -0.895  0.00  0.00    -0.267 OA
ATOM     27  H   UNL d   1      23.266 -19.726   0.230  0.00  0.00     0.169 HD
BRANCH  25  28
ATOM     28  C   UNL d   1      20.681 -19.330   0.019  0.00  0.00     0.032 A 
ATOM     29  C   UNL d   1      19.661 -19.590  -0.914  0.00  0.00     0.017 A 
ATOM     30  C   UNL d   1      18.488 -20.230  -0.520  0.00  0.00     0.002 A 
ATOM     31  C   UNL d   1      18.350 -20.663   0.795  0.00  0.00     0.007 A 
ATOM     32  C   UNL d   1      19.358 -20.407   1.735  0.00  0.00    -0.061 A 
ATOM     33  C   UNL d   1      19.164 -20.786   3.173  0.00  0.00     0.048 C 
ATOM     34  C   UNL d   1      20.527 -19.733   1.345  0.00  0.00     0.023 A 
ENDBRANCH  25  28
ENDBRANCH   4  24
TORSDOF 8
ENDMDL
MODEL 8
REMARK VINA RESULT:    -8.919      2.538      4.345
REMARK INTER + INTRA:         -12.894
REMARK INTER:                 -11.306
REMARK INTRA:                  -1.589
REMARK CONF_INDEPENDENT:        2.386
REMARK UNBOUND:                -1.589
REMARK  8 active torsions:
REMARK  status: ('A' for Active; 'I' for Inactive)
REMARK    1  A    between atoms: O_2  and  C_3 
REMARK    2  A    between atoms: C_3  and  C_5 
REMARK    3  A    between atoms: C_8  and  N_9 
REMARK    4  A    between atoms: N_9  and  C_10 
REMARK    5  A    between atoms: C_10  and  C_11 
REMARK       I    between atoms: C_11  and  N_13 
REMARK    6  A    between atoms: N_13  and  C_14 
REMARK    7  A    between atoms: C_17  and  N_18 
REMARK       I    between atoms: N_18  and  C_19 
REMARK    8  A    between atoms: C_19  and  C_21 
ROOT
ATOM      1  C   UNL d   1      27.122 -16.643  -0.613  0.00  0.00     0.034 A 
ATOM      2  C   UNL d   1      26.014 -16.369  -1.425  0.00  0.00     0.032 A 
ATOM      3  C   UNL d   1      24.775 -17.029  -1.204  0.00  0.00     0.032 A 
ATOM      4  C   UNL d   1      24.643 -17.983  -0.181  0.00  0.00     0.035 A 
ATOM      5  C   UNL d   1      25.749 -18.192   0.638  0.00  0.00     0.032 A 
ATOM      6  C   UNL d   1      26.964 -17.550   0.423  0.00  0.00     0.032 A 
ENDROOT
BRANCH   1   7
ATOM      7  N   UNL d   1      28.371 -15.991  -0.780  0.00  0.00    -0.326 N 
ATOM      8  C   UNL d   1      29.505 -16.660  -1.255  0.00  0.00     0.239 C 
ATOM      9  O   UNL d   1      29.504 -17.827  -1.654  0.00  0.00    -0.271 OA
ATOM     10  H   UNL d   1      28.398 -14.992  -0.623  0.00  0.00     0.169 HD
BRANCH   8  11
ATOM     11  C   UNL d   1      30.805 -15.832  -1.295  0.00  0.00     0.223 C 
BRANCH  11  12
ATOM     12  N   UNL d   1      30.720 -14.784  -2.329  0.00  0.00    -0.381 N 
ATOM     13  H   UNL d   1      31.522 -14.150  -2.342  0.00  0.00     0.160 HD
BRANCH  12  14
ATOM     14  C   UNL d   1      29.527 -14.349  -2.884  0.00  0.00     0.028 A 
ATOM     15  C   UNL d   1      29.001 -14.975  -4.025  0.00  0.00     0.030 A 
ATOM     16  C   UNL d   1      27.790 -14.549  -4.607  0.00  0.00     0.020 A 
ATOM     17  C   UNL d   1      27.033 -13.536  -4.006  0.00  0.00     0.039 A 
ATOM     18  C   UNL d   1      27.520 -12.936  -2.845  0.00  0.00     0.020 A 
ATOM     19  C   UNL d   1      28.745 -13.348  -2.295  0.00  0.00     0.030 A 
BRANCH  17  20
ATOM     20  C   UNL d   1      25.672 -13.230  -4.515  0.00  0.00     0.292 C 
ATOM     21  O   UNL d   1      24.803 -14.092  -4.635  0.00  0.00    -0.259 OA
BRANCH  20  22
ATOM     22  O   UNL d   1      25.526 -11.915  -4.817  0.00  0.00    -0.323 OA
ATOM     23  C   UNL d   1      26.273 -11.491  -5.967  0.00  0.00     0.213 C 
ENDBRANCH  20  22
ENDBRANCH  17  20
ENDBRANCH  12  14
ENDBRANCH  11  12
ENDBRANCH   8  11
ENDBRANCH   1   7
BRANCH   4  24
ATOM     24  N   UNL d   1      23.437 -18.729  -0.014  0.00  0.00    -0.323 N 
ATOM     25  C   UNL d   1      22.169 -18.256  -0.354  0.00  0.00     0.256 C 
ATOM     26  O   UNL d   1      21.899 -17.174  -0.870  0.00  0.00    -0.267 OA
ATOM     27  H   UNL d   1      23.512 -19.649   0.402  0.00  0.00     0.169 HD
BRANCH  25  28
ATOM     28  C   UNL d   1      20.990 -19.106  -0.077  0.00  0.00     0.032 A 
ATOM     29  C   UNL d   1      20.088 -19.332  -1.132  0.00  0.00     0.017 A 
ATOM     30  C   UNL d   1      18.846 -19.912  -0.889  0.00  0.00     0.002 A 
ATOM     31  C   UNL d   1      18.519 -20.322   0.400  0.00  0.00     0.007 A 
ATOM     32  C   UNL d   1      19.409 -20.100   1.461  0.00  0.00    -0.061 A 
ATOM     33  C   UNL d   1      19.013 -20.450   2.865  0.00  0.00     0.048 C 
ATOM     34  C   UNL d   1      20.648 -19.484   1.221  0.00  0.00     0.023 A 
ENDBRANCH  25  28
ENDBRANCH   4  24
TORSDOF 8
ENDMDL
MODEL 9
REMARK VINA RESULT:    -8.682      4.329      6.303
REMARK INTER + INTRA:         -12.440
REMARK INTER:                 -11.068
REMARK INTRA:                  -1.372
REMARK CONF_INDEPENDENT:        2.386
REMARK UNBOUND:                -1.372
REMARK  8 active torsions:
REMARK  status: ('A' for Active; 'I' for Inactive)
REMARK    1  A    between atoms: O_2  and  C_3 
REMARK    2  A    between atoms: C_3  and  C_5 
REMARK    3  A    between atoms: C_8  and  N_9 
REMARK    4  A    between atoms: N_9  and  C_10 
REMARK    5  A    between atoms: C_10  and  C_11 
REMARK       I    between atoms: C_11  and  N_13 
REMARK    6  A    between atoms: N_13  and  C_14 
REMARK    7  A    between atoms: C_17  and  N_18 
REMARK       I    between atoms: N_18  and  C_19 
REMARK    8  A    between atoms: C_19  and  C_21 
ROOT
ATOM      1  C   UNL d   1      26.170 -15.987  -1.141  0.00  0.00     0.034 A 
ATOM      2  C   UNL d   1      26.414 -17.007  -0.214  0.00  0.00     0.032 A 
ATOM      3  C   UNL d   1      25.392 -17.934   0.128  0.00  0.00     0.032 A 
ATOM      4  C   UNL d   1      24.112 -17.831  -0.442  0.00  0.00     0.035 A 
ATOM      5  C   UNL d   1      23.920 -16.836  -1.397  0.00  0.00     0.032 A 
ATOM      6  C   UNL d   1      24.918 -15.927  -1.732  0.00  0.00     0.032 A 
ENDROOT
BRANCH   1   7
ATOM      7  N   UNL d   1      27.167 -15.056  -1.531  0.00  0.00    -0.326 N 
ATOM      8  C   UNL d   1      28.533 -15.359  -1.479  0.00  0.00     0.239 C 
ATOM      9  O   UNL d   1      28.986 -16.468  -1.187  0.00  0.00    -0.271 OA
ATOM     10  H   UNL d   1      26.855 -14.182  -1.934  0.00  0.00     0.169 HD
BRANCH   8  11
ATOM     11  C   UNL d   1      29.490 -14.209  -1.853  0.00  0.00     0.223 C 
BRANCH  11  12
ATOM     12  N   UNL d   1      29.491 -13.174  -0.802  0.00  0.00    -0.381 N 
ATOM     13  H   UNL d   1      30.186 -12.438  -0.947  0.00  0.00     0.160 HD
BRANCH  12  14
ATOM     14  C   UNL d   1      29.012 -13.382   0.481  0.00  0.00     0.028 A 
ATOM     15  C   UNL d   1      29.863 -13.854   1.493  0.00  0.00     0.030 A 
ATOM     16  C   UNL d   1      29.397 -14.075   2.804  0.00  0.00     0.020 A 
ATOM     17  C   UNL d   1      28.082 -13.745   3.154  0.00  0.00     0.039 A 
ATOM     18  C   UNL d   1      27.237 -13.231   2.171  0.00  0.00     0.020 A 
ATOM     19  C   UNL d   1      27.706 -13.048   0.859  0.00  0.00     0.030 A 
BRANCH  17  20
ATOM     20  C   UNL d   1      27.660 -13.798   4.577  0.00  0.00     0.292 C 
ATOM     21  O   UNL d   1      27.247 -14.828   5.105  0.00  0.00    -0.259 OA
BRANCH  20  22
ATOM     22  O   UNL d   1      27.791 -12.594   5.191  0.00  0.00    -0.323 OA
ATOM     23  C   UNL d   1      28.071 -12.680   6.597  0.00  0.00     0.213 C 
ENDBRANCH  20  22
ENDBRANCH  17  20
ENDBRANCH  12  14
ENDBRANCH  11  12
ENDBRANCH   8  11
ENDBRANCH   1   7
BRANCH   4  24
ATOM     24  N   UNL d   1      23.046 -18.688  -0.031  0.00  0.00    -0.323 N 
ATOM     25  C   UNL d   1      21.697 -18.440  -0.286  0.00  0.00     0.256 C 
ATOM     26  O   UNL d   1      21.228 -17.495  -0.916  0.00  0.00    -0.267 OA
ATOM     27  H   UNL d   1      23.292 -19.514   0.501  0.00  0.00     0.169 HD
BRANCH  25  28
ATOM     28  C   UNL d   1      20.684 -19.378   0.245  0.00  0.00     0.032 A 
ATOM     29  C   UNL d   1      19.609 -19.718  -0.594  0.00  0.00     0.017 A 
ATOM     30  C   UNL d   1      18.502 -20.394  -0.088  0.00  0.00     0.002 A 
ATOM     31  C   UNL d   1      18.487 -20.785   1.248  0.00  0.00     0.007 A 
ATOM     32  C   UNL d   1      19.552 -20.450   2.097  0.00  0.00    -0.061 A 
ATOM     33  C   UNL d   1      19.489 -20.783   3.557  0.00  0.00     0.048 C 
ATOM     34  C   UNL d   1      20.654 -19.738   1.592  0.00  0.00     0.023 A 
ENDBRANCH  25  28
ENDBRANCH   4  24
TORSDOF 8
ENDMDL
