MODEL 1
REMARK VINA RESULT:    -8.866      0.000      0.000
REMARK INTER + INTRA:         -13.406
REMARK INTER:                 -11.252
REMARK INTRA:                  -2.154
REMARK CONF_INDEPENDENT:        2.386
REMARK UNBOUND:                -2.154
REMARK  8 active torsions:
REMARK  status: ('A' for Active; 'I' for Inactive)
REMARK       I    between atoms: C_2  and  N_3 
REMARK       I    between atoms: C_2  and  N_15 
REMARK    1  A    between atoms: N_3  and  C_4 
REMARK    2  A    between atoms: C_4  and  C_5 
REMARK    3  A    between atoms: C_5  and  C_6 
REMARK    4  A    between atoms: N_15  and  N_16 
REMARK       I    between atoms: N_16  and  C_17 
REMARK    5  A    between atoms: C_17  and  C_19 
REMARK    6  A    between atoms: C_22  and  C_23 
REMARK    7  A    between atoms: C_23  and  O_24 
REMARK    8  A    between atoms: O_24  and  C_25 
ROOT
ATOM      1  O   UNL d   1      26.098 -18.229   1.099  0.00  0.00    -0.246 OA
ATOM      2  C   UNL d   1      26.377 -17.653   0.051  0.00  0.00     0.334 C 
ATOM      3  N   UNL d   1      25.409 -17.062  -0.718  0.00  0.00    -0.341 N 
ATOM      4  N   UNL d   1      27.673 -17.576  -0.406  0.00  0.00    -0.249 N 
ATOM      5  H   UNL d   1      25.684 -16.610  -1.570  0.00  0.00     0.164 HD
ATOM      6  H   UNL d   1      28.392 -18.019   0.171  0.00  0.00     0.192 HD
ENDROOT
BRANCH   4   7
ATOM      7  N   UNL d   1      28.133 -16.912  -1.572  0.00  0.00    -0.260 N 
ATOM      8  C   UNL d   1      29.503 -16.900  -1.884  0.00  0.00     0.293 C 
ATOM      9  O   UNL d   1      30.331 -17.437  -1.141  0.00  0.00    -0.264 OA
ATOM     10  H   UNL d   1      27.468 -16.573  -2.248  0.00  0.00     0.190 HD
BRANCH   8  11
ATOM     11  C   UNL d   1      29.836 -16.177  -3.112  0.00  0.00     0.145 A 
ATOM     12  C   UNL d   1      30.971 -15.452  -3.441  0.00  0.00     0.045 A 
ATOM     13  C   UNL d   1      30.798 -14.969  -4.755  0.00  0.00     0.038 A 
ATOM     14  C   UNL d   1      29.557 -15.395  -5.184  0.00  0.00     0.078 A 
ATOM     15  O   UNL d   1      28.972 -16.156  -4.196  0.00  0.00    -0.307 OA
BRANCH  14  16
ATOM     16  C   UNL d   1      28.891 -15.150  -6.511  0.00  0.00     0.240 C 
BRANCH  16  17
ATOM     17  O   UNL d   1      27.472 -15.199  -6.397  0.00  0.00    -0.345 OA
BRANCH  17  18
ATOM     18  C   UNL d   1      26.955 -14.510  -5.324  0.00  0.00     0.069 A 
ATOM     19  C   UNL d   1      25.916 -15.147  -4.641  0.00  0.00     0.037 A 
ATOM     20  C   UNL d   1      25.211 -14.479  -3.634  0.00  0.00     0.003 A 
ATOM     21  C   UNL d   1      25.585 -13.192  -3.255  0.00  0.00     0.000 A 
ATOM     22  C   UNL d   1      26.636 -12.558  -3.913  0.00  0.00     0.003 A 
ATOM     23  C   UNL d   1      27.313 -13.209  -4.953  0.00  0.00     0.037 A 
ENDBRANCH  17  18
ENDBRANCH  16  17
ENDBRANCH  14  16
ENDBRANCH   8  11
ENDBRANCH   4   7
BRANCH   3  24
ATOM     24  C   UNL d   1      24.004 -17.098  -0.326  0.00  0.00     0.130 C 
BRANCH  24  25
ATOM     25  C   UNL d   1      23.170 -17.945  -1.275  0.00  0.00     0.078 C 
BRANCH  25  26
ATOM     26  C   UNL d   1      21.972 -18.551  -0.653  0.00  0.00     0.027 A 
ATOM     27  C   UNL d   1      20.803 -18.946  -1.253  0.00  0.00     0.117 A 
ATOM     28  N   UNL d   1      20.017 -19.538  -0.288  0.00  0.00    -0.345 N 
ATOM     29  C   UNL d   1      20.643 -19.510   0.892  0.00  0.00     0.083 A 
ATOM     30  C   UNL d   1      18.720 -20.146  -0.527  0.00  0.00     0.130 A 
ATOM     31  N   UNL d   1      21.826 -18.911   0.681  0.00  0.00    -0.348 N 
ATOM     32  C   UNL d   1      20.105 -20.078   2.149  0.00  0.00     0.076 A 
ATOM     33  H   UNL d   1      22.515 -18.764   1.417  0.00  0.00     0.167 HD
ATOM     34  C   UNL d   1      18.734 -20.724   2.050  0.00  0.00     0.009 A 
ATOM     35  C   UNL d   1      18.040 -20.752   0.689  0.00  0.00     0.021 A 
ENDBRANCH  25  26
ENDBRANCH  24  25
ENDBRANCH   3  24
TORSDOF 8
ENDMDL
MODEL 2
REMARK VINA RESULT:    -8.509      2.190      3.667
REMARK INTER + INTRA:         -12.918
REMARK INTER:                 -10.895
REMARK INTRA:                  -2.022
REMARK CONF_INDEPENDENT:        2.386
REMARK UNBOUND:                -2.022
REMARK  8 active torsions:
REMARK  status: ('A' for Active; 'I' for Inactive)
REMARK       I    between atoms: C_2  and  N_3 
REMARK       I    between atoms: C_2  and  N_15 
REMARK    1  A    between atoms: N_3  and  C_4 
REMARK    2  A    between atoms: C_4  and  C_5 
REMARK    3  A    between atoms: C_5  and  C_6 
REMARK    4  A    between atoms: N_15  and  N_16 
REMARK       I    between atoms: N_16  and  C_17 
REMARK    5  A    between atoms: C_17  and  C_19 
REMARK    6  A    between atoms: C_22  and  C_23 
REMARK    7  A    between atoms: C_23  and  O_24 
REMARK    8  A    between atoms: O_24  and  C_25 
ROOT
ATOM      1  O   UNL d   1      26.484 -18.160   1.081  0.00  0.00    -0.246 OA
ATOM      2  C   UNL d   1      26.578 -17.673  -0.043  0.00  0.00     0.334 C 
ATOM      3  N   UNL d   1      25.468 -17.291  -0.749  0.00  0.00    -0.341 N 
ATOM      4  N   UNL d   1      27.800 -17.492  -0.651  0.00  0.00    -0.249 N 
ATOM      5  H   UNL d   1      25.593 -16.905  -1.667  0.00  0.00     0.164 HD
ATOM      6  H   UNL d   1      28.625 -17.779  -0.120  0.00  0.00     0.192 HD
ENDROOT
BRANCH   4   7
ATOM      7  N   UNL d   1      28.048 -16.910  -1.920  0.00  0.00    -0.260 N 
ATOM      8  C   UNL d   1      27.453 -15.683  -2.262  0.00  0.00     0.293 C 
ATOM      9  O   UNL d   1      26.687 -15.108  -1.484  0.00  0.00    -0.264 OA
ATOM     10  H   UNL d   1      28.756 -17.301  -2.518  0.00  0.00     0.190 HD
BRANCH   8  11
ATOM     11  C   UNL d   1      27.792 -15.202  -3.602  0.00  0.00     0.145 A 
ATOM     12  C   UNL d   1      27.266 -14.146  -4.330  0.00  0.00     0.045 A 
ATOM     13  C   UNL d   1      27.955 -14.096  -5.561  0.00  0.00     0.038 A 
ATOM     14  C   UNL d   1      28.867 -15.132  -5.557  0.00  0.00     0.078 A 
ATOM     15  O   UNL d   1      28.793 -15.798  -4.353  0.00  0.00    -0.307 OA
BRANCH  14  16
ATOM     16  C   UNL d   1      29.849 -15.519  -6.630  0.00  0.00     0.240 C 
BRANCH  16  17
ATOM     17  O   UNL d   1      30.886 -16.345  -6.113  0.00  0.00    -0.345 OA
BRANCH  17  18
ATOM     18  C   UNL d   1      30.796 -17.673  -6.462  0.00  0.00     0.069 A 
ATOM     19  C   UNL d   1      30.418 -18.544  -5.437  0.00  0.00     0.037 A 
ATOM     20  C   UNL d   1      30.443 -19.928  -5.633  0.00  0.00     0.003 A 
ATOM     21  C   UNL d   1      30.780 -20.452  -6.879  0.00  0.00     0.000 A 
ATOM     22  C   UNL d   1      31.134 -19.590  -7.915  0.00  0.00     0.003 A 
ATOM     23  C   UNL d   1      31.154 -18.206  -7.706  0.00  0.00     0.037 A 
ENDBRANCH  17  18
ENDBRANCH  16  17
ENDBRANCH  14  16
ENDBRANCH   8  11
ENDBRANCH   4   7
BRANCH   3  24
ATOM     24  C   UNL d   1      24.127 -17.452  -0.197  0.00  0.00     0.130 C 
BRANCH  24  25
ATOM     25  C   UNL d   1      23.170 -18.077  -1.201  0.00  0.00     0.078 C 
BRANCH  25  26
ATOM     26  C   UNL d   1      21.957 -18.668  -0.594  0.00  0.00     0.027 A 
ATOM     27  C   UNL d   1      20.822 -19.122  -1.217  0.00  0.00     0.117 A 
ATOM     28  N   UNL d   1      20.005 -19.671  -0.252  0.00  0.00    -0.345 N 
ATOM     29  C   UNL d   1      20.579 -19.559   0.949  0.00  0.00     0.083 A 
ATOM     30  C   UNL d   1      18.731 -20.318  -0.508  0.00  0.00     0.130 A 
ATOM     31  N   UNL d   1      21.759 -18.950   0.753  0.00  0.00    -0.348 N 
ATOM     32  C   UNL d   1      19.997 -20.062   2.215  0.00  0.00     0.076 A 
ATOM     33  H   UNL d   1      22.413 -18.746   1.507  0.00  0.00     0.167 HD
ATOM     34  C   UNL d   1      18.643 -20.740   2.097  0.00  0.00     0.009 A 
ATOM     35  C   UNL d   1      18.010 -20.864   0.713  0.00  0.00     0.021 A 
ENDBRANCH  25  26
ENDBRANCH  24  25
ENDBRANCH   3  24
TORSDOF 8
ENDMDL
MODEL 3
REMARK VINA RESULT:    -8.474      2.441      8.690
REMARK INTER + INTRA:         -13.921
REMARK INTER:                 -10.860
REMARK INTRA:                  -3.061
REMARK CONF_INDEPENDENT:        2.386
REMARK UNBOUND:                -3.061
REMARK  8 active torsions:
REMARK  status: ('A' for Active; 'I' for Inactive)
REMARK       I    between atoms: C_2  and  N_3 
REMARK       I    between atoms: C_2  and  N_15 
REMARK    1  A    between atoms: N_3  and  C_4 
REMARK    2  A    between atoms: C_4  and  C_5 
REMARK    3  A    between atoms: C_5  and  C_6 
REMARK    4  A    between atoms: N_15  and  N_16 
REMARK       I    between atoms: N_16  and  C_17 
REMARK    5  A    between atoms: C_17  and  C_19 
REMARK    6  A    between atoms: C_22  and  C_23 
REMARK    7  A    between atoms: C_23  and  O_24 
REMARK    8  A    between atoms: O_24  and  C_25 
ROOT
ATOM      1  O   UNL d   1      31.522 -17.417  -1.075  0.00  0.00    -0.246 OA
ATOM      2  C   UNL d   1      30.310 -17.398  -1.275  0.00  0.00     0.334 C 
ATOM      3  N   UNL d   1      29.799 -17.248  -2.538  0.00  0.00    -0.341 N 
ATOM      4  N   UNL d   1      29.407 -17.518  -0.244  0.00  0.00    -0.249 N 
ATOM      5  H   UNL d   1      28.802 -17.230  -2.652  0.00  0.00     0.164 HD
ATOM      6  H   UNL d   1      29.794 -17.629   0.696  0.00  0.00     0.192 HD
ENDROOT
BRANCH   4   7
ATOM      7  N   UNL d   1      27.993 -17.550  -0.342  0.00  0.00    -0.260 N 
ATOM      8  C   UNL d   1      27.310 -16.525  -1.021  0.00  0.00     0.293 C 
ATOM      9  O   UNL d   1      27.919 -15.572  -1.514  0.00  0.00    -0.264 OA
ATOM     10  H   UNL d   1      27.490 -18.372  -0.052  0.00  0.00     0.190 HD
BRANCH   8  11
ATOM     11  C   UNL d   1      25.854 -16.683  -1.043  0.00  0.00     0.145 A 
ATOM     12  C   UNL d   1      24.869 -15.803  -1.462  0.00  0.00     0.045 A 
ATOM     13  C   UNL d   1      23.626 -16.449  -1.291  0.00  0.00     0.038 A 
ATOM     14  C   UNL d   1      23.886 -17.694  -0.754  0.00  0.00     0.078 A 
ATOM     15  O   UNL d   1      25.247 -17.857  -0.623  0.00  0.00    -0.307 OA
BRANCH  14  16
ATOM     16  C   UNL d   1      22.908 -18.776  -0.382  0.00  0.00     0.240 C 
BRANCH  16  17
ATOM     17  O   UNL d   1      21.569 -18.293  -0.395  0.00  0.00    -0.345 OA
BRANCH  17  18
ATOM     18  C   UNL d   1      20.649 -19.124   0.205  0.00  0.00     0.069 A 
ATOM     19  C   UNL d   1      19.715 -19.709  -0.653  0.00  0.00     0.037 A 
ATOM     20  C   UNL d   1      18.641 -20.445  -0.140  0.00  0.00     0.003 A 
ATOM     21  C   UNL d   1      18.533 -20.660   1.232  0.00  0.00     0.000 A 
ATOM     22  C   UNL d   1      19.476 -20.103   2.093  0.00  0.00     0.003 A 
ATOM     23  C   UNL d   1      20.525 -19.326   1.584  0.00  0.00     0.037 A 
ENDBRANCH  17  18
ENDBRANCH  16  17
ENDBRANCH  14  16
ENDBRANCH   8  11
ENDBRANCH   4   7
BRANCH   3  24
ATOM     24  C   UNL d   1      30.673 -17.101  -3.696  0.00  0.00     0.130 C 
BRANCH  24  25
ATOM     25  C   UNL d   1      29.884 -16.905  -4.982  0.00  0.00     0.078 C 
BRANCH  25  26
ATOM     26  C   UNL d   1      28.991 -15.724  -4.970  0.00  0.00     0.027 A 
ATOM     27  C   UNL d   1      29.046 -14.602  -5.757  0.00  0.00     0.117 A 
ATOM     28  N   UNL d   1      27.953 -13.821  -5.448  0.00  0.00    -0.345 N 
ATOM     29  C   UNL d   1      27.232 -14.404  -4.487  0.00  0.00     0.083 A 
ATOM     30  C   UNL d   1      27.610 -12.571  -6.103  0.00  0.00     0.130 A 
ATOM     31  N   UNL d   1      27.855 -15.556  -4.189  0.00  0.00    -0.348 N 
ATOM     32  C   UNL d   1      25.976 -13.859  -3.923  0.00  0.00     0.076 A 
ATOM     33  H   UNL d   1      27.510 -16.210  -3.488  0.00  0.00     0.167 HD
ATOM     34  C   UNL d   1      25.511 -12.533  -4.501  0.00  0.00     0.009 A 
ATOM     35  C   UNL d   1      26.347 -11.889  -5.604  0.00  0.00     0.021 A 
ENDBRANCH  25  26
ENDBRANCH  24  25
ENDBRANCH   3  24
TORSDOF 8
ENDMDL
MODEL 4
REMARK VINA RESULT:    -8.335      3.048      8.909
REMARK INTER + INTRA:         -12.804
REMARK INTER:                 -10.721
REMARK INTRA:                  -2.083
REMARK CONF_INDEPENDENT:        2.386
REMARK UNBOUND:                -2.083
REMARK  8 active torsions:
REMARK  status: ('A' for Active; 'I' for Inactive)
REMARK       I    between atoms: C_2  and  N_3 
REMARK       I    between atoms: C_2  and  N_15 
REMARK    1  A    between atoms: N_3  and  C_4 
REMARK    2  A    between atoms: C_4  and  C_5 
REMARK    3  A    between atoms: C_5  and  C_6 
REMARK    4  A    between atoms: N_15  and  N_16 
REMARK       I    between atoms: N_16  and  C_17 
REMARK    5  A    between atoms: C_17  and  C_19 
REMARK    6  A    between atoms: C_22  and  C_23 
REMARK    7  A    between atoms: C_23  and  O_24 
REMARK    8  A    between atoms: O_24  and  C_25 
ROOT
ATOM      1  O   UNL d   1      26.418 -11.753  -6.334  0.00  0.00    -0.246 OA
ATOM      2  C   UNL d   1      26.386 -12.587  -5.433  0.00  0.00     0.334 C 
ATOM      3  N   UNL d   1      27.281 -13.625  -5.391  0.00  0.00    -0.341 N 
ATOM      4  N   UNL d   1      25.450 -12.526  -4.426  0.00  0.00    -0.249 N 
ATOM      5  H   UNL d   1      27.212 -14.286  -4.640  0.00  0.00     0.164 HD
ATOM      6  H   UNL d   1      24.785 -11.750  -4.463  0.00  0.00     0.192 HD
ENDROOT
BRANCH   4   7
ATOM      7  N   UNL d   1      25.330 -13.397  -3.314  0.00  0.00    -0.260 N 
ATOM      8  C   UNL d   1      25.311 -14.789  -3.507  0.00  0.00     0.293 C 
ATOM      9  O   UNL d   1      25.367 -15.276  -4.640  0.00  0.00    -0.264 OA
ATOM     10  H   UNL d   1      25.401 -13.028  -2.380  0.00  0.00     0.190 HD
BRANCH   8  11
ATOM     11  C   UNL d   1      25.179 -15.567  -2.273  0.00  0.00     0.145 A 
ATOM     12  C   UNL d   1      26.125 -15.878  -1.309  0.00  0.00     0.045 A 
ATOM     13  C   UNL d   1      25.478 -16.638  -0.312  0.00  0.00     0.038 A 
ATOM     14  C   UNL d   1      24.163 -16.787  -0.704  0.00  0.00     0.078 A 
ATOM     15  O   UNL d   1      23.964 -16.114  -1.889  0.00  0.00    -0.307 OA
BRANCH  14  16
ATOM     16  C   UNL d   1      23.051 -17.512   0.004  0.00  0.00     0.240 C 
BRANCH  16  17
ATOM     17  O   UNL d   1      22.499 -18.541  -0.810  0.00  0.00    -0.345 OA
BRANCH  17  18
ATOM     18  C   UNL d   1      21.331 -19.092  -0.334  0.00  0.00     0.069 A 
ATOM     19  C   UNL d   1      20.339 -19.325  -1.289  0.00  0.00     0.037 A 
ATOM     20  C   UNL d   1      19.059 -19.735  -0.902  0.00  0.00     0.003 A 
ATOM     21  C   UNL d   1      18.781 -19.982   0.440  0.00  0.00     0.000 A 
ATOM     22  C   UNL d   1      19.772 -19.778   1.398  0.00  0.00     0.003 A 
ATOM     23  C   UNL d   1      21.040 -19.323   1.015  0.00  0.00     0.037 A 
ENDBRANCH  17  18
ENDBRANCH  16  17
ENDBRANCH  14  16
ENDBRANCH   8  11
ENDBRANCH   4   7
BRANCH   3  24
ATOM     24  C   UNL d   1      28.304 -13.784  -6.418  0.00  0.00     0.130 C 
BRANCH  24  25
ATOM     25  C   UNL d   1      28.784 -15.224  -6.524  0.00  0.00     0.078 C 
BRANCH  25  26
ATOM     26  C   UNL d   1      29.219 -15.813  -5.237  0.00  0.00     0.027 A 
ATOM     27  C   UNL d   1      30.390 -16.465  -4.947  0.00  0.00     0.117 A 
ATOM     28  N   UNL d   1      30.387 -16.752  -3.599  0.00  0.00    -0.345 N 
ATOM     29  C   UNL d   1      29.253 -16.319  -3.043  0.00  0.00     0.083 A 
ATOM     30  C   UNL d   1      31.477 -17.386  -2.879  0.00  0.00     0.130 A 
ATOM     31  N   UNL d   1      28.537 -15.753  -4.028  0.00  0.00    -0.348 N 
ATOM     32  C   UNL d   1      28.917 -16.435  -1.605  0.00  0.00     0.076 A 
ATOM     33  H   UNL d   1      27.623 -15.328  -3.879  0.00  0.00     0.167 HD
ATOM     34  C   UNL d   1      29.962 -17.109  -0.734  0.00  0.00     0.009 A 
ATOM     35  C   UNL d   1      31.255 -17.588  -1.389  0.00  0.00     0.021 A 
ENDBRANCH  25  26
ENDBRANCH  24  25
ENDBRANCH   3  24
TORSDOF 8
ENDMDL
MODEL 5
REMARK VINA RESULT:    -8.063      3.084     10.090
REMARK INTER + INTRA:         -12.368
REMARK INTER:                 -10.450
REMARK INTRA:                  -1.918
REMARK CONF_INDEPENDENT:        2.386
REMARK UNBOUND:                -1.918
REMARK  8 active torsions:
REMARK  status: ('A' for Active; 'I' for Inactive)
REMARK       I    between atoms: C_2  and  N_3 
REMARK       I    between atoms: C_2  and  N_15 
REMARK    1  A    between atoms: N_3  and  C_4 
REMARK    2  A    between atoms: C_4  and  C_5 
REMARK    3  A    between atoms: C_5  and  C_6 
REMARK    4  A    between atoms: N_15  and  N_16 
REMARK       I    between atoms: N_16  and  C_17 
REMARK    5  A    between atoms: C_17  and  C_19 
REMARK    6  A    between atoms: C_22  and  C_23 
REMARK    7  A    between atoms: C_23  and  O_24 
REMARK    8  A    between atoms: O_24  and  C_25 
ROOT
ATOM      1  O   UNL d   1      26.262 -12.232  -5.416  0.00  0.00    -0.246 OA
ATOM      2  C   UNL d   1      25.933 -13.266  -4.839  0.00  0.00     0.334 C 
ATOM      3  N   UNL d   1      26.547 -14.460  -5.112  0.00  0.00    -0.341 N 
ATOM      4  N   UNL d   1      24.930 -13.278  -3.896  0.00  0.00    -0.249 N 
ATOM      5  H   UNL d   1      26.240 -15.280  -4.622  0.00  0.00     0.164 HD
ATOM      6  H   UNL d   1      24.475 -12.384  -3.697  0.00  0.00     0.192 HD
ENDROOT
BRANCH   4   7
ATOM      7  N   UNL d   1      24.483 -14.388  -3.135  0.00  0.00    -0.260 N 
ATOM      8  C   UNL d   1      25.410 -15.190  -2.446  0.00  0.00     0.293 C 
ATOM      9  O   UNL d   1      26.622 -14.965  -2.513  0.00  0.00    -0.264 OA
ATOM     10  H   UNL d   1      23.499 -14.518  -2.973  0.00  0.00     0.190 HD
BRANCH   8  11
ATOM     11  C   UNL d   1      24.811 -16.302  -1.705  0.00  0.00     0.145 A 
ATOM     12  C   UNL d   1      25.413 -17.373  -1.063  0.00  0.00     0.045 A 
ATOM     13  C   UNL d   1      24.386 -18.150  -0.486  0.00  0.00     0.038 A 
ATOM     14  C   UNL d   1      23.189 -17.545  -0.808  0.00  0.00     0.078 A 
ATOM     15  O   UNL d   1      23.439 -16.399  -1.531  0.00  0.00    -0.307 OA
BRANCH  14  16
ATOM     16  C   UNL d   1      21.794 -17.972  -0.437  0.00  0.00     0.240 C 
BRANCH  16  17
ATOM     17  O   UNL d   1      21.766 -19.324   0.007  0.00  0.00    -0.345 OA
BRANCH  17  18
ATOM     18  C   UNL d   1      20.543 -19.755   0.469  0.00  0.00     0.069 A 
ATOM     19  C   UNL d   1      20.334 -19.618   1.844  0.00  0.00     0.037 A 
ATOM     20  C   UNL d   1      19.195 -20.161   2.449  0.00  0.00     0.003 A 
ATOM     21  C   UNL d   1      18.222 -20.786   1.673  0.00  0.00     0.000 A 
ATOM     22  C   UNL d   1      18.410 -20.904   0.298  0.00  0.00     0.003 A 
ATOM     23  C   UNL d   1      19.571 -20.402  -0.303  0.00  0.00     0.037 A 
ENDBRANCH  17  18
ENDBRANCH  16  17
ENDBRANCH  14  16
ENDBRANCH   8  11
ENDBRANCH   4   7
BRANCH   3  24
ATOM     24  C   UNL d   1      27.613 -14.554  -6.103  0.00  0.00     0.130 C 
BRANCH  24  25
ATOM     25  C   UNL d   1      28.987 -14.635  -5.454  0.00  0.00     0.078 C 
BRANCH  25  26
ATOM     26  C   UNL d   1      29.803 -15.785  -5.906  0.00  0.00     0.027 A 
ATOM     27  C   UNL d   1      30.890 -15.786  -6.742  0.00  0.00     0.117 A 
ATOM     28  N   UNL d   1      31.375 -17.076  -6.796  0.00  0.00    -0.345 N 
ATOM     29  C   UNL d   1      30.621 -17.879  -6.041  0.00  0.00     0.083 A 
ATOM     30  C   UNL d   1      32.558 -17.491  -7.526  0.00  0.00     0.130 A 
ATOM     31  N   UNL d   1      29.664 -17.107  -5.500  0.00  0.00    -0.348 N 
ATOM     32  C   UNL d   1      30.861 -19.327  -5.843  0.00  0.00     0.076 A 
ATOM     33  H   UNL d   1      28.950 -17.465  -4.868  0.00  0.00     0.167 HD
ATOM     34  C   UNL d   1      32.059 -19.905  -6.578  0.00  0.00     0.009 A 
ATOM     35  C   UNL d   1      32.911 -18.966  -7.429  0.00  0.00     0.021 A 
ENDBRANCH  25  26
ENDBRANCH  24  25
ENDBRANCH   3  24
TORSDOF 8
ENDMDL
MODEL 6
REMARK VINA RESULT:    -7.913      2.582      4.059
REMARK INTER + INTRA:         -12.537
REMARK INTER:                 -10.300
REMARK INTRA:                  -2.237
REMARK CONF_INDEPENDENT:        2.386
REMARK UNBOUND:                -2.237
REMARK  8 active torsions:
REMARK  status: ('A' for Active; 'I' for Inactive)
REMARK       I    between atoms: C_2  and  N_3 
REMARK       I    between atoms: C_2  and  N_15 
REMARK    1  A    between atoms: N_3  and  C_4 
REMARK    2  A    between atoms: C_4  and  C_5 
REMARK    3  A    between atoms: C_5  and  C_6 
REMARK    4  A    between atoms: N_15  and  N_16 
REMARK       I    between atoms: N_16  and  C_17 
REMARK    5  A    between atoms: C_17  and  C_19 
REMARK    6  A    between atoms: C_22  and  C_23 
REMARK    7  A    between atoms: C_23  and  O_24 
REMARK    8  A    between atoms: O_24  and  C_25 
ROOT
ATOM      1  O   UNL d   1      24.430 -18.456   1.298  0.00  0.00    -0.246 OA
ATOM      2  C   UNL d   1      25.337 -18.171   0.520  0.00  0.00     0.334 C 
ATOM      3  N   UNL d   1      25.081 -17.554  -0.677  0.00  0.00    -0.341 N 
ATOM      4  N   UNL d   1      26.651 -18.461   0.807  0.00  0.00    -0.249 N 
ATOM      5  H   UNL d   1      25.852 -17.348  -1.283  0.00  0.00     0.164 HD
ATOM      6  H   UNL d   1      26.836 -18.922   1.701  0.00  0.00     0.192 HD
ENDROOT
BRANCH   4   7
ATOM      7  N   UNL d   1      27.788 -18.154   0.018  0.00  0.00    -0.260 N 
ATOM      8  C   UNL d   1      27.973 -16.851  -0.477  0.00  0.00     0.293 C 
ATOM      9  O   UNL d   1      27.141 -15.964  -0.261  0.00  0.00    -0.264 OA
ATOM     10  H   UNL d   1      28.531 -18.826  -0.070  0.00  0.00     0.190 HD
BRANCH   8  11
ATOM     11  C   UNL d   1      29.185 -16.676  -1.278  0.00  0.00     0.145 A 
ATOM     12  C   UNL d   1      30.409 -16.121  -0.934  0.00  0.00     0.045 A 
ATOM     13  C   UNL d   1      31.246 -16.212  -2.067  0.00  0.00     0.038 A 
ATOM     14  C   UNL d   1      30.505 -16.799  -3.073  0.00  0.00     0.078 A 
ATOM     15  O   UNL d   1      29.252 -17.110  -2.593  0.00  0.00    -0.307 OA
BRANCH  14  16
ATOM     16  C   UNL d   1      30.929 -17.122  -4.481  0.00  0.00     0.240 C 
BRANCH  16  17
ATOM     17  O   UNL d   1      30.281 -18.293  -4.963  0.00  0.00    -0.345 OA
BRANCH  17  18
ATOM     18  C   UNL d   1      30.759 -18.766  -6.164  0.00  0.00     0.069 A 
ATOM     19  C   UNL d   1      31.191 -17.792  -7.068  0.00  0.00     0.037 A 
ATOM     20  C   UNL d   1      31.551 -18.142  -8.374  0.00  0.00     0.003 A 
ATOM     21  C   UNL d   1      31.547 -19.478  -8.765  0.00  0.00     0.000 A 
ATOM     22  C   UNL d   1      31.143 -20.459  -7.863  0.00  0.00     0.003 A 
ATOM     23  C   UNL d   1      30.738 -20.105  -6.569  0.00  0.00     0.037 A 
ENDBRANCH  17  18
ENDBRANCH  16  17
ENDBRANCH  14  16
ENDBRANCH   8  11
ENDBRANCH   4   7
BRANCH   3  24
ATOM     24  C   UNL d   1      23.720 -17.215  -1.078  0.00  0.00     0.130 C 
BRANCH  24  25
ATOM     25  C   UNL d   1      22.983 -18.413  -1.657  0.00  0.00     0.078 C 
BRANCH  25  26
ATOM     26  C   UNL d   1      21.843 -18.878  -0.835  0.00  0.00     0.027 A 
ATOM     27  C   UNL d   1      20.644 -19.399  -1.251  0.00  0.00     0.117 A 
ATOM     28  N   UNL d   1      19.939 -19.774  -0.128  0.00  0.00    -0.345 N 
ATOM     29  C   UNL d   1      20.644 -19.490   0.970  0.00  0.00     0.083 A 
ATOM     30  C   UNL d   1      18.642 -20.426  -0.137  0.00  0.00     0.130 A 
ATOM     31  N   UNL d   1      21.797 -18.944   0.552  0.00  0.00    -0.348 N 
ATOM     32  C   UNL d   1      20.206 -19.779   2.355  0.00  0.00     0.076 A 
ATOM     33  H   UNL d   1      22.532 -18.639   1.189  0.00  0.00     0.167 HD
ATOM     34  C   UNL d   1      18.845 -20.438   2.495  0.00  0.00     0.009 A 
ATOM     35  C   UNL d   1      18.060 -20.761   1.226  0.00  0.00     0.021 A 
ENDBRANCH  25  26
ENDBRANCH  24  25
ENDBRANCH   3  24
TORSDOF 8
ENDMDL
MODEL 7
REMARK VINA RESULT:    -7.409      4.113      8.840
REMARK INTER + INTRA:         -12.381
REMARK INTER:                  -9.795
REMARK INTRA:                  -2.586
REMARK CONF_INDEPENDENT:        2.386
REMARK UNBOUND:                -2.586
REMARK  8 active torsions:
REMARK  status: ('A' for Active; 'I' for Inactive)
REMARK       I    between atoms: C_2  and  N_3 
REMARK       I    between atoms: C_2  and  N_15 
REMARK    1  A    between atoms: N_3  and  C_4 
REMARK    2  A    between atoms: C_4  and  C_5 
REMARK    3  A    between atoms: C_5  and  C_6 
REMARK    4  A    between atoms: N_15  and  N_16 
REMARK       I    between atoms: N_16  and  C_17 
REMARK    5  A    between atoms: C_17  and  C_19 
REMARK    6  A    between atoms: C_22  and  C_23 
REMARK    7  A    between atoms: C_23  and  O_24 
REMARK    8  A    between atoms: O_24  and  C_25 
ROOT
ATOM      1  O   UNL d   1      28.784 -12.475  -2.886  0.00  0.00    -0.246 OA
ATOM      2  C   UNL d   1      27.942 -13.180  -2.336  0.00  0.00     0.334 C 
ATOM      3  N   UNL d   1      27.430 -12.852  -1.108  0.00  0.00    -0.341 N 
ATOM      4  N   UNL d   1      27.475 -14.336  -2.921  0.00  0.00    -0.249 N 
ATOM      5  H   UNL d   1      26.749 -13.463  -0.694  0.00  0.00     0.164 HD
ATOM      6  H   UNL d   1      27.861 -14.576  -3.837  0.00  0.00     0.192 HD
ENDROOT
BRANCH   4   7
ATOM      7  N   UNL d   1      26.483 -15.212  -2.414  0.00  0.00    -0.260 N 
ATOM      8  C   UNL d   1      26.549 -15.659  -1.083  0.00  0.00     0.293 C 
ATOM      9  O   UNL d   1      27.480 -15.324  -0.344  0.00  0.00    -0.264 OA
ATOM     10  H   UNL d   1      25.658 -15.402  -2.959  0.00  0.00     0.190 HD
BRANCH   8  11
ATOM     11  C   UNL d   1      25.464 -16.561  -0.694  0.00  0.00     0.145 A 
ATOM     12  C   UNL d   1      25.484 -17.681   0.123  0.00  0.00     0.045 A 
ATOM     13  C   UNL d   1      24.166 -18.181   0.186  0.00  0.00     0.038 A 
ATOM     14  C   UNL d   1      23.384 -17.367  -0.608  0.00  0.00     0.078 A 
ATOM     15  O   UNL d   1      24.163 -16.358  -1.130  0.00  0.00    -0.307 OA
BRANCH  14  16
ATOM     16  C   UNL d   1      21.908 -17.465  -0.882  0.00  0.00     0.240 C 
BRANCH  16  17
ATOM     17  O   UNL d   1      21.525 -18.800  -1.197  0.00  0.00    -0.345 OA
BRANCH  17  18
ATOM     18  C   UNL d   1      20.535 -19.321  -0.396  0.00  0.00     0.069 A 
ATOM     19  C   UNL d   1      20.821 -19.362   0.971  0.00  0.00     0.037 A 
ATOM     20  C   UNL d   1      19.957 -20.010   1.860  0.00  0.00     0.003 A 
ATOM     21  C   UNL d   1      18.765 -20.562   1.399  0.00  0.00     0.000 A 
ATOM     22  C   UNL d   1      18.458 -20.503   0.042  0.00  0.00     0.003 A 
ATOM     23  C   UNL d   1      19.345 -19.896  -0.857  0.00  0.00     0.037 A 
ENDBRANCH  17  18
ENDBRANCH  16  17
ENDBRANCH  14  16
ENDBRANCH   8  11
ENDBRANCH   4   7
BRANCH   3  24
ATOM     24  C   UNL d   1      27.868 -11.654  -0.400  0.00  0.00     0.130 C 
BRANCH  24  25
ATOM     25  C   UNL d   1      27.009 -11.371   0.823  0.00  0.00     0.078 C 
BRANCH  25  26
ATOM     26  C   UNL d   1      27.456 -12.066   2.051  0.00  0.00     0.027 A 
ATOM     27  C   UNL d   1      27.715 -11.536   3.289  0.00  0.00     0.117 A 
ATOM     28  N   UNL d   1      28.012 -12.580   4.138  0.00  0.00    -0.345 N 
ATOM     29  C   UNL d   1      27.966 -13.737   3.473  0.00  0.00     0.083 A 
ATOM     30  C   UNL d   1      28.287 -12.448   5.557  0.00  0.00     0.130 A 
ATOM     31  N   UNL d   1      27.633 -13.436   2.207  0.00  0.00    -0.348 N 
ATOM     32  C   UNL d   1      28.206 -15.069   4.073  0.00  0.00     0.076 A 
ATOM     33  H   UNL d   1      27.518 -14.139   1.479  0.00  0.00     0.167 HD
ATOM     34  C   UNL d   1      28.536 -15.077   5.556  0.00  0.00     0.009 A 
ATOM     35  C   UNL d   1      28.575 -13.743   6.298  0.00  0.00     0.021 A 
ENDBRANCH  25  26
ENDBRANCH  24  25
ENDBRANCH   3  24
TORSDOF 8
ENDMDL
MODEL 8
REMARK VINA RESULT:    -6.932      3.050      9.256
REMARK INTER + INTRA:         -12.336
REMARK INTER:                  -9.319
REMARK INTRA:                  -3.017
REMARK CONF_INDEPENDENT:        2.386
REMARK UNBOUND:                -3.017
REMARK  8 active torsions:
REMARK  status: ('A' for Active; 'I' for Inactive)
REMARK       I    between atoms: C_2  and  N_3 
REMARK       I    between atoms: C_2  and  N_15 
REMARK    1  A    between atoms: N_3  and  C_4 
REMARK    2  A    between atoms: C_4  and  C_5 
REMARK    3  A    between atoms: C_5  and  C_6 
REMARK    4  A    between atoms: N_15  and  N_16 
REMARK       I    between atoms: N_16  and  C_17 
REMARK    5  A    between atoms: C_17  and  C_19 
REMARK    6  A    between atoms: C_22  and  C_23 
REMARK    7  A    between atoms: C_23  and  O_24 
REMARK    8  A    between atoms: O_24  and  C_25 
ROOT
ATOM      1  O   UNL d   1      25.732 -12.154  -5.468  0.00  0.00    -0.246 OA
ATOM      2  C   UNL d   1      25.726 -13.180  -4.792  0.00  0.00     0.334 C 
ATOM      3  N   UNL d   1      26.693 -14.139  -4.945  0.00  0.00    -0.341 N 
ATOM      4  N   UNL d   1      24.749 -13.420  -3.853  0.00  0.00    -0.249 N 
ATOM      5  H   UNL d   1      26.643 -14.964  -4.376  0.00  0.00     0.164 HD
ATOM      6  H   UNL d   1      24.030 -12.701  -3.744  0.00  0.00     0.192 HD
ENDROOT
BRANCH   4   7
ATOM      7  N   UNL d   1      24.649 -14.537  -2.986  0.00  0.00    -0.260 N 
ATOM      8  C   UNL d   1      25.738 -14.901  -2.176  0.00  0.00     0.293 C 
ATOM      9  O   UNL d   1      26.804 -14.280  -2.224  0.00  0.00    -0.264 OA
ATOM     10  H   UNL d   1      23.757 -14.982  -2.846  0.00  0.00     0.190 HD
BRANCH   8  11
ATOM     11  C   UNL d   1      25.498 -16.075  -1.334  0.00  0.00     0.145 A 
ATOM     12  C   UNL d   1      26.283 -16.633  -0.337  0.00  0.00     0.045 A 
ATOM     13  C   UNL d   1      25.584 -17.746   0.177  0.00  0.00     0.038 A 
ATOM     14  C   UNL d   1      24.405 -17.847  -0.533  0.00  0.00     0.078 A 
ATOM     15  O   UNL d   1      24.330 -16.815  -1.441  0.00  0.00    -0.307 OA
BRANCH  14  16
ATOM     16  C   UNL d   1      23.304 -18.862  -0.378  0.00  0.00     0.240 C 
BRANCH  16  17
ATOM     17  O   UNL d   1      22.074 -18.380  -0.908  0.00  0.00    -0.345 OA
BRANCH  17  18
ATOM     18  C   UNL d   1      20.947 -18.969  -0.381  0.00  0.00     0.069 A 
ATOM     19  C   UNL d   1      20.999 -19.262   0.984  0.00  0.00     0.037 A 
ATOM     20  C   UNL d   1      19.979 -19.999   1.594  0.00  0.00     0.003 A 
ATOM     21  C   UNL d   1      18.863 -20.390   0.857  0.00  0.00     0.000 A 
ATOM     22  C   UNL d   1      18.789 -20.079  -0.499  0.00  0.00     0.003 A 
ATOM     23  C   UNL d   1      19.833 -19.381  -1.121  0.00  0.00     0.037 A 
ENDBRANCH  17  18
ENDBRANCH  16  17
ENDBRANCH  14  16
ENDBRANCH   8  11
ENDBRANCH   4   7
BRANCH   3  24
ATOM     24  C   UNL d   1      27.766 -13.985  -5.921  0.00  0.00     0.130 C 
BRANCH  24  25
ATOM     25  C   UNL d   1      28.723 -12.865  -5.540  0.00  0.00     0.078 C 
BRANCH  25  26
ATOM     26  C   UNL d   1      28.654 -12.467  -4.116  0.00  0.00     0.027 A 
ATOM     27  C   UNL d   1      29.464 -12.853  -3.079  0.00  0.00     0.117 A 
ATOM     28  N   UNL d   1      29.072 -12.153  -1.959  0.00  0.00    -0.345 N 
ATOM     29  C   UNL d   1      28.039 -11.360  -2.254  0.00  0.00     0.083 A 
ATOM     30  C   UNL d   1      29.718 -12.228  -0.661  0.00  0.00     0.130 A 
ATOM     31  N   UNL d   1      27.775 -11.547  -3.557  0.00  0.00    -0.348 N 
ATOM     32  C   UNL d   1      27.374 -10.445  -1.298  0.00  0.00     0.076 A 
ATOM     33  H   UNL d   1      27.033 -11.054  -4.052  0.00  0.00     0.167 HD
ATOM     34  C   UNL d   1      27.933 -10.444   0.115  0.00  0.00     0.009 A 
ATOM     35  C   UNL d   1      29.120 -11.351   0.427  0.00  0.00     0.021 A 
ENDBRANCH  25  26
ENDBRANCH  24  25
ENDBRANCH   3  24
TORSDOF 8
ENDMDL
MODEL 9
REMARK VINA RESULT:    -6.898      6.467      9.609
REMARK INTER + INTRA:         -12.679
REMARK INTER:                  -9.284
REMARK INTRA:                  -3.395
REMARK CONF_INDEPENDENT:        2.386
REMARK UNBOUND:                -3.395
REMARK  8 active torsions:
REMARK  status: ('A' for Active; 'I' for Inactive)
REMARK       I    between atoms: C_2  and  N_3 
REMARK       I    between atoms: C_2  and  N_15 
REMARK    1  A    between atoms: N_3  and  C_4 
REMARK    2  A    between atoms: C_4  and  C_5 
REMARK    3  A    between atoms: C_5  and  C_6 
REMARK    4  A    between atoms: N_15  and  N_16 
REMARK       I    between atoms: N_16  and  C_17 
REMARK    5  A    between atoms: C_17  and  C_19 
REMARK    6  A    between atoms: C_22  and  C_23 
REMARK    7  A    between atoms: C_23  and  O_24 
REMARK    8  A    between atoms: O_24  and  C_25 
ROOT
ATOM      1  O   UNL d   1      29.645 -14.095   7.968  0.00  0.00    -0.246 OA
ATOM      2  C   UNL d   1      29.370 -13.960   6.779  0.00  0.00     0.334 C 
ATOM      3  N   UNL d   1      29.661 -12.801   6.108  0.00  0.00    -0.341 N 
ATOM      4  N   UNL d   1      28.753 -14.960   6.062  0.00  0.00    -0.249 N 
ATOM      5  H   UNL d   1      29.411 -12.733   5.139  0.00  0.00     0.164 HD
ATOM      6  H   UNL d   1      28.538 -15.823   6.568  0.00  0.00     0.192 HD
ENDROOT
BRANCH   4   7
ATOM      7  N   UNL d   1      28.419 -14.946   4.685  0.00  0.00    -0.260 N 
ATOM      8  C   UNL d   1      27.680 -13.876   4.149  0.00  0.00     0.293 C 
ATOM      9  O   UNL d   1      27.287 -12.952   4.865  0.00  0.00    -0.264 OA
ATOM     10  H   UNL d   1      28.827 -15.625   4.065  0.00  0.00     0.190 HD
BRANCH   8  11
ATOM     11  C   UNL d   1      27.403 -13.993   2.716  0.00  0.00     0.145 A 
ATOM     12  C   UNL d   1      26.726 -13.133   1.866  0.00  0.00     0.045 A 
ATOM     13  C   UNL d   1      26.756 -13.705   0.576  0.00  0.00     0.038 A 
ATOM     14  C   UNL d   1      27.431 -14.904   0.679  0.00  0.00     0.078 A 
ATOM     15  O   UNL d   1      27.854 -15.077   1.978  0.00  0.00    -0.307 OA
BRANCH  14  16
ATOM     16  C   UNL d   1      27.738 -15.902  -0.406  0.00  0.00     0.240 C 
BRANCH  16  17
ATOM     17  O   UNL d   1      27.108 -17.153  -0.155  0.00  0.00    -0.345 OA
BRANCH  17  18
ATOM     18  C   UNL d   1      25.739 -17.150  -0.300  0.00  0.00     0.069 A 
ATOM     19  C   UNL d   1      25.062 -18.199   0.326  0.00  0.00     0.037 A 
ATOM     20  C   UNL d   1      23.692 -18.387   0.119  0.00  0.00     0.003 A 
ATOM     21  C   UNL d   1      22.973 -17.486  -0.662  0.00  0.00     0.000 A 
ATOM     22  C   UNL d   1      23.634 -16.421  -1.269  0.00  0.00     0.003 A 
ATOM     23  C   UNL d   1      25.015 -16.259  -1.100  0.00  0.00     0.037 A 
ENDBRANCH  17  18
ENDBRANCH  16  17
ENDBRANCH  14  16
ENDBRANCH   8  11
ENDBRANCH   4   7
BRANCH   3  24
ATOM     24  C   UNL d   1      30.304 -11.677   6.781  0.00  0.00     0.130 C 
BRANCH  24  25
ATOM     25  C   UNL d   1      29.373 -10.481   6.906  0.00  0.00     0.078 C 
BRANCH  25  26
ATOM     26  C   UNL d   1      28.806 -10.018   5.620  0.00  0.00     0.027 A 
ATOM     27  C   UNL d   1      29.400  -9.253   4.648  0.00  0.00     0.117 A 
ATOM     28  N   UNL d   1      28.518  -9.157   3.593  0.00  0.00    -0.345 N 
ATOM     29  C   UNL d   1      27.392  -9.817   3.878  0.00  0.00     0.083 A 
ATOM     30  C   UNL d   1      28.790  -8.481   2.338  0.00  0.00     0.130 A 
ATOM     31  N   UNL d   1      27.555 -10.338   5.105  0.00  0.00    -0.348 N 
ATOM     32  C   UNL d   1      26.233  -9.947   2.965  0.00  0.00     0.076 A 
ATOM     33  H   UNL d   1      26.846 -10.904   5.569  0.00  0.00     0.167 HD
ATOM     34  C   UNL d   1      26.371  -9.258   1.619  0.00  0.00     0.009 A 
ATOM     35  C   UNL d   1      27.671  -8.517   1.311  0.00  0.00     0.021 A 
ENDBRANCH  25  26
ENDBRANCH  24  25
ENDBRANCH   3  24
TORSDOF 8
ENDMDL
