MODEL 1
REMARK VINA RESULT:    -8.444      0.000      0.000
REMARK INTER + INTRA:         -10.814
REMARK INTER:                  -9.935
REMARK INTRA:                  -0.879
REMARK CONF_INDEPENDENT:        1.492
REMARK UNBOUND:                -0.879
REMARK  5 active torsions:
REMARK  status: ('A' for Active; 'I' for Inactive)
REMARK       I    between atoms: C_2  and  N_4 
REMARK    1  A    between atoms: N_7  and  C_8 
REMARK    2  A    between atoms: C_11  and  N_12 
REMARK    3  A    between atoms: N_12  and  C_13 
REMARK    4  A    between atoms: C_13  and  N_15 
REMARK       I    between atoms: N_15  and  C_16 
REMARK    5  A    between atoms: C_16  and  C_18 
ROOT
ATOM      1  N   UNL d   1      29.538 -15.883  -2.723  0.00  0.00    -0.333 N 
ATOM      2  H   UNL d   1      30.372 -15.926  -2.143  0.00  0.00     0.168 HD
ENDROOT
BRANCH   1   3
ATOM      3  C   UNL d   1      28.304 -16.298  -2.029  0.00  0.00     0.036 A 
ATOM      4  C   UNL d   1      28.245 -17.222  -0.978  0.00  0.00     0.032 A 
ATOM      5  C   UNL d   1      26.981 -17.576  -0.367  0.00  0.00     0.033 A 
ATOM      6  C   UNL d   1      25.737 -17.043  -0.783  0.00  0.00     0.052 A 
ATOM      7  C   UNL d   1      25.828 -16.112  -1.800  0.00  0.00     0.062 A 
ATOM      8  C   UNL d   1      27.058 -15.788  -2.368  0.00  0.00     0.055 A 
ATOM      9 CL   UNL d   1      24.495 -15.210  -2.446  0.00  0.00    -0.082 Cl
BRANCH   6  10
ATOM     10  N   UNL d   1      24.531 -17.472  -0.255  0.00  0.00    -0.376 N 
ATOM     11  C   UNL d   1      23.386 -16.559  -0.069  0.00  0.00     0.143 C 
ATOM     12  C   UNL d   1      22.135 -17.007  -0.895  0.00  0.00     0.145 C 
ATOM     13  N   UNL d   1      21.856 -18.435  -0.653  0.00  0.00    -0.349 N 
ATOM     14  C   UNL d   1      20.603 -18.948  -0.383  0.00  0.00     0.215 C 
ATOM     15  C   UNL d   1      22.974 -19.294  -1.005  0.00  0.00     0.145 C 
ATOM     16  C   UNL d   1      20.592 -20.166   0.527  0.00  0.00     0.117 C 
ATOM     17  O   UNL d   1      19.555 -18.400  -0.729  0.00  0.00    -0.274 OA
ATOM     18  C   UNL d   1      24.216 -18.916  -0.185  0.00  0.00     0.143 C 
ENDBRANCH   6  10
ENDBRANCH   1   3
BRANCH   1  19
ATOM     19  C   UNL d   1      29.657 -15.440  -4.087  0.00  0.00     0.179 C 
ATOM     20  S   UNL d   1      30.475 -16.246  -5.328  0.00  0.00    -0.040 SA
BRANCH  19  21
ATOM     21  N   UNL d   1      29.027 -14.210  -4.404  0.00  0.00    -0.299 N 
ATOM     22  C   UNL d   1      27.897 -14.118  -5.262  0.00  0.00     0.257 C 
ATOM     23  O   UNL d   1      27.344 -15.035  -5.874  0.00  0.00    -0.267 OA
ATOM     24  H   UNL d   1      29.340 -13.357  -3.962  0.00  0.00     0.171 HD
BRANCH  22  25
ATOM     25  C   UNL d   1      27.221 -12.853  -5.537  0.00  0.00     0.035 A 
ATOM     26  C   UNL d   1      27.404 -12.297  -6.825  0.00  0.00     0.020 A 
ATOM     27  C   UNL d   1      26.935 -11.023  -7.120  0.00  0.00     0.040 A 
ATOM     28  C   UNL d   1      26.310 -10.291  -6.120  0.00  0.00     0.102 A 
ATOM     29  C   UNL d   1      26.166 -10.833  -4.831  0.00  0.00     0.103 A 
ATOM     30  O   UNL d   1      25.855  -9.049  -6.471  0.00  0.00    -0.346 OA
ATOM     31  C   UNL d   1      26.640 -12.107  -4.525  0.00  0.00     0.056 A 
ATOM     32  O   UNL d   1      25.578 -10.152  -3.797  0.00  0.00    -0.346 OA
ATOM     33  C   UNL d   1      24.786  -9.066  -4.283  0.00  0.00     0.202 C 
ATOM     34  C   UNL d   1      25.542  -8.256  -5.323  0.00  0.00     0.202 C 
ENDBRANCH  22  25
ENDBRANCH  19  21
ENDBRANCH   1  19
TORSDOF 5
ENDMDL
MODEL 2
REMARK VINA RESULT:    -8.420      3.781     10.236
REMARK INTER + INTRA:         -11.208
REMARK INTER:                  -9.911
REMARK INTRA:                  -1.297
REMARK CONF_INDEPENDENT:        1.492
REMARK UNBOUND:                -1.297
REMARK  5 active torsions:
REMARK  status: ('A' for Active; 'I' for Inactive)
REMARK       I    between atoms: C_2  and  N_4 
REMARK    1  A    between atoms: N_7  and  C_8 
REMARK    2  A    between atoms: C_11  and  N_12 
REMARK    3  A    between atoms: N_12  and  C_13 
REMARK    4  A    between atoms: C_13  and  N_15 
REMARK       I    between atoms: N_15  and  C_16 
REMARK    5  A    between atoms: C_16  and  C_18 
ROOT
ATOM      1  N   UNL d   1      25.586 -16.008  -1.682  0.00  0.00    -0.333 N 
ATOM      2  H   UNL d   1      24.774 -15.406  -1.568  0.00  0.00     0.168 HD
ENDROOT
BRANCH   1   3
ATOM      3  C   UNL d   1      26.388 -15.711  -2.883  0.00  0.00     0.036 A 
ATOM      4  C   UNL d   1      25.863 -15.446  -4.155  0.00  0.00     0.032 A 
ATOM      5  C   UNL d   1      26.735 -15.177  -5.279  0.00  0.00     0.033 A 
ATOM      6  C   UNL d   1      28.147 -15.178  -5.189  0.00  0.00     0.052 A 
ATOM      7  C   UNL d   1      28.637 -15.413  -3.918  0.00  0.00     0.062 A 
ATOM      8  C   UNL d   1      27.775 -15.665  -2.854  0.00  0.00     0.055 A 
ATOM      9 CL   UNL d   1      30.312 -15.369  -3.473  0.00  0.00    -0.082 Cl
BRANCH   6  10
ATOM     10  N   UNL d   1      28.962 -15.022  -6.297  0.00  0.00    -0.376 N 
ATOM     11  C   UNL d   1      29.002 -13.765  -7.072  0.00  0.00     0.143 C 
ATOM     12  C   UNL d   1      30.426 -13.119  -7.073  0.00  0.00     0.145 C 
ATOM     13  N   UNL d   1      31.437 -14.127  -7.445  0.00  0.00    -0.349 N 
ATOM     14  C   UNL d   1      32.445 -13.916  -8.364  0.00  0.00     0.215 C 
ATOM     15  C   UNL d   1      31.449 -15.268  -6.546  0.00  0.00     0.145 C 
ATOM     16  C   UNL d   1      32.869 -15.150  -9.144  0.00  0.00     0.117 C 
ATOM     17  O   UNL d   1      32.887 -12.800  -8.645  0.00  0.00    -0.274 OA
ATOM     18  C   UNL d   1      30.079 -15.960  -6.545  0.00  0.00     0.143 C 
ENDBRANCH   6  10
ENDBRANCH   1   3
BRANCH   1  19
ATOM     19  C   UNL d   1      25.842 -17.028  -0.699  0.00  0.00     0.179 C 
ATOM     20  S   UNL d   1      27.304 -17.288   0.110  0.00  0.00    -0.040 SA
BRANCH  19  21
ATOM     21  N   UNL d   1      24.758 -17.890  -0.393  0.00  0.00    -0.299 N 
ATOM     22  C   UNL d   1      23.398 -17.509  -0.556  0.00  0.00     0.257 C 
ATOM     23  O   UNL d   1      22.964 -16.414  -0.922  0.00  0.00    -0.267 OA
ATOM     24  H   UNL d   1      24.939 -18.841  -0.105  0.00  0.00     0.171 HD
BRANCH  22  25
ATOM     25  C   UNL d   1      22.290 -18.424  -0.292  0.00  0.00     0.035 A 
ATOM     26  C   UNL d   1      21.613 -18.950  -1.417  0.00  0.00     0.020 A 
ATOM     27  C   UNL d   1      20.450 -19.694  -1.260  0.00  0.00     0.040 A 
ATOM     28  C   UNL d   1      19.946 -19.887   0.019  0.00  0.00     0.102 A 
ATOM     29  C   UNL d   1      20.601 -19.329   1.130  0.00  0.00     0.103 A 
ATOM     30  O   UNL d   1      18.807 -20.640   0.115  0.00  0.00    -0.346 OA
ATOM     31  C   UNL d   1      21.763 -18.575   0.980  0.00  0.00     0.056 A 
ATOM     32  O   UNL d   1      20.141 -19.466   2.414  0.00  0.00    -0.346 OA
ATOM     33  C   UNL d   1      19.217 -20.552   2.513  0.00  0.00     0.202 C 
ATOM     34  C   UNL d   1      18.188 -20.502   1.396  0.00  0.00     0.202 C 
ENDBRANCH  22  25
ENDBRANCH  19  21
ENDBRANCH   1  19
TORSDOF 5
ENDMDL
MODEL 3
REMARK VINA RESULT:    -8.410      3.827      6.393
REMARK INTER + INTRA:         -10.762
REMARK INTER:                  -9.902
REMARK INTRA:                  -0.860
REMARK CONF_INDEPENDENT:        1.492
REMARK UNBOUND:                -0.860
REMARK  5 active torsions:
REMARK  status: ('A' for Active; 'I' for Inactive)
REMARK       I    between atoms: C_2  and  N_4 
REMARK    1  A    between atoms: N_7  and  C_8 
REMARK    2  A    between atoms: C_11  and  N_12 
REMARK    3  A    between atoms: N_12  and  C_13 
REMARK    4  A    between atoms: C_13  and  N_15 
REMARK       I    between atoms: N_15  and  C_16 
REMARK    5  A    between atoms: C_16  and  C_18 
ROOT
ATOM      1  N   UNL d   1      28.953 -15.034  -2.783  0.00  0.00    -0.333 N 
ATOM      2  H   UNL d   1      29.664 -14.865  -2.076  0.00  0.00     0.168 HD
ENDROOT
BRANCH   1   3
ATOM      3  C   UNL d   1      27.711 -15.628  -2.254  0.00  0.00     0.036 A 
ATOM      4  C   UNL d   1      26.425 -15.374  -2.749  0.00  0.00     0.032 A 
ATOM      5  C   UNL d   1      25.261 -15.996  -2.153  0.00  0.00     0.033 A 
ATOM      6  C   UNL d   1      25.327 -16.872  -1.043  0.00  0.00     0.052 A 
ATOM      7  C   UNL d   1      26.609 -17.128  -0.595  0.00  0.00     0.062 A 
ATOM      8  C   UNL d   1      27.711 -16.518  -1.189  0.00  0.00     0.055 A 
ATOM      9 CL   UNL d   1      27.017 -18.239   0.672  0.00  0.00    -0.082 Cl
BRANCH   6  10
ATOM     10  N   UNL d   1      24.195 -17.374  -0.424  0.00  0.00    -0.376 N 
ATOM     11  C   UNL d   1      23.005 -16.538  -0.168  0.00  0.00     0.143 C 
ATOM     12  C   UNL d   1      21.733 -17.085  -0.896  0.00  0.00     0.145 C 
ATOM     13  N   UNL d   1      21.572 -18.525  -0.617  0.00  0.00    -0.349 N 
ATOM     14  C   UNL d   1      20.380 -19.117  -0.251  0.00  0.00     0.215 C 
ATOM     15  C   UNL d   1      22.719 -19.310  -1.038  0.00  0.00     0.145 C 
ATOM     16  C   UNL d   1      20.519 -20.317   0.672  0.00  0.00     0.117 C 
ATOM     17  O   UNL d   1      19.274 -18.649  -0.528  0.00  0.00    -0.274 OA
ATOM     18  C   UNL d   1      23.986 -18.834  -0.314  0.00  0.00     0.143 C 
ENDBRANCH   6  10
ENDBRANCH   1   3
BRANCH   1  19
ATOM     19  C   UNL d   1      29.233 -14.688  -4.152  0.00  0.00     0.179 C 
ATOM     20  S   UNL d   1      29.375 -13.123  -4.775  0.00  0.00    -0.040 SA
BRANCH  19  21
ATOM     21  N   UNL d   1      29.401 -15.772  -5.051  0.00  0.00    -0.299 N 
ATOM     22  C   UNL d   1      30.334 -16.821  -4.832  0.00  0.00     0.257 C 
ATOM     23  O   UNL d   1      31.140 -16.927  -3.903  0.00  0.00    -0.267 OA
ATOM     24  H   UNL d   1      28.796 -15.855  -5.856  0.00  0.00     0.171 HD
BRANCH  22  25
ATOM     25  C   UNL d   1      30.459 -17.962  -5.734  0.00  0.00     0.035 A 
ATOM     26  C   UNL d   1      30.520 -19.245  -5.140  0.00  0.00     0.020 A 
ATOM     27  C   UNL d   1      30.801 -20.369  -5.907  0.00  0.00     0.040 A 
ATOM     28  C   UNL d   1      31.053 -20.209  -7.263  0.00  0.00     0.102 A 
ATOM     29  C   UNL d   1      31.031 -18.928  -7.841  0.00  0.00     0.103 A 
ATOM     30  O   UNL d   1      31.310 -21.352  -7.971  0.00  0.00    -0.346 OA
ATOM     31  C   UNL d   1      30.757 -17.795  -7.077  0.00  0.00     0.056 A 
ATOM     32  O   UNL d   1      31.292 -18.704  -9.167  0.00  0.00    -0.346 OA
ATOM     33  C   UNL d   1      31.161 -19.908  -9.926  0.00  0.00     0.202 C 
ATOM     34  C   UNL d   1      31.880 -21.064  -9.251  0.00  0.00     0.202 C 
ENDBRANCH  22  25
ENDBRANCH  19  21
ENDBRANCH   1  19
TORSDOF 5
ENDMDL
MODEL 4
REMARK VINA RESULT:    -8.294      2.774     10.080
REMARK INTER + INTRA:         -10.504
REMARK INTER:                  -9.786
REMARK INTRA:                  -0.718
REMARK CONF_INDEPENDENT:        1.492
REMARK UNBOUND:                -0.718
REMARK  5 active torsions:
REMARK  status: ('A' for Active; 'I' for Inactive)
REMARK       I    between atoms: C_2  and  N_4 
REMARK    1  A    between atoms: N_7  and  C_8 
REMARK    2  A    between atoms: C_11  and  N_12 
REMARK    3  A    between atoms: N_12  and  C_13 
REMARK    4  A    between atoms: C_13  and  N_15 
REMARK       I    between atoms: N_15  and  C_16 
REMARK    5  A    between atoms: C_16  and  C_18 
ROOT
ATOM      1  N   UNL d   1      25.125 -16.937  -2.567  0.00  0.00    -0.333 N 
ATOM      2  H   UNL d   1      24.731 -17.521  -3.300  0.00  0.00     0.168 HD
ENDROOT
BRANCH   1   3
ATOM      3  C   UNL d   1      25.490 -15.580  -3.013  0.00  0.00     0.036 A 
ATOM      4  C   UNL d   1      25.015 -14.391  -2.443  0.00  0.00     0.032 A 
ATOM      5  C   UNL d   1      25.423 -13.102  -2.961  0.00  0.00     0.033 A 
ATOM      6  C   UNL d   1      26.296 -12.945  -4.064  0.00  0.00     0.052 A 
ATOM      7  C   UNL d   1      26.772 -14.131  -4.587  0.00  0.00     0.062 A 
ATOM      8  C   UNL d   1      26.366 -15.358  -4.067  0.00  0.00     0.055 A 
ATOM      9 CL   UNL d   1      27.936 -14.259  -5.865  0.00  0.00    -0.082 Cl
BRANCH   6  10
ATOM     10  N   UNL d   1      26.590 -11.706  -4.607  0.00  0.00    -0.376 N 
ATOM     11  C   UNL d   1      26.601 -11.470  -6.065  0.00  0.00     0.143 C 
ATOM     12  C   UNL d   1      25.555 -10.390  -6.495  0.00  0.00     0.145 C 
ATOM     13  N   UNL d   1      25.698  -9.186  -5.654  0.00  0.00    -0.349 N 
ATOM     14  C   UNL d   1      25.728  -7.895  -6.143  0.00  0.00     0.215 C 
ATOM     15  C   UNL d   1      25.521  -9.464  -4.240  0.00  0.00     0.145 C 
ATOM     16  C   UNL d   1      26.582  -6.926  -5.342  0.00  0.00     0.117 C 
ATOM     17  O   UNL d   1      25.221  -7.562  -7.216  0.00  0.00    -0.274 OA
ATOM     18  C   UNL d   1      26.557 -10.491  -3.764  0.00  0.00     0.143 C 
ENDBRANCH   6  10
ENDBRANCH   1   3
BRANCH   1  19
ATOM     19  C   UNL d   1      25.270 -17.482  -1.242  0.00  0.00     0.179 C 
ATOM     20  S   UNL d   1      26.597 -17.268  -0.216  0.00  0.00    -0.040 SA
BRANCH  19  21
ATOM     21  N   UNL d   1      24.192 -18.272  -0.768  0.00  0.00    -0.299 N 
ATOM     22  C   UNL d   1      22.838 -17.840  -0.816  0.00  0.00     0.257 C 
ATOM     23  O   UNL d   1      22.411 -16.751  -1.208  0.00  0.00    -0.267 OA
ATOM     24  H   UNL d   1      24.365 -19.210  -0.436  0.00  0.00     0.171 HD
BRANCH  22  25
ATOM     25  C   UNL d   1      21.730 -18.684  -0.377  0.00  0.00     0.035 A 
ATOM     26  C   UNL d   1      20.770 -19.039  -1.354  0.00  0.00     0.020 A 
ATOM     27  C   UNL d   1      19.602 -19.700  -0.994  0.00  0.00     0.040 A 
ATOM     28  C   UNL d   1      19.377 -19.977   0.348  0.00  0.00     0.102 A 
ATOM     29  C   UNL d   1      20.314 -19.586   1.320  0.00  0.00     0.103 A 
ATOM     30  O   UNL d   1      18.217 -20.642   0.643  0.00  0.00    -0.346 OA
ATOM     31  C   UNL d   1      21.485 -18.918   0.966  0.00  0.00     0.056 A 
ATOM     32  O   UNL d   1      20.138 -19.813   2.660  0.00  0.00    -0.346 OA
ATOM     33  C   UNL d   1      19.154 -20.825   2.883  0.00  0.00     0.202 C 
ATOM     34  C   UNL d   1      17.914 -20.582   2.039  0.00  0.00     0.202 C 
ENDBRANCH  22  25
ENDBRANCH  19  21
ENDBRANCH   1  19
TORSDOF 5
ENDMDL
MODEL 5
REMARK VINA RESULT:    -8.165      7.183      9.492
REMARK INTER + INTRA:         -10.655
REMARK INTER:                  -9.656
REMARK INTRA:                  -0.998
REMARK CONF_INDEPENDENT:        1.492
REMARK UNBOUND:                -0.998
REMARK  5 active torsions:
REMARK  status: ('A' for Active; 'I' for Inactive)
REMARK       I    between atoms: C_2  and  N_4 
REMARK    1  A    between atoms: N_7  and  C_8 
REMARK    2  A    between atoms: C_11  and  N_12 
REMARK    3  A    between atoms: N_12  and  C_13 
REMARK    4  A    between atoms: C_13  and  N_15 
REMARK       I    between atoms: N_15  and  C_16 
REMARK    5  A    between atoms: C_16  and  C_18 
ROOT
ATOM      1  N   UNL d   1      30.570 -13.782   1.043  0.00  0.00    -0.333 N 
ATOM      2  H   UNL d   1      30.621 -12.970   0.434  0.00  0.00     0.168 HD
ENDROOT
BRANCH   1   3
ATOM      3  C   UNL d   1      30.462 -13.450   2.476  0.00  0.00     0.036 A 
ATOM      4  C   UNL d   1      31.225 -12.478   3.136  0.00  0.00     0.032 A 
ATOM      5  C   UNL d   1      31.054 -12.232   4.553  0.00  0.00     0.033 A 
ATOM      6  C   UNL d   1      30.141 -12.946   5.364  0.00  0.00     0.052 A 
ATOM      7  C   UNL d   1      29.380 -13.876   4.682  0.00  0.00     0.062 A 
ATOM      8  C   UNL d   1      29.563 -14.091   3.318  0.00  0.00     0.055 A 
ATOM      9 CL   UNL d   1      28.107 -14.825   5.379  0.00  0.00    -0.082 Cl
BRANCH   6  10
ATOM     10  N   UNL d   1      30.067 -12.767   6.735  0.00  0.00    -0.376 N 
ATOM     11  C   UNL d   1      29.304 -11.659   7.342  0.00  0.00     0.143 C 
ATOM     12  C   UNL d   1      28.155 -12.174   8.270  0.00  0.00     0.145 C 
ATOM     13  N   UNL d   1      28.682 -13.176   9.215  0.00  0.00    -0.349 N 
ATOM     14  C   UNL d   1      28.410 -13.187  10.569  0.00  0.00     0.215 C 
ATOM     15  C   UNL d   1      29.282 -14.318   8.546  0.00  0.00     0.145 C 
ATOM     16  C   UNL d   1      29.528 -13.735  11.441  0.00  0.00     0.117 C 
ATOM     17  O   UNL d   1      27.406 -12.675  11.065  0.00  0.00    -0.274 OA
ATOM     18  C   UNL d   1      30.445 -13.862   7.655  0.00  0.00     0.143 C 
ENDBRANCH   6  10
ENDBRANCH   1   3
BRANCH   1  19
ATOM     19  C   UNL d   1      30.606 -15.097   0.459  0.00  0.00     0.179 C 
ATOM     20  S   UNL d   1      31.922 -15.797  -0.340  0.00  0.00    -0.040 SA
BRANCH  19  21
ATOM     21  N   UNL d   1      29.418 -15.865   0.569  0.00  0.00    -0.299 N 
ATOM     22  C   UNL d   1      28.195 -15.489  -0.050  0.00  0.00     0.257 C 
ATOM     23  O   UNL d   1      27.968 -14.467  -0.704  0.00  0.00    -0.267 OA
ATOM     24  H   UNL d   1      29.438 -16.752   1.052  0.00  0.00     0.171 HD
BRANCH  22  25
ATOM     25  C   UNL d   1      26.993 -16.315   0.023  0.00  0.00     0.035 A 
ATOM     26  C   UNL d   1      27.176 -17.688   0.306  0.00  0.00     0.020 A 
ATOM     27  C   UNL d   1      26.110 -18.576   0.234  0.00  0.00     0.040 A 
ATOM     28  C   UNL d   1      24.865 -18.097  -0.153  0.00  0.00     0.102 A 
ATOM     29  C   UNL d   1      24.697 -16.739  -0.472  0.00  0.00     0.103 A 
ATOM     30  O   UNL d   1      23.849 -19.013  -0.193  0.00  0.00    -0.346 OA
ATOM     31  C   UNL d   1      25.764 -15.844  -0.409  0.00  0.00     0.056 A 
ATOM     32  O   UNL d   1      23.500 -16.211  -0.880  0.00  0.00    -0.346 OA
ATOM     33  C   UNL d   1      22.415 -17.075  -0.534  0.00  0.00     0.202 C 
ATOM     34  C   UNL d   1      22.717 -18.515  -0.911  0.00  0.00     0.202 C 
ENDBRANCH  22  25
ENDBRANCH  19  21
ENDBRANCH   1  19
TORSDOF 5
ENDMDL
MODEL 6
REMARK VINA RESULT:    -8.152      5.224      9.164
REMARK INTER + INTRA:         -10.615
REMARK INTER:                  -9.644
REMARK INTRA:                  -0.971
REMARK CONF_INDEPENDENT:        1.492
REMARK UNBOUND:                -0.971
REMARK  5 active torsions:
REMARK  status: ('A' for Active; 'I' for Inactive)
REMARK       I    between atoms: C_2  and  N_4 
REMARK    1  A    between atoms: N_7  and  C_8 
REMARK    2  A    between atoms: C_11  and  N_12 
REMARK    3  A    between atoms: N_12  and  C_13 
REMARK    4  A    between atoms: C_13  and  N_15 
REMARK       I    between atoms: N_15  and  C_16 
REMARK    5  A    between atoms: C_16  and  C_18 
ROOT
ATOM      1  N   UNL d   1      28.330 -16.097   0.486  0.00  0.00    -0.333 N 
ATOM      2  H   UNL d   1      28.797 -16.445   1.319  0.00  0.00     0.168 HD
ENDROOT
BRANCH   1   3
ATOM      3  C   UNL d   1      29.003 -16.463  -0.775  0.00  0.00     0.036 A 
ATOM      4  C   UNL d   1      28.558 -16.109  -2.056  0.00  0.00     0.032 A 
ATOM      5  C   UNL d   1      29.283 -16.528  -3.237  0.00  0.00     0.033 A 
ATOM      6  C   UNL d   1      30.454 -17.321  -3.194  0.00  0.00     0.052 A 
ATOM      7  C   UNL d   1      30.887 -17.630  -1.919  0.00  0.00     0.062 A 
ATOM      8  C   UNL d   1      30.173 -17.211  -0.799  0.00  0.00     0.055 A 
ATOM      9 CL   UNL d   1      32.344 -18.490  -1.543  0.00  0.00    -0.082 Cl
BRANCH   6  10
ATOM     10  N   UNL d   1      31.072 -17.797  -4.338  0.00  0.00    -0.376 N 
ATOM     11  C   UNL d   1      31.174 -19.240  -4.634  0.00  0.00     0.143 C 
ATOM     12  C   UNL d   1      30.453 -19.621  -5.969  0.00  0.00     0.145 C 
ATOM     13  N   UNL d   1      30.888 -18.717  -7.051  0.00  0.00    -0.349 N 
ATOM     14  C   UNL d   1      31.261 -19.138  -8.312  0.00  0.00     0.215 C 
ATOM     15  C   UNL d   1      30.615 -17.320  -6.761  0.00  0.00     0.145 C 
ATOM     16  C   UNL d   1      32.322 -18.281  -8.984  0.00  0.00     0.117 C 
ATOM     17  O   UNL d   1      30.881 -20.196  -8.817  0.00  0.00    -0.274 OA
ATOM     18  C   UNL d   1      31.339 -16.891  -5.477  0.00  0.00     0.143 C 
ENDBRANCH   6  10
ENDBRANCH   1   3
BRANCH   1  19
ATOM     19  C   UNL d   1      27.124 -15.325   0.631  0.00  0.00     0.179 C 
ATOM     20  S   UNL d   1      27.013 -13.755   1.248  0.00  0.00    -0.040 SA
BRANCH  19  21
ATOM     21  N   UNL d   1      25.923 -15.956   0.215  0.00  0.00    -0.299 N 
ATOM     22  C   UNL d   1      25.761 -17.367   0.187  0.00  0.00     0.257 C 
ATOM     23  O   UNL d   1      26.606 -18.225   0.456  0.00  0.00    -0.267 OA
ATOM     24  H   UNL d   1      25.115 -15.394  -0.015  0.00  0.00     0.171 HD
BRANCH  22  25
ATOM     25  C   UNL d   1      24.502 -18.006  -0.188  0.00  0.00     0.035 A 
ATOM     26  C   UNL d   1      24.255 -18.169  -1.571  0.00  0.00     0.020 A 
ATOM     27  C   UNL d   1      23.019 -18.615  -2.023  0.00  0.00     0.040 A 
ATOM     28  C   UNL d   1      22.018 -18.869  -1.095  0.00  0.00     0.102 A 
ATOM     29  C   UNL d   1      22.256 -18.666   0.276  0.00  0.00     0.103 A 
ATOM     30  O   UNL d   1      20.827 -19.319  -1.595  0.00  0.00    -0.346 OA
ATOM     31  C   UNL d   1      23.491 -18.212   0.735  0.00  0.00     0.056 A 
ATOM     32  O   UNL d   1      21.303 -18.879   1.237  0.00  0.00    -0.346 OA
ATOM     33  C   UNL d   1      20.246 -19.701   0.738  0.00  0.00     0.202 C 
ATOM     34  C   UNL d   1      19.778 -19.227  -0.628  0.00  0.00     0.202 C 
ENDBRANCH  22  25
ENDBRANCH  19  21
ENDBRANCH   1  19
TORSDOF 5
ENDMDL
MODEL 7
REMARK VINA RESULT:    -8.097      4.953      9.319
REMARK INTER + INTRA:         -10.475
REMARK INTER:                  -9.588
REMARK INTRA:                  -0.887
REMARK CONF_INDEPENDENT:        1.492
REMARK UNBOUND:                -0.887
REMARK  5 active torsions:
REMARK  status: ('A' for Active; 'I' for Inactive)
REMARK       I    between atoms: C_2  and  N_4 
REMARK    1  A    between atoms: N_7  and  C_8 
REMARK    2  A    between atoms: C_11  and  N_12 
REMARK    3  A    between atoms: N_12  and  C_13 
REMARK    4  A    between atoms: C_13  and  N_15 
REMARK       I    between atoms: N_15  and  C_16 
REMARK    5  A    between atoms: C_16  and  C_18 
ROOT
ATOM      1  N   UNL d   1      29.114 -16.894  -0.046  0.00  0.00    -0.333 N 
ATOM      2  H   UNL d   1      29.664 -17.456   0.597  0.00  0.00     0.168 HD
ENDROOT
BRANCH   1   3
ATOM      3  C   UNL d   1      29.476 -17.078  -1.464  0.00  0.00     0.036 A 
ATOM      4  C   UNL d   1      30.421 -17.998  -1.939  0.00  0.00     0.032 A 
ATOM      5  C   UNL d   1      30.718 -18.097  -3.353  0.00  0.00     0.033 A 
ATOM      6  C   UNL d   1      30.109 -17.283  -4.337  0.00  0.00     0.052 A 
ATOM      7  C   UNL d   1      29.161 -16.407  -3.845  0.00  0.00     0.062 A 
ATOM      8  C   UNL d   1      28.892 -16.334  -2.480  0.00  0.00     0.055 A 
ATOM      9 CL   UNL d   1      28.173 -15.362  -4.813  0.00  0.00    -0.082 Cl
BRANCH   6  10
ATOM     10  N   UNL d   1      30.484 -17.323  -5.669  0.00  0.00    -0.376 N 
ATOM     11  C   UNL d   1      30.880 -16.108  -6.411  0.00  0.00     0.143 C 
ATOM     12  C   UNL d   1      32.347 -16.196  -6.944  0.00  0.00     0.145 C 
ATOM     13  N   UNL d   1      32.549 -17.471  -7.658  0.00  0.00    -0.349 N 
ATOM     14  C   UNL d   1      33.168 -17.585  -8.886  0.00  0.00     0.215 C 
ATOM     15  C   UNL d   1      32.291 -18.631  -6.821  0.00  0.00     0.145 C 
ATOM     16  C   UNL d   1      32.651 -18.716  -9.761  0.00  0.00     0.117 C 
ATOM     17  O   UNL d   1      33.981 -16.765  -9.317  0.00  0.00    -0.274 OA
ATOM     18  C   UNL d   1      30.845 -18.607  -6.308  0.00  0.00     0.143 C 
ENDBRANCH   6  10
ENDBRANCH   1   3
BRANCH   1  19
ATOM     19  C   UNL d   1      28.092 -16.027   0.481  0.00  0.00     0.179 C 
ATOM     20  S   UNL d   1      28.309 -14.832   1.657  0.00  0.00    -0.040 SA
BRANCH  19  21
ATOM     21  N   UNL d   1      26.787 -16.206  -0.043  0.00  0.00    -0.299 N 
ATOM     22  C   UNL d   1      25.981 -17.337   0.260  0.00  0.00     0.257 C 
ATOM     23  O   UNL d   1      26.287 -18.314   0.947  0.00  0.00    -0.267 OA
ATOM     24  H   UNL d   1      26.368 -15.479  -0.608  0.00  0.00     0.171 HD
BRANCH  22  25
ATOM     25  C   UNL d   1      24.616 -17.484  -0.240  0.00  0.00     0.035 A 
ATOM     26  C   UNL d   1      23.983 -16.317  -0.727  0.00  0.00     0.020 A 
ATOM     27  C   UNL d   1      22.637 -16.330  -1.069  0.00  0.00     0.040 A 
ATOM     28  C   UNL d   1      21.913 -17.502  -0.893  0.00  0.00     0.102 A 
ATOM     29  C   UNL d   1      22.537 -18.648  -0.371  0.00  0.00     0.103 A 
ATOM     30  O   UNL d   1      20.594 -17.461  -1.259  0.00  0.00    -0.346 OA
ATOM     31  C   UNL d   1      23.885 -18.640  -0.019  0.00  0.00     0.056 A 
ATOM     32  O   UNL d   1      21.871 -19.827  -0.155  0.00  0.00    -0.346 OA
ATOM     33  C   UNL d   1      20.650 -19.868  -0.895  0.00  0.00     0.202 C 
ATOM     34  C   UNL d   1      19.866 -18.576  -0.738  0.00  0.00     0.202 C 
ENDBRANCH  22  25
ENDBRANCH  19  21
ENDBRANCH   1  19
TORSDOF 5
ENDMDL
MODEL 8
REMARK VINA RESULT:    -8.066      3.166     10.307
REMARK INTER + INTRA:         -10.860
REMARK INTER:                  -9.557
REMARK INTRA:                  -1.303
REMARK CONF_INDEPENDENT:        1.492
REMARK UNBOUND:                -1.303
REMARK  5 active torsions:
REMARK  status: ('A' for Active; 'I' for Inactive)
REMARK       I    between atoms: C_2  and  N_4 
REMARK    1  A    between atoms: N_7  and  C_8 
REMARK    2  A    between atoms: C_11  and  N_12 
REMARK    3  A    between atoms: N_12  and  C_13 
REMARK    4  A    between atoms: C_13  and  N_15 
REMARK       I    between atoms: N_15  and  C_16 
REMARK    5  A    between atoms: C_16  and  C_18 
ROOT
ATOM      1  N   UNL d   1      24.872 -15.648  -1.828  0.00  0.00    -0.333 N 
ATOM      2  H   UNL d   1      23.960 -15.252  -1.615  0.00  0.00     0.168 HD
ENDROOT
BRANCH   1   3
ATOM      3  C   UNL d   1      25.616 -14.916  -2.871  0.00  0.00     0.036 A 
ATOM      4  C   UNL d   1      26.353 -15.514  -3.901  0.00  0.00     0.032 A 
ATOM      5  C   UNL d   1      27.061 -14.708  -4.874  0.00  0.00     0.033 A 
ATOM      6  C   UNL d   1      27.079 -13.293  -4.851  0.00  0.00     0.052 A 
ATOM      7  C   UNL d   1      26.319 -12.730  -3.843  0.00  0.00     0.062 A 
ATOM      8  C   UNL d   1      25.645 -13.529  -2.923  0.00  0.00     0.055 A 
ATOM      9 CL   UNL d   1      26.058 -11.031  -3.624  0.00  0.00    -0.082 Cl
BRANCH   6  10
ATOM     10  N   UNL d   1      27.846 -12.546  -5.727  0.00  0.00    -0.376 N 
ATOM     11  C   UNL d   1      29.219 -12.940  -6.102  0.00  0.00     0.143 C 
ATOM     12  C   UNL d   1      29.360 -13.196  -7.639  0.00  0.00     0.145 C 
ATOM     13  N   UNL d   1      28.796 -12.060  -8.392  0.00  0.00    -0.349 N 
ATOM     14  C   UNL d   1      29.421 -11.449  -9.461  0.00  0.00     0.215 C 
ATOM     15  C   UNL d   1      27.395 -11.825  -8.090  0.00  0.00     0.145 C 
ATOM     16  C   UNL d   1      29.130  -9.964  -9.610  0.00  0.00     0.117 C 
ATOM     17  O   UNL d   1      30.259 -12.009 -10.171  0.00  0.00    -0.274 OA
ATOM     18  C   UNL d   1      27.215 -11.527  -6.595  0.00  0.00     0.143 C 
ENDBRANCH   6  10
ENDBRANCH   1   3
BRANCH   1  19
ATOM     19  C   UNL d   1      25.308 -16.821  -1.116  0.00  0.00     0.179 C 
ATOM     20  S   UNL d   1      26.897 -17.178  -0.662  0.00  0.00    -0.040 SA
BRANCH  19  21
ATOM     21  N   UNL d   1      24.298 -17.756  -0.771  0.00  0.00    -0.299 N 
ATOM     22  C   UNL d   1      22.923 -17.410  -0.681  0.00  0.00     0.257 C 
ATOM     23  O   UNL d   1      22.418 -16.294  -0.830  0.00  0.00    -0.267 OA
ATOM     24  H   UNL d   1      24.538 -18.729  -0.642  0.00  0.00     0.171 HD
BRANCH  22  25
ATOM     25  C   UNL d   1      21.884 -18.393  -0.382  0.00  0.00     0.035 A 
ATOM     26  C   UNL d   1      21.139 -18.890  -1.476  0.00  0.00     0.020 A 
ATOM     27  C   UNL d   1      20.030 -19.700  -1.269  0.00  0.00     0.040 A 
ATOM     28  C   UNL d   1      19.644 -19.988   0.033  0.00  0.00     0.102 A 
ATOM     29  C   UNL d   1      20.365 -19.459   1.118  0.00  0.00     0.103 A 
ATOM     30  O   UNL d   1      18.553 -20.802   0.178  0.00  0.00    -0.346 OA
ATOM     31  C   UNL d   1      21.474 -18.640   0.918  0.00  0.00     0.056 A 
ATOM     32  O   UNL d   1      20.022 -19.690   2.425  0.00  0.00    -0.346 OA
ATOM     33  C   UNL d   1      19.160 -20.825   2.536  0.00  0.00     0.202 C 
ATOM     34  C   UNL d   1      18.039 -20.766   1.511  0.00  0.00     0.202 C 
ENDBRANCH  22  25
ENDBRANCH  19  21
ENDBRANCH   1  19
TORSDOF 5
ENDMDL
MODEL 9
REMARK VINA RESULT:    -7.845      4.305      6.283
REMARK INTER + INTRA:         -10.532
REMARK INTER:                  -9.336
REMARK INTRA:                  -1.196
REMARK CONF_INDEPENDENT:        1.492
REMARK UNBOUND:                -1.196
REMARK  5 active torsions:
REMARK  status: ('A' for Active; 'I' for Inactive)
REMARK       I    between atoms: C_2  and  N_4 
REMARK    1  A    between atoms: N_7  and  C_8 
REMARK    2  A    between atoms: C_11  and  N_12 
REMARK    3  A    between atoms: N_12  and  C_13 
REMARK    4  A    between atoms: C_13  and  N_15 
REMARK       I    between atoms: N_15  and  C_16 
REMARK    5  A    between atoms: C_16  and  C_18 
ROOT
ATOM      1  N   UNL d   1      29.013 -15.104  -2.744  0.00  0.00    -0.333 N 
ATOM      2  H   UNL d   1      29.179 -15.259  -3.735  0.00  0.00     0.168 HD
ENDROOT
BRANCH   1   3
ATOM      3  C   UNL d   1      27.765 -15.711  -2.244  0.00  0.00     0.036 A 
ATOM      4  C   UNL d   1      26.488 -15.470  -2.768  0.00  0.00     0.032 A 
ATOM      5  C   UNL d   1      25.318 -16.106  -2.199  0.00  0.00     0.033 A 
ATOM      6  C   UNL d   1      25.368 -16.982  -1.088  0.00  0.00     0.052 A 
ATOM      7  C   UNL d   1      26.642 -17.224  -0.611  0.00  0.00     0.062 A 
ATOM      8  C   UNL d   1      27.751 -16.602  -1.179  0.00  0.00     0.055 A 
ATOM      9 CL   UNL d   1      27.034 -18.331   0.665  0.00  0.00    -0.082 Cl
BRANCH   6  10
ATOM     10  N   UNL d   1      24.228 -17.496  -0.495  0.00  0.00    -0.376 N 
ATOM     11  C   UNL d   1      23.073 -16.645  -0.144  0.00  0.00     0.143 C 
ATOM     12  C   UNL d   1      21.771 -17.080  -0.895  0.00  0.00     0.145 C 
ATOM     13  N   UNL d   1      21.562 -18.532  -0.741  0.00  0.00    -0.349 N 
ATOM     14  C   UNL d   1      20.354 -19.112  -0.407  0.00  0.00     0.215 C 
ATOM     15  C   UNL d   1      22.673 -19.317  -1.250  0.00  0.00     0.145 C 
ATOM     16  C   UNL d   1      20.462 -20.393   0.404  0.00  0.00     0.117 C 
ATOM     17  O   UNL d   1      19.262 -18.582  -0.621  0.00  0.00    -0.274 OA
ATOM     18  C   UNL d   1      23.967 -18.952  -0.511  0.00  0.00     0.143 C 
ENDBRANCH   6  10
ENDBRANCH   1   3
BRANCH   1  19
ATOM     19  C   UNL d   1      29.973 -14.347  -1.985  0.00  0.00     0.179 C 
ATOM     20  S   UNL d   1      31.309 -13.520  -2.610  0.00  0.00    -0.040 SA
BRANCH  19  21
ATOM     21  N   UNL d   1      29.768 -14.303  -0.582  0.00  0.00    -0.299 N 
ATOM     22  C   UNL d   1      28.583 -13.789   0.010  0.00  0.00     0.257 C 
ATOM     23  O   UNL d   1      27.616 -13.282  -0.565  0.00  0.00    -0.267 OA
ATOM     24  H   UNL d   1      30.457 -14.706   0.039  0.00  0.00     0.171 HD
BRANCH  22  25
ATOM     25  C   UNL d   1      28.358 -13.800   1.453  0.00  0.00     0.035 A 
ATOM     26  C   UNL d   1      27.230 -13.092   1.930  0.00  0.00     0.020 A 
ATOM     27  C   UNL d   1      27.029 -12.912   3.293  0.00  0.00     0.040 A 
ATOM     28  C   UNL d   1      27.973 -13.412   4.180  0.00  0.00     0.102 A 
ATOM     29  C   UNL d   1      29.113 -14.080   3.699  0.00  0.00     0.103 A 
ATOM     30  O   UNL d   1      27.717 -13.218   5.511  0.00  0.00    -0.346 OA
ATOM     31  C   UNL d   1      29.323 -14.258   2.334  0.00  0.00     0.056 A 
ATOM     32  O   UNL d   1      30.088 -14.577   4.523  0.00  0.00    -0.346 OA
ATOM     33  C   UNL d   1      29.610 -14.710   5.863  0.00  0.00     0.202 C 
ATOM     34  C   UNL d   1      28.877 -13.456   6.312  0.00  0.00     0.202 C 
ENDBRANCH  22  25
ENDBRANCH  19  21
ENDBRANCH   1  19
TORSDOF 5
ENDMDL
