MODEL 1
REMARK VINA RESULT:    -8.563      0.000      0.000
REMARK INTER + INTRA:         -13.738
REMARK INTER:                 -11.248
REMARK INTRA:                  -2.490
REMARK CONF_INDEPENDENT:        2.685
REMARK UNBOUND:                -2.490
REMARK  9 active torsions:
REMARK  status: ('A' for Active; 'I' for Inactive)
REMARK    1  A    between atoms: O_2  and  C_3 
REMARK    2  A    between atoms: C_9  and  C_10 
REMARK    3  A    between atoms: C_10  and  C_11 
REMARK    4  A    between atoms: C_11  and  N_12 
REMARK       I    between atoms: N_12  and  C_13 
REMARK    5  A    between atoms: C_13  and  C_15 
REMARK    6  A    between atoms: C_15  and  C_16 
REMARK    7  A    between atoms: C_16  and  C_17 
REMARK    8  A    between atoms: C_20  and  C_21 
REMARK       I    between atoms: C_21  and  N_23 
REMARK    9  A    between atoms: N_23  and  C_24 
ROOT
ATOM      1  C   UNL d   1      27.028 -13.701   1.862  0.00  0.00     0.105 C 
ENDROOT
BRANCH   1   2
ATOM      2  C   UNL d   1      27.741 -14.192   0.647  0.00  0.00     0.217 C 
ATOM      3  N   UNL d   1      28.618 -15.221   0.920  0.00  0.00    -0.361 N 
ATOM      4  H   UNL d   1      28.701 -15.577   1.869  0.00  0.00     0.162 HD
ATOM      5  O   UNL d   1      27.558 -13.758  -0.490  0.00  0.00    -0.274 OA
BRANCH   3   6
ATOM      6  C   UNL d   1      29.348 -15.791  -0.169  0.00  0.00     0.127 C 
BRANCH   6   7
ATOM      7  C   UNL d   1      28.864 -17.176  -0.569  0.00  0.00     0.056 C 
BRANCH   7   8
ATOM      8  C   UNL d   1      27.428 -17.410  -0.220  0.00  0.00    -0.048 A 
ATOM      9  C   UNL d   1      26.373 -16.864  -0.834  0.00  0.00    -0.003 A 
ATOM     10  C   UNL d   1      25.197 -17.402  -0.130  0.00  0.00     0.039 A 
ATOM     11  C   UNL d   1      26.232 -15.967  -1.932  0.00  0.00     0.050 A 
ATOM     12  C   UNL d   1      23.865 -16.981  -0.599  0.00  0.00     0.033 A 
ATOM     13  N   UNL d   1      25.523 -18.194   0.822  0.00  0.00    -0.385 N 
ATOM     14  C   UNL d   1      23.813 -16.125  -1.643  0.00  0.00     0.039 A 
ATOM     15  C   UNL d   1      25.000 -15.593  -2.314  0.00  0.00     0.069 A 
ATOM     16  C   UNL d   1      26.991 -18.309   0.905  0.00  0.00     0.155 A 
ATOM     17  H   UNL d   1      24.856 -18.668   1.425  0.00  0.00     0.160 HD
BRANCH  15  18
ATOM     18  O   UNL d   1      24.850 -14.823  -3.445  0.00  0.00    -0.356 OA
ATOM     19  C   UNL d   1      26.037 -14.282  -4.019  0.00  0.00     0.210 C 
ENDBRANCH  15  18
ENDBRANCH   7   8
ENDBRANCH   6   7
ENDBRANCH   3   6
ENDBRANCH   1   2
BRANCH   1  20
ATOM     20  C   UNL d   1      27.738 -12.528   2.541  0.00  0.00     0.041 C 
BRANCH  20  21
ATOM     21  C   UNL d   1      28.631 -12.935   3.721  0.00  0.00     0.135 C 
ATOM     22  N   UNL d   1      30.027 -13.184   3.307  0.00  0.00    -0.245 NA
ATOM     23  N   UNL d   1      30.631 -14.251   4.126  0.00  0.00    -0.237 NA
ATOM     24  H   UNL d   1      30.552 -12.305   3.368  0.00  0.00     0.142 HD
ATOM     25  C   UNL d   1      29.671 -14.809   5.096  0.00  0.00     0.226 C 
ATOM     26  H   UNL d   1      31.509 -13.978   4.568  0.00  0.00     0.142 HD
ATOM     27  S   UNL d   1      28.034 -14.466   4.489  0.00  0.00    -0.117 SA
BRANCH  25  28
ATOM     28  C   UNL d   1      29.790 -14.128   6.471  0.00  0.00     0.251 C 
ATOM     29  O   UNL d   1      30.630 -13.252   6.702  0.00  0.00    -0.270 OA
ATOM     30  N   UNL d   1      28.905 -14.596   7.436  0.00  0.00    -0.325 N 
ATOM     31  H   UNL d   1      28.505 -15.517   7.321  0.00  0.00     0.169 HD
BRANCH  30  32
ATOM     32  C   UNL d   1      28.941 -14.026   8.724  0.00  0.00     0.034 A 
ATOM     33  C   UNL d   1      29.323 -14.803   9.825  0.00  0.00     0.029 A 
ATOM     34  C   UNL d   1      29.165 -14.325  11.118  0.00  0.00     0.002 A 
ATOM     35  C   UNL d   1      28.724 -13.023  11.316  0.00  0.00     0.000 A 
ATOM     36  C   UNL d   1      28.463 -12.199  10.217  0.00  0.00     0.002 A 
ATOM     37  C   UNL d   1      28.539 -12.707   8.916  0.00  0.00     0.029 A 
ENDBRANCH  30  32
ENDBRANCH  25  28
ENDBRANCH  20  21
ENDBRANCH   1  20
TORSDOF 9
ENDMDL
MODEL 2
REMARK VINA RESULT:    -7.885      2.395      4.042
REMARK INTER + INTRA:         -14.088
REMARK INTER:                 -10.570
REMARK INTRA:                  -3.518
REMARK CONF_INDEPENDENT:        2.685
REMARK UNBOUND:                -3.518
REMARK  9 active torsions:
REMARK  status: ('A' for Active; 'I' for Inactive)
REMARK    1  A    between atoms: O_2  and  C_3 
REMARK    2  A    between atoms: C_9  and  C_10 
REMARK    3  A    between atoms: C_10  and  C_11 
REMARK    4  A    between atoms: C_11  and  N_12 
REMARK       I    between atoms: N_12  and  C_13 
REMARK    5  A    between atoms: C_13  and  C_15 
REMARK    6  A    between atoms: C_15  and  C_16 
REMARK    7  A    between atoms: C_16  and  C_17 
REMARK    8  A    between atoms: C_20  and  C_21 
REMARK       I    between atoms: C_21  and  N_23 
REMARK    9  A    between atoms: N_23  and  C_24 
ROOT
ATOM      1  C   UNL d   1      27.364 -11.768  -1.745  0.00  0.00     0.105 C 
ENDROOT
BRANCH   1   2
ATOM      2  C   UNL d   1      26.846 -12.440  -2.971  0.00  0.00     0.217 C 
ATOM      3  N   UNL d   1      25.741 -13.227  -2.724  0.00  0.00    -0.361 N 
ATOM      4  H   UNL d   1      25.355 -13.278  -1.785  0.00  0.00     0.162 HD
ATOM      5  O   UNL d   1      27.323 -12.298  -4.098  0.00  0.00    -0.274 OA
BRANCH   3   6
ATOM      6  C   UNL d   1      25.138 -13.909  -3.828  0.00  0.00     0.127 C 
BRANCH   6   7
ATOM      7  C   UNL d   1      25.530 -15.375  -3.926  0.00  0.00     0.056 C 
BRANCH   7   8
ATOM      8  C   UNL d   1      26.297 -15.850  -2.733  0.00  0.00    -0.048 A 
ATOM      9  C   UNL d   1      25.809 -16.589  -1.730  0.00  0.00    -0.003 A 
ATOM     10  C   UNL d   1      26.944 -16.792  -0.814  0.00  0.00     0.039 A 
ATOM     11  C   UNL d   1      24.527 -17.148  -1.456  0.00  0.00     0.050 A 
ATOM     12  C   UNL d   1      26.710 -17.594   0.400  0.00  0.00     0.033 A 
ATOM     13  N   UNL d   1      28.011 -16.220  -1.231  0.00  0.00    -0.385 N 
ATOM     14  C   UNL d   1      25.466 -18.087   0.592  0.00  0.00     0.039 A 
ATOM     15  C   UNL d   1      24.353 -17.856  -0.328  0.00  0.00     0.069 A 
ATOM     16  C   UNL d   1      27.752 -15.534  -2.510  0.00  0.00     0.155 A 
ATOM     17  H   UNL d   1      28.902 -16.245  -0.741  0.00  0.00     0.160 HD
BRANCH  15  18
ATOM     18  O   UNL d   1      23.154 -18.497  -0.115  0.00  0.00    -0.356 OA
ATOM     19  C   UNL d   1      22.444 -18.940  -1.269  0.00  0.00     0.210 C 
ENDBRANCH  15  18
ENDBRANCH   7   8
ENDBRANCH   6   7
ENDBRANCH   3   6
ENDBRANCH   1   2
BRANCH   1  20
ATOM     20  C   UNL d   1      28.693 -12.351  -1.258  0.00  0.00     0.041 C 
BRANCH  20  21
ATOM     21  C   UNL d   1      28.624 -12.987   0.136  0.00  0.00     0.135 C 
ATOM     22  N   UNL d   1      29.340 -14.278   0.199  0.00  0.00    -0.245 NA
ATOM     23  N   UNL d   1      28.673 -15.199   1.137  0.00  0.00    -0.237 NA
ATOM     24  H   UNL d   1      30.317 -14.102   0.459  0.00  0.00     0.142 HD
ATOM     25  C   UNL d   1      27.453 -14.606   1.716  0.00  0.00     0.226 C 
ATOM     26  H   UNL d   1      29.295 -15.575   1.853  0.00  0.00     0.142 HD
ATOM     27  S   UNL d   1      26.906 -13.322   0.613  0.00  0.00    -0.117 SA
BRANCH  25  28
ATOM     28  C   UNL d   1      27.735 -13.941   3.075  0.00  0.00     0.251 C 
ATOM     29  O   UNL d   1      27.396 -12.778   3.322  0.00  0.00    -0.270 OA
ATOM     30  N   UNL d   1      28.423 -14.734   3.986  0.00  0.00    -0.325 N 
ATOM     31  H   UNL d   1      28.975 -15.505   3.636  0.00  0.00     0.169 HD
BRANCH  30  32
ATOM     32  C   UNL d   1      28.720 -14.207   5.258  0.00  0.00     0.034 A 
ATOM     33  C   UNL d   1      27.799 -13.372   5.903  0.00  0.00     0.029 A 
ATOM     34  C   UNL d   1      28.155 -12.680   7.053  0.00  0.00     0.002 A 
ATOM     35  C   UNL d   1      29.401 -12.902   7.625  0.00  0.00     0.000 A 
ATOM     36  C   UNL d   1      30.275 -13.832   7.056  0.00  0.00     0.002 A 
ATOM     37  C   UNL d   1      29.952 -14.465   5.852  0.00  0.00     0.029 A 
ENDBRANCH  30  32
ENDBRANCH  25  28
ENDBRANCH  20  21
ENDBRANCH   1  20
TORSDOF 9
ENDMDL
MODEL 3
REMARK VINA RESULT:    -7.477      1.988      2.771
REMARK INTER + INTRA:         -13.580
REMARK INTER:                 -10.161
REMARK INTRA:                  -3.419
REMARK CONF_INDEPENDENT:        2.685
REMARK UNBOUND:                -3.419
REMARK  9 active torsions:
REMARK  status: ('A' for Active; 'I' for Inactive)
REMARK    1  A    between atoms: O_2  and  C_3 
REMARK    2  A    between atoms: C_9  and  C_10 
REMARK    3  A    between atoms: C_10  and  C_11 
REMARK    4  A    between atoms: C_11  and  N_12 
REMARK       I    between atoms: N_12  and  C_13 
REMARK    5  A    between atoms: C_13  and  C_15 
REMARK    6  A    between atoms: C_15  and  C_16 
REMARK    7  A    between atoms: C_16  and  C_17 
REMARK    8  A    between atoms: C_20  and  C_21 
REMARK       I    between atoms: C_21  and  N_23 
REMARK    9  A    between atoms: N_23  and  C_24 
ROOT
ATOM      1  C   UNL d   1      30.793 -13.058   0.632  0.00  0.00     0.105 C 
ENDROOT
BRANCH   1   2
ATOM      2  C   UNL d   1      29.582 -12.703  -0.163  0.00  0.00     0.217 C 
ATOM      3  N   UNL d   1      28.411 -13.135   0.423  0.00  0.00    -0.361 N 
ATOM      4  H   UNL d   1      28.441 -13.617   1.318  0.00  0.00     0.162 HD
ATOM      5  O   UNL d   1      29.604 -12.067  -1.217  0.00  0.00    -0.274 OA
BRANCH   3   6
ATOM      6  C   UNL d   1      27.178 -12.836  -0.236  0.00  0.00     0.127 C 
BRANCH   6   7
ATOM      7  C   UNL d   1      26.754 -13.891  -1.245  0.00  0.00     0.056 C 
BRANCH   7   8
ATOM      8  C   UNL d   1      26.926 -15.286  -0.730  0.00  0.00    -0.048 A 
ATOM      9  C   UNL d   1      25.951 -16.186  -0.566  0.00  0.00    -0.003 A 
ATOM     10  C   UNL d   1      26.622 -17.389  -0.044  0.00  0.00     0.039 A 
ATOM     11  C   UNL d   1      24.545 -16.167  -0.801  0.00  0.00     0.050 A 
ATOM     12  C   UNL d   1      25.790 -18.574   0.229  0.00  0.00     0.033 A 
ATOM     13  N   UNL d   1      27.883 -17.217   0.095  0.00  0.00    -0.385 N 
ATOM     14  C   UNL d   1      24.464 -18.476  -0.015  0.00  0.00     0.039 A 
ATOM     15  C   UNL d   1      23.822 -17.262  -0.520  0.00  0.00     0.069 A 
ATOM     16  C   UNL d   1      28.257 -15.852  -0.317  0.00  0.00     0.155 A 
ATOM     17  H   UNL d   1      28.522 -17.928   0.441  0.00  0.00     0.160 HD
BRANCH  15  18
ATOM     18  O   UNL d   1      22.487 -17.292  -0.854  0.00  0.00    -0.356 OA
ATOM     19  C   UNL d   1      21.860 -18.571  -0.897  0.00  0.00     0.210 C 
ENDBRANCH  15  18
ENDBRANCH   7   8
ENDBRANCH   6   7
ENDBRANCH   3   6
ENDBRANCH   1   2
BRANCH   1  20
ATOM     20  C   UNL d   1      30.799 -12.430   2.029  0.00  0.00     0.041 C 
BRANCH  20  21
ATOM     21  C   UNL d   1      30.009 -13.225   3.076  0.00  0.00     0.135 C 
ATOM     22  N   UNL d   1      29.439 -14.470   2.521  0.00  0.00    -0.245 NA
ATOM     23  N   UNL d   1      28.149 -14.782   3.162  0.00  0.00    -0.237 NA
ATOM     24  H   UNL d   1      30.122 -15.227   2.636  0.00  0.00     0.142 HD
ATOM     25  C   UNL d   1      27.756 -13.751   4.140  0.00  0.00     0.226 C 
ATOM     26  H   UNL d   1      28.106 -15.723   3.556  0.00  0.00     0.142 HD
ATOM     27  S   UNL d   1      28.616 -12.253   3.714  0.00  0.00    -0.117 SA
BRANCH  25  28
ATOM     28  C   UNL d   1      28.189 -14.127   5.568  0.00  0.00     0.251 C 
ATOM     29  O   UNL d   1      28.209 -15.296   5.964  0.00  0.00    -0.270 OA
ATOM     30  N   UNL d   1      28.525 -13.050   6.381  0.00  0.00    -0.325 N 
ATOM     31  H   UNL d   1      28.162 -12.135   6.148  0.00  0.00     0.169 HD
BRANCH  30  32
ATOM     32  C   UNL d   1      28.938 -13.301   7.704  0.00  0.00     0.034 A 
ATOM     33  C   UNL d   1      30.109 -14.031   7.946  0.00  0.00     0.029 A 
ATOM     34  C   UNL d   1      30.420 -14.465   9.228  0.00  0.00     0.002 A 
ATOM     35  C   UNL d   1      29.617 -14.079  10.293  0.00  0.00     0.000 A 
ATOM     36  C   UNL d   1      28.519 -13.243  10.074  0.00  0.00     0.002 A 
ATOM     37  C   UNL d   1      28.155 -12.876   8.774  0.00  0.00     0.029 A 
ENDBRANCH  30  32
ENDBRANCH  25  28
ENDBRANCH  20  21
ENDBRANCH   1  20
TORSDOF 9
ENDMDL
MODEL 4
REMARK VINA RESULT:    -7.058      3.038      7.515
REMARK INTER + INTRA:         -13.980
REMARK INTER:                  -9.743
REMARK INTRA:                  -4.237
REMARK CONF_INDEPENDENT:        2.685
REMARK UNBOUND:                -4.237
REMARK  9 active torsions:
REMARK  status: ('A' for Active; 'I' for Inactive)
REMARK    1  A    between atoms: O_2  and  C_3 
REMARK    2  A    between atoms: C_9  and  C_10 
REMARK    3  A    between atoms: C_10  and  C_11 
REMARK    4  A    between atoms: C_11  and  N_12 
REMARK       I    between atoms: N_12  and  C_13 
REMARK    5  A    between atoms: C_13  and  C_15 
REMARK    6  A    between atoms: C_15  and  C_16 
REMARK    7  A    between atoms: C_16  and  C_17 
REMARK    8  A    between atoms: C_20  and  C_21 
REMARK       I    between atoms: C_21  and  N_23 
REMARK    9  A    between atoms: N_23  and  C_24 
ROOT
ATOM      1  C   UNL d   1      31.670 -13.431   3.356  0.00  0.00     0.105 C 
ENDROOT
BRANCH   1   2
ATOM      2  C   UNL d   1      30.506 -13.488   4.285  0.00  0.00     0.217 C 
ATOM      3  N   UNL d   1      29.813 -14.677   4.204  0.00  0.00    -0.361 N 
ATOM      4  H   UNL d   1      30.133 -15.407   3.573  0.00  0.00     0.162 HD
ATOM      5  O   UNL d   1      30.197 -12.590   5.070  0.00  0.00    -0.274 OA
BRANCH   3   6
ATOM      6  C   UNL d   1      28.685 -14.861   5.064  0.00  0.00     0.127 C 
BRANCH   6   7
ATOM      7  C   UNL d   1      27.472 -14.035   4.664  0.00  0.00     0.056 C 
BRANCH   7   8
ATOM      8  C   UNL d   1      27.502 -13.625   3.225  0.00  0.00    -0.048 A 
ATOM      9  C   UNL d   1      27.301 -12.387   2.759  0.00  0.00    -0.003 A 
ATOM     10  C   UNL d   1      27.434 -12.501   1.297  0.00  0.00     0.039 A 
ATOM     11  C   UNL d   1      27.026 -11.135   3.381  0.00  0.00     0.050 A 
ATOM     12  C   UNL d   1      27.273 -11.275   0.496  0.00  0.00     0.033 A 
ATOM     13  N   UNL d   1      27.687 -13.701   0.926  0.00  0.00    -0.385 N 
ATOM     14  C   UNL d   1      27.010 -10.127   1.159  0.00  0.00     0.039 A 
ATOM     15  C   UNL d   1      26.867 -10.046   2.612  0.00  0.00     0.069 A 
ATOM     16  C   UNL d   1      27.761 -14.589   2.100  0.00  0.00     0.155 A 
ATOM     17  H   UNL d   1      27.815 -13.984  -0.042  0.00  0.00     0.160 HD
BRANCH  15  18
ATOM     18  O   UNL d   1      26.720  -8.815   3.211  0.00  0.00    -0.356 OA
ATOM     19  C   UNL d   1      27.872  -8.260   3.838  0.00  0.00     0.210 C 
ENDBRANCH  15  18
ENDBRANCH   7   8
ENDBRANCH   6   7
ENDBRANCH   3   6
ENDBRANCH   1   2
BRANCH   1  20
ATOM     20  C   UNL d   1      31.273 -13.095   1.916  0.00  0.00     0.041 C 
BRANCH  20  21
ATOM     21  C   UNL d   1      30.500 -14.212   1.203  0.00  0.00     0.135 C 
ATOM     22  N   UNL d   1      30.979 -15.556   1.585  0.00  0.00    -0.245 NA
ATOM     23  N   UNL d   1      30.867 -16.491   0.450  0.00  0.00    -0.237 NA
ATOM     24  H   UNL d   1      30.450 -15.876   2.404  0.00  0.00     0.142 HD
ATOM     25  C   UNL d   1      30.358 -15.825  -0.763  0.00  0.00     0.226 C 
ATOM     26  H   UNL d   1      30.346 -17.340   0.670  0.00  0.00     0.142 HD
ATOM     27  S   UNL d   1      30.686 -14.084  -0.597  0.00  0.00    -0.117 SA
BRANCH  25  28
ATOM     28  C   UNL d   1      28.833 -15.982  -0.900  0.00  0.00     0.251 C 
ATOM     29  O   UNL d   1      28.183 -15.379  -1.760  0.00  0.00    -0.270 OA
ATOM     30  N   UNL d   1      28.243 -16.826   0.035  0.00  0.00    -0.325 N 
ATOM     31  H   UNL d   1      28.730 -17.001   0.904  0.00  0.00     0.169 HD
BRANCH  30  32
ATOM     32  C   UNL d   1      26.851 -17.032  -0.018  0.00  0.00     0.034 A 
ATOM     33  C   UNL d   1      26.323 -18.310   0.204  0.00  0.00     0.029 A 
ATOM     34  C   UNL d   1      24.984 -18.576  -0.048  0.00  0.00     0.002 A 
ATOM     35  C   UNL d   1      24.140 -17.538  -0.420  0.00  0.00     0.000 A 
ATOM     36  C   UNL d   1      24.636 -16.235  -0.519  0.00  0.00     0.002 A 
ATOM     37  C   UNL d   1      26.001 -15.981  -0.349  0.00  0.00     0.029 A 
ENDBRANCH  30  32
ENDBRANCH  25  28
ENDBRANCH  20  21
ENDBRANCH   1  20
TORSDOF 9
ENDMDL
MODEL 5
REMARK VINA RESULT:    -7.056      2.817      7.486
REMARK INTER + INTRA:         -14.061
REMARK INTER:                  -9.740
REMARK INTRA:                  -4.321
REMARK CONF_INDEPENDENT:        2.685
REMARK UNBOUND:                -4.321
REMARK  9 active torsions:
REMARK  status: ('A' for Active; 'I' for Inactive)
REMARK    1  A    between atoms: O_2  and  C_3 
REMARK    2  A    between atoms: C_9  and  C_10 
REMARK    3  A    between atoms: C_10  and  C_11 
REMARK    4  A    between atoms: C_11  and  N_12 
REMARK       I    between atoms: N_12  and  C_13 
REMARK    5  A    between atoms: C_13  and  C_15 
REMARK    6  A    between atoms: C_15  and  C_16 
REMARK    7  A    between atoms: C_16  and  C_17 
REMARK    8  A    between atoms: C_20  and  C_21 
REMARK       I    between atoms: C_21  and  N_23 
REMARK    9  A    between atoms: N_23  and  C_24 
ROOT
ATOM      1  C   UNL d   1      31.884 -13.552   2.421  0.00  0.00     0.105 C 
ENDROOT
BRANCH   1   2
ATOM      2  C   UNL d   1      31.144 -13.566   3.716  0.00  0.00     0.217 C 
ATOM      3  N   UNL d   1      30.616 -14.804   4.018  0.00  0.00    -0.361 N 
ATOM      4  H   UNL d   1      30.775 -15.588   3.391  0.00  0.00     0.162 HD
ATOM      5  O   UNL d   1      31.030 -12.594   4.463  0.00  0.00    -0.274 OA
BRANCH   3   6
ATOM      6  C   UNL d   1      29.900 -14.949   5.247  0.00  0.00     0.127 C 
BRANCH   6   7
ATOM      7  C   UNL d   1      28.396 -14.771   5.102  0.00  0.00     0.056 C 
BRANCH   7   8
ATOM      8  C   UNL d   1      28.012 -13.368   4.753  0.00  0.00    -0.048 A 
ATOM      9  C   UNL d   1      27.715 -12.918   3.529  0.00  0.00    -0.003 A 
ATOM     10  C   UNL d   1      27.405 -11.490   3.708  0.00  0.00     0.039 A 
ATOM     11  C   UNL d   1      27.649 -13.534   2.245  0.00  0.00     0.050 A 
ATOM     12  C   UNL d   1      27.024 -10.715   2.514  0.00  0.00     0.033 A 
ATOM     13  N   UNL d   1      27.513 -11.121   4.930  0.00  0.00    -0.385 N 
ATOM     14  C   UNL d   1      26.988 -11.369   1.331  0.00  0.00     0.039 A 
ATOM     15  C   UNL d   1      27.317 -12.787   1.180  0.00  0.00     0.069 A 
ATOM     16  C   UNL d   1      27.920 -12.262   5.769  0.00  0.00     0.155 A 
ATOM     17  H   UNL d   1      27.340 -10.174   5.258  0.00  0.00     0.160 HD
BRANCH  15  18
ATOM     18  O   UNL d   1      27.135 -13.397  -0.040  0.00  0.00    -0.356 OA
ATOM     19  C   UNL d   1      27.177 -12.560  -1.193  0.00  0.00     0.210 C 
ENDBRANCH  15  18
ENDBRANCH   7   8
ENDBRANCH   6   7
ENDBRANCH   3   6
ENDBRANCH   1   2
BRANCH   1  20
ATOM     20  C   UNL d   1      30.988 -13.237   1.221  0.00  0.00     0.041 C 
BRANCH  20  21
ATOM     21  C   UNL d   1      30.258 -14.457   0.646  0.00  0.00     0.135 C 
ATOM     22  N   UNL d   1      30.744 -15.725   1.227  0.00  0.00    -0.245 NA
ATOM     23  N   UNL d   1      30.688 -16.811   0.231  0.00  0.00    -0.237 NA
ATOM     24  H   UNL d   1      30.191 -15.939   2.065  0.00  0.00     0.142 HD
ATOM     25  C   UNL d   1      30.212 -16.331  -1.079  0.00  0.00     0.226 C 
ATOM     26  H   UNL d   1      30.173 -17.632   0.551  0.00  0.00     0.142 HD
ATOM     27  S   UNL d   1      30.508 -14.578  -1.148  0.00  0.00    -0.117 SA
BRANCH  25  28
ATOM     28  C   UNL d   1      28.696 -16.537  -1.244  0.00  0.00     0.251 C 
ATOM     29  O   UNL d   1      28.131 -16.423  -2.336  0.00  0.00    -0.270 OA
ATOM     30  N   UNL d   1      28.012 -16.827  -0.069  0.00  0.00    -0.325 N 
ATOM     31  H   UNL d   1      28.430 -16.562   0.813  0.00  0.00     0.169 HD
BRANCH  30  32
ATOM     32  C   UNL d   1      26.620 -17.035  -0.126  0.00  0.00     0.034 A 
ATOM     33  C   UNL d   1      26.077 -18.260   0.284  0.00  0.00     0.029 A 
ATOM     34  C   UNL d   1      24.743 -18.559   0.042  0.00  0.00     0.002 A 
ATOM     35  C   UNL d   1      23.917 -17.592  -0.516  0.00  0.00     0.000 A 
ATOM     36  C   UNL d   1      24.425 -16.324  -0.810  0.00  0.00     0.002 A 
ATOM     37  C   UNL d   1      25.786 -16.049  -0.646  0.00  0.00     0.029 A 
ENDBRANCH  30  32
ENDBRANCH  25  28
ENDBRANCH  20  21
ENDBRANCH   1  20
TORSDOF 9
ENDMDL
MODEL 6
REMARK VINA RESULT:    -6.519      6.603      9.006
REMARK INTER + INTRA:         -13.778
REMARK INTER:                  -9.204
REMARK INTRA:                  -4.574
REMARK CONF_INDEPENDENT:        2.685
REMARK UNBOUND:                -4.574
REMARK  9 active torsions:
REMARK  status: ('A' for Active; 'I' for Inactive)
REMARK    1  A    between atoms: O_2  and  C_3 
REMARK    2  A    between atoms: C_9  and  C_10 
REMARK    3  A    between atoms: C_10  and  C_11 
REMARK    4  A    between atoms: C_11  and  N_12 
REMARK       I    between atoms: N_12  and  C_13 
REMARK    5  A    between atoms: C_13  and  C_15 
REMARK    6  A    between atoms: C_15  and  C_16 
REMARK    7  A    between atoms: C_16  and  C_17 
REMARK    8  A    between atoms: C_20  and  C_21 
REMARK       I    between atoms: C_21  and  N_23 
REMARK    9  A    between atoms: N_23  and  C_24 
ROOT
ATOM      1  C   UNL d   1      30.171 -13.890  -6.491  0.00  0.00     0.105 C 
ENDROOT
BRANCH   1   2
ATOM      2  C   UNL d   1      31.091 -15.031  -6.766  0.00  0.00     0.217 C 
ATOM      3  N   UNL d   1      30.422 -16.210  -7.021  0.00  0.00    -0.361 N 
ATOM      4  H   UNL d   1      29.406 -16.223  -7.029  0.00  0.00     0.162 HD
ATOM      5  O   UNL d   1      32.319 -14.943  -6.796  0.00  0.00    -0.274 OA
BRANCH   3   6
ATOM      6  C   UNL d   1      31.197 -17.374  -7.320  0.00  0.00     0.127 C 
BRANCH   6   7
ATOM      7  C   UNL d   1      30.525 -18.675  -6.912  0.00  0.00     0.056 C 
BRANCH   7   8
ATOM      8  C   UNL d   1      30.949 -19.144  -5.556  0.00  0.00    -0.048 A 
ATOM      9  C   UNL d   1      30.677 -18.536  -4.396  0.00  0.00    -0.003 A 
ATOM     10  C   UNL d   1      31.302 -19.379  -3.364  0.00  0.00     0.039 A 
ATOM     11  C   UNL d   1      29.957 -17.355  -4.051  0.00  0.00     0.050 A 
ATOM     12  C   UNL d   1      31.159 -18.961  -1.958  0.00  0.00     0.033 A 
ATOM     13  N   UNL d   1      31.897 -20.396  -3.865  0.00  0.00    -0.385 N 
ATOM     14  C   UNL d   1      30.466 -17.828  -1.711  0.00  0.00     0.039 A 
ATOM     15  C   UNL d   1      29.868 -17.001  -2.759  0.00  0.00     0.069 A 
ATOM     16  C   UNL d   1      31.762 -20.390  -5.333  0.00  0.00     0.155 A 
ATOM     17  H   UNL d   1      32.388 -21.099  -3.317  0.00  0.00     0.160 HD
BRANCH  15  18
ATOM     18  O   UNL d   1      29.077 -15.930  -2.408  0.00  0.00    -0.356 OA
ATOM     19  C   UNL d   1      29.670 -14.931  -1.583  0.00  0.00     0.210 C 
ENDBRANCH  15  18
ENDBRANCH   7   8
ENDBRANCH   6   7
ENDBRANCH   3   6
ENDBRANCH   1   2
BRANCH   1  20
ATOM     20  C   UNL d   1      29.800 -13.762  -5.011  0.00  0.00     0.041 C 
BRANCH  20  21
ATOM     21  C   UNL d   1      28.444 -14.380  -4.649  0.00  0.00     0.135 C 
ATOM     22  N   UNL d   1      28.012 -15.396  -5.630  0.00  0.00    -0.245 NA
ATOM     23  N   UNL d   1      26.544 -15.395  -5.771  0.00  0.00    -0.237 NA
ATOM     24  H   UNL d   1      28.372 -16.312  -5.339  0.00  0.00     0.142 HD
ATOM     25  C   UNL d   1      25.913 -14.355  -4.938  0.00  0.00     0.226 C 
ATOM     26  H   UNL d   1      26.120 -16.312  -5.628  0.00  0.00     0.142 HD
ATOM     27  S   UNL d   1      27.145 -13.114  -4.605  0.00  0.00    -0.117 SA
BRANCH  25  28
ATOM     28  C   UNL d   1      25.461 -14.913  -3.577  0.00  0.00     0.251 C 
ATOM     29  O   UNL d   1      24.516 -14.426  -2.946  0.00  0.00    -0.270 OA
ATOM     30  N   UNL d   1      26.214 -15.981  -3.100  0.00  0.00    -0.325 N 
ATOM     31  H   UNL d   1      27.154 -16.105  -3.451  0.00  0.00     0.169 HD
BRANCH  30  32
ATOM     32  C   UNL d   1      25.867 -16.558  -1.863  0.00  0.00     0.034 A 
ATOM     33  C   UNL d   1      26.832 -16.688  -0.856  0.00  0.00     0.029 A 
ATOM     34  C   UNL d   1      26.569 -17.437   0.283  0.00  0.00     0.002 A 
ATOM     35  C   UNL d   1      25.301 -17.971   0.472  0.00  0.00     0.000 A 
ATOM     36  C   UNL d   1      24.296 -17.735  -0.470  0.00  0.00     0.002 A 
ATOM     37  C   UNL d   1      24.583 -17.055  -1.658  0.00  0.00     0.029 A 
ENDBRANCH  30  32
ENDBRANCH  25  28
ENDBRANCH  20  21
ENDBRANCH   1  20
TORSDOF 9
ENDMDL
MODEL 7
REMARK VINA RESULT:    -6.484      4.800      7.965
REMARK INTER + INTRA:         -14.173
REMARK INTER:                  -9.169
REMARK INTRA:                  -5.004
REMARK CONF_INDEPENDENT:        2.685
REMARK UNBOUND:                -5.004
REMARK  9 active torsions:
REMARK  status: ('A' for Active; 'I' for Inactive)
REMARK    1  A    between atoms: O_2  and  C_3 
REMARK    2  A    between atoms: C_9  and  C_10 
REMARK    3  A    between atoms: C_10  and  C_11 
REMARK    4  A    between atoms: C_11  and  N_12 
REMARK       I    between atoms: N_12  and  C_13 
REMARK    5  A    between atoms: C_13  and  C_15 
REMARK    6  A    between atoms: C_15  and  C_16 
REMARK    7  A    between atoms: C_16  and  C_17 
REMARK    8  A    between atoms: C_20  and  C_21 
REMARK       I    between atoms: C_21  and  N_23 
REMARK    9  A    between atoms: N_23  and  C_24 
ROOT
ATOM      1  C   UNL d   1      29.636 -14.859  -4.752  0.00  0.00     0.105 C 
ENDROOT
BRANCH   1   2
ATOM      2  C   UNL d   1      28.254 -15.061  -5.274  0.00  0.00     0.217 C 
ATOM      3  N   UNL d   1      27.298 -15.044  -4.281  0.00  0.00    -0.361 N 
ATOM      4  H   UNL d   1      27.573 -14.880  -3.316  0.00  0.00     0.162 HD
ATOM      5  O   UNL d   1      27.974 -15.201  -6.466  0.00  0.00    -0.274 OA
BRANCH   3   6
ATOM      6  C   UNL d   1      25.929 -15.207  -4.660  0.00  0.00     0.127 C 
BRANCH   6   7
ATOM      7  C   UNL d   1      25.132 -13.912  -4.643  0.00  0.00     0.056 C 
BRANCH   7   8
ATOM      8  C   UNL d   1      25.883 -12.781  -4.014  0.00  0.00    -0.048 A 
ATOM      9  C   UNL d   1      26.289 -12.721  -2.741  0.00  0.00    -0.003 A 
ATOM     10  C   UNL d   1      26.976 -11.425  -2.616  0.00  0.00     0.039 A 
ATOM     11  C   UNL d   1      26.183 -13.612  -1.633  0.00  0.00     0.050 A 
ATOM     12  C   UNL d   1      27.552 -11.077  -1.305  0.00  0.00     0.033 A 
ATOM     13  N   UNL d   1      26.974 -10.769  -3.716  0.00  0.00    -0.385 N 
ATOM     14  C   UNL d   1      27.406 -11.971  -0.302  0.00  0.00     0.039 A 
ATOM     15  C   UNL d   1      26.704 -13.246  -0.451  0.00  0.00     0.069 A 
ATOM     16  C   UNL d   1      26.274 -11.535  -4.762  0.00  0.00     0.155 A 
ATOM     17  H   UNL d   1      27.399  -9.852  -3.835  0.00  0.00     0.160 HD
BRANCH  15  18
ATOM     18  O   UNL d   1      26.711 -14.148   0.589  0.00  0.00    -0.356 OA
ATOM     19  C   UNL d   1      27.263 -13.703   1.826  0.00  0.00     0.210 C 
ENDBRANCH  15  18
ENDBRANCH   7   8
ENDBRANCH   6   7
ENDBRANCH   3   6
ENDBRANCH   1   2
BRANCH   1  20
ATOM     20  C   UNL d   1      30.097 -15.985  -3.823  0.00  0.00     0.041 C 
BRANCH  20  21
ATOM     21  C   UNL d   1      29.177 -16.217  -2.617  0.00  0.00     0.135 C 
ATOM     22  N   UNL d   1      29.100 -15.034  -1.736  0.00  0.00    -0.245 NA
ATOM     23  N   UNL d   1      28.940 -15.443  -0.328  0.00  0.00    -0.237 NA
ATOM     24  H   UNL d   1      28.331 -14.434  -2.054  0.00  0.00     0.142 HD
ATOM     25  C   UNL d   1      28.949 -16.909  -0.176  0.00  0.00     0.226 C 
ATOM     26  H   UNL d   1      28.137 -15.014   0.133  0.00  0.00     0.142 HD
ATOM     27  S   UNL d   1      29.780 -17.590  -1.595  0.00  0.00    -0.117 SA
BRANCH  25  28
ATOM     28  C   UNL d   1      27.524 -17.490  -0.171  0.00  0.00     0.251 C 
ATOM     29  O   UNL d   1      27.300 -18.686   0.044  0.00  0.00    -0.270 OA
ATOM     30  N   UNL d   1      26.517 -16.575  -0.458  0.00  0.00    -0.325 N 
ATOM     31  H   UNL d   1      26.757 -15.733  -0.963  0.00  0.00     0.169 HD
BRANCH  30  32
ATOM     32  C   UNL d   1      25.179 -17.018  -0.470  0.00  0.00     0.034 A 
ATOM     33  C   UNL d   1      24.184 -16.226  -1.056  0.00  0.00     0.029 A 
ATOM     34  C   UNL d   1      22.842 -16.542  -0.896  0.00  0.00     0.002 A 
ATOM     35  C   UNL d   1      22.490 -17.715  -0.239  0.00  0.00     0.000 A 
ATOM     36  C   UNL d   1      23.485 -18.575   0.235  0.00  0.00     0.002 A 
ATOM     37  C   UNL d   1      24.834 -18.215   0.150  0.00  0.00     0.029 A 
ENDBRANCH  30  32
ENDBRANCH  25  28
ENDBRANCH  20  21
ENDBRANCH   1  20
TORSDOF 9
ENDMDL
MODEL 8
REMARK VINA RESULT:    -5.568      5.908      8.452
REMARK INTER + INTRA:         -13.841
REMARK INTER:                  -8.252
REMARK INTRA:                  -5.589
REMARK CONF_INDEPENDENT:        2.685
REMARK UNBOUND:                -5.589
REMARK  9 active torsions:
REMARK  status: ('A' for Active; 'I' for Inactive)
REMARK    1  A    between atoms: O_2  and  C_3 
REMARK    2  A    between atoms: C_9  and  C_10 
REMARK    3  A    between atoms: C_10  and  C_11 
REMARK    4  A    between atoms: C_11  and  N_12 
REMARK       I    between atoms: N_12  and  C_13 
REMARK    5  A    between atoms: C_13  and  C_15 
REMARK    6  A    between atoms: C_15  and  C_16 
REMARK    7  A    between atoms: C_16  and  C_17 
REMARK    8  A    between atoms: C_20  and  C_21 
REMARK       I    between atoms: C_21  and  N_23 
REMARK    9  A    between atoms: N_23  and  C_24 
ROOT
ATOM      1  C   UNL d   1      30.253 -15.603  -4.495  0.00  0.00     0.105 C 
ENDROOT
BRANCH   1   2
ATOM      2  C   UNL d   1      29.136 -15.244  -5.416  0.00  0.00     0.217 C 
ATOM      3  N   UNL d   1      29.512 -14.340  -6.387  0.00  0.00    -0.361 N 
ATOM      4  H   UNL d   1      30.473 -14.013  -6.430  0.00  0.00     0.162 HD
ATOM      5  O   UNL d   1      28.000 -15.715  -5.349  0.00  0.00    -0.274 OA
BRANCH   3   6
ATOM      6  C   UNL d   1      28.531 -13.933  -7.345  0.00  0.00     0.127 C 
BRANCH   6   7
ATOM      7  C   UNL d   1      28.365 -12.424  -7.444  0.00  0.00     0.056 C 
BRANCH   7   8
ATOM      8  C   UNL d   1      28.565 -11.733  -6.132  0.00  0.00    -0.048 A 
ATOM      9  C   UNL d   1      27.943 -12.031  -4.987  0.00  0.00    -0.003 A 
ATOM     10  C   UNL d   1      28.479 -11.080  -3.999  0.00  0.00     0.039 A 
ATOM     11  C   UNL d   1      26.975 -13.011  -4.620  0.00  0.00     0.050 A 
ATOM     12  C   UNL d   1      27.980 -11.174  -2.615  0.00  0.00     0.033 A 
ATOM     13  N   UNL d   1      29.339 -10.283  -4.513  0.00  0.00    -0.385 N 
ATOM     14  C   UNL d   1      27.059 -12.126  -2.347  0.00  0.00     0.039 A 
ATOM     15  C   UNL d   1      26.533 -13.049  -3.353  0.00  0.00     0.069 A 
ATOM     16  C   UNL d   1      29.515 -10.581  -5.945  0.00  0.00     0.155 A 
ATOM     17  H   UNL d   1      29.824  -9.555  -3.994  0.00  0.00     0.160 HD
BRANCH  15  18
ATOM     18  O   UNL d   1      25.689 -14.065  -2.964  0.00  0.00    -0.356 OA
ATOM     19  C   UNL d   1      24.384 -14.075  -3.536  0.00  0.00     0.210 C 
ENDBRANCH  15  18
ENDBRANCH   7   8
ENDBRANCH   6   7
ENDBRANCH   3   6
ENDBRANCH   1   2
BRANCH   1  20
ATOM     20  C   UNL d   1      29.934 -16.809  -3.608  0.00  0.00     0.041 C 
BRANCH  20  21
ATOM     21  C   UNL d   1      28.797 -16.567  -2.608  0.00  0.00     0.135 C 
ATOM     22  N   UNL d   1      28.347 -15.160  -2.600  0.00  0.00    -0.245 NA
ATOM     23  N   UNL d   1      27.916 -14.759  -1.248  0.00  0.00    -0.237 NA
ATOM     24  H   UNL d   1      27.600 -15.047  -3.294  0.00  0.00     0.142 HD
ATOM     25  C   UNL d   1      28.095 -15.846  -0.268  0.00  0.00     0.226 C 
ATOM     26  H   UNL d   1      26.975 -14.366  -1.220  0.00  0.00     0.142 HD
ATOM     27  S   UNL d   1      29.326 -16.955  -0.916  0.00  0.00    -0.117 SA
BRANCH  25  28
ATOM     28  C   UNL d   1      26.805 -16.665  -0.087  0.00  0.00     0.251 C 
ATOM     29  O   UNL d   1      26.709 -17.564   0.755  0.00  0.00    -0.270 OA
ATOM     30  N   UNL d   1      25.774 -16.338  -0.960  0.00  0.00    -0.325 N 
ATOM     31  H   UNL d   1      26.004 -15.876  -1.829  0.00  0.00     0.169 HD
BRANCH  30  32
ATOM     32  C   UNL d   1      24.553 -17.035  -0.863  0.00  0.00     0.034 A 
ATOM     33  C   UNL d   1      23.344 -16.329  -0.823  0.00  0.00     0.029 A 
ATOM     34  C   UNL d   1      22.155 -16.978  -0.520  0.00  0.00     0.002 A 
ATOM     35  C   UNL d   1      22.152 -18.357  -0.359  0.00  0.00     0.000 A 
ATOM     36  C   UNL d   1      23.335 -19.083  -0.524  0.00  0.00     0.002 A 
ATOM     37  C   UNL d   1      24.547 -18.422  -0.745  0.00  0.00     0.029 A 
ENDBRANCH  30  32
ENDBRANCH  25  28
ENDBRANCH  20  21
ENDBRANCH   1  20
TORSDOF 9
ENDMDL
