MODEL 1
REMARK VINA RESULT:    -8.610      0.000      0.000
REMARK INTER + INTRA:         -12.394
REMARK INTER:                 -10.996
REMARK INTRA:                  -1.398
REMARK CONF_INDEPENDENT:        2.386
REMARK UNBOUND:                -1.398
REMARK  8 active torsions:
REMARK  status: ('A' for Active; 'I' for Inactive)
REMARK    1  A    between atoms: C_2  and  C_4 
REMARK    2  A    between atoms: C_4  and  C_5 
REMARK    3  A    between atoms: C_5  and  C_6 
REMARK       I    between atoms: C_6  and  N_8 
REMARK    4  A    between atoms: N_8  and  N_9 
REMARK       I    between atoms: N_9  and  C_10 
REMARK    5  A    between atoms: C_10  and  C_12 
REMARK    6  A    between atoms: C_12  and  C_13 
REMARK    7  A    between atoms: C_13  and  C_14 
REMARK    8  A    between atoms: C_19  and  O_20 
ROOT
ATOM      1  N   UNL d   1      23.433 -17.637  -0.580  0.00  0.00    -0.268 N 
ATOM      2  C   UNL d   1      24.791 -17.588  -0.305  0.00  0.00     0.236 C 
ATOM      3  O   UNL d   1      25.372 -18.459   0.344  0.00  0.00    -0.272 OA
ATOM      4  H   UNL d   1      22.921 -16.906  -1.075  0.00  0.00     0.190 HD
ENDROOT
BRANCH   2   5
ATOM      5  C   UNL d   1      25.460 -16.347  -0.834  0.00  0.00     0.109 C 
BRANCH   5   6
ATOM      6  C   UNL d   1      24.794 -15.724  -2.068  0.00  0.00     0.051 C 
BRANCH   6   7
ATOM      7  C   UNL d   1      25.750 -15.168  -3.119  0.00  0.00    -0.025 A 
ATOM      8  C   UNL d   1      27.099 -15.574  -3.100  0.00  0.00     0.010 A 
ATOM      9  C   UNL d   1      28.014 -15.075  -4.036  0.00  0.00     0.001 A 
ATOM     10  C   UNL d   1      27.600 -14.153  -4.994  0.00  0.00     0.003 A 
ATOM     11  C   UNL d   1      26.278 -13.725  -5.018  0.00  0.00     0.037 A 
ATOM     12  C   UNL d   1      25.370 -14.226  -4.089  0.00  0.00     0.071 A 
BRANCH  12  13
ATOM     13  O   UNL d   1      24.083 -13.774  -4.140  0.00  0.00    -0.360 OA
ATOM     14  H   UNL d   1      23.870 -13.439  -5.023  0.00  0.00     0.217 HD
ENDBRANCH  12  13
ENDBRANCH   6   7
ENDBRANCH   5   6
ENDBRANCH   2   5
BRANCH   1  15
ATOM     15  N   UNL d   1      22.678 -18.703  -0.066  0.00  0.00    -0.268 N 
ATOM     16  C   UNL d   1      21.356 -18.838  -0.448  0.00  0.00     0.236 C 
ATOM     17  O   UNL d   1      20.804 -18.036  -1.199  0.00  0.00    -0.272 OA
ATOM     18  H   UNL d   1      23.174 -19.350   0.545  0.00  0.00     0.190 HD
BRANCH  16  19
ATOM     19  C   UNL d   1      20.663 -20.066   0.127  0.00  0.00     0.105 C 
BRANCH  19  20
ATOM     20  C   UNL d   1      19.138 -19.995  -0.036  0.00  0.00     0.013 C 
BRANCH  20  21
ATOM     21  C   UNL d   1      18.352 -20.470   1.201  0.00  0.00    -0.022 C 
ATOM     22  C   UNL d   1      17.822 -21.891   0.980  0.00  0.00     0.009 C 
ATOM     23  C   UNL d   1      19.220 -20.450   2.459  0.00  0.00     0.009 C 
ENDBRANCH  20  21
ENDBRANCH  19  20
ENDBRANCH  16  19
ENDBRANCH   1  15
TORSDOF 8
ENDMDL
MODEL 2
REMARK VINA RESULT:    -7.404      1.509      8.847
REMARK INTER + INTRA:         -11.147
REMARK INTER:                  -9.790
REMARK INTRA:                  -1.356
REMARK CONF_INDEPENDENT:        2.386
REMARK UNBOUND:                -1.356
REMARK  8 active torsions:
REMARK  status: ('A' for Active; 'I' for Inactive)
REMARK    1  A    between atoms: C_2  and  C_4 
REMARK    2  A    between atoms: C_4  and  C_5 
REMARK    3  A    between atoms: C_5  and  C_6 
REMARK       I    between atoms: C_6  and  N_8 
REMARK    4  A    between atoms: N_8  and  N_9 
REMARK       I    between atoms: N_9  and  C_10 
REMARK    5  A    between atoms: C_10  and  C_12 
REMARK    6  A    between atoms: C_12  and  C_13 
REMARK    7  A    between atoms: C_13  and  C_14 
REMARK    8  A    between atoms: C_19  and  O_20 
ROOT
ATOM      1  N   UNL d   1      24.555 -16.072  -1.481  0.00  0.00    -0.268 N 
ATOM      2  C   UNL d   1      24.520 -17.135  -0.593  0.00  0.00     0.236 C 
ATOM      3  O   UNL d   1      25.531 -17.745  -0.243  0.00  0.00    -0.272 OA
ATOM      4  H   UNL d   1      23.726 -15.581  -1.822  0.00  0.00     0.190 HD
ENDROOT
BRANCH   2   5
ATOM      5  C   UNL d   1      23.126 -17.494  -0.148  0.00  0.00     0.109 C 
BRANCH   5   6
ATOM      6  C   UNL d   1      22.556 -18.778  -0.765  0.00  0.00     0.051 C 
BRANCH   6   7
ATOM      7  C   UNL d   1      21.212 -19.233  -0.205  0.00  0.00    -0.025 A 
ATOM      8  C   UNL d   1      21.025 -19.259   1.191  0.00  0.00     0.010 A 
ATOM      9  C   UNL d   1      19.812 -19.687   1.747  0.00  0.00     0.001 A 
ATOM     10  C   UNL d   1      18.774 -20.108   0.919  0.00  0.00     0.003 A 
ATOM     11  C   UNL d   1      18.945 -20.106  -0.460  0.00  0.00     0.037 A 
ATOM     12  C   UNL d   1      20.150 -19.678  -1.009  0.00  0.00     0.071 A 
BRANCH  12  13
ATOM     13  O   UNL d   1      20.281 -19.700  -2.368  0.00  0.00    -0.360 OA
ATOM     14  H   UNL d   1      19.422 -19.578  -2.799  0.00  0.00     0.217 HD
ENDBRANCH  12  13
ENDBRANCH   6   7
ENDBRANCH   5   6
ENDBRANCH   2   5
BRANCH   1  15
ATOM     15  N   UNL d   1      25.787 -15.695  -2.036  0.00  0.00    -0.268 N 
ATOM     16  C   UNL d   1      25.804 -14.845  -3.125  0.00  0.00     0.236 C 
ATOM     17  O   UNL d   1      24.772 -14.429  -3.651  0.00  0.00    -0.272 OA
ATOM     18  H   UNL d   1      26.618 -16.053  -1.567  0.00  0.00     0.190 HD
BRANCH  16  19
ATOM     19  C   UNL d   1      27.201 -14.461  -3.596  0.00  0.00     0.105 C 
BRANCH  19  20
ATOM     20  C   UNL d   1      27.854 -15.575  -4.429  0.00  0.00     0.013 C 
BRANCH  20  21
ATOM     21  C   UNL d   1      28.909 -15.071  -5.431  0.00  0.00    -0.022 C 
ATOM     22  C   UNL d   1      28.230 -14.323  -6.585  0.00  0.00     0.009 C 
ATOM     23  C   UNL d   1      29.924 -14.145  -4.762  0.00  0.00     0.009 C 
ENDBRANCH  20  21
ENDBRANCH  19  20
ENDBRANCH  16  19
ENDBRANCH   1  15
TORSDOF 8
ENDMDL
MODEL 3
REMARK VINA RESULT:    -7.291      1.842      8.560
REMARK INTER + INTRA:         -11.181
REMARK INTER:                  -9.678
REMARK INTRA:                  -1.503
REMARK CONF_INDEPENDENT:        2.386
REMARK UNBOUND:                -1.503
REMARK  8 active torsions:
REMARK  status: ('A' for Active; 'I' for Inactive)
REMARK    1  A    between atoms: C_2  and  C_4 
REMARK    2  A    between atoms: C_4  and  C_5 
REMARK    3  A    between atoms: C_5  and  C_6 
REMARK       I    between atoms: C_6  and  N_8 
REMARK    4  A    between atoms: N_8  and  N_9 
REMARK       I    between atoms: N_9  and  C_10 
REMARK    5  A    between atoms: C_10  and  C_12 
REMARK    6  A    between atoms: C_12  and  C_13 
REMARK    7  A    between atoms: C_13  and  C_14 
REMARK    8  A    between atoms: C_19  and  O_20 
ROOT
ATOM      1  N   UNL d   1      24.400 -16.191  -1.734  0.00  0.00    -0.268 N 
ATOM      2  C   UNL d   1      24.498 -17.069  -0.666  0.00  0.00     0.236 C 
ATOM      3  O   UNL d   1      25.575 -17.507  -0.260  0.00  0.00    -0.272 OA
ATOM      4  H   UNL d   1      23.516 -15.850  -2.118  0.00  0.00     0.190 HD
ENDROOT
BRANCH   2   5
ATOM      5  C   UNL d   1      23.161 -17.465  -0.097  0.00  0.00     0.109 C 
BRANCH   5   6
ATOM      6  C   UNL d   1      22.377 -18.490  -0.928  0.00  0.00     0.051 C 
BRANCH   6   7
ATOM      7  C   UNL d   1      21.128 -19.056  -0.261  0.00  0.00    -0.025 A 
ATOM      8  C   UNL d   1      21.034 -19.038   1.145  0.00  0.00     0.010 A 
ATOM      9  C   UNL d   1      19.912 -19.564   1.799  0.00  0.00     0.001 A 
ATOM     10  C   UNL d   1      18.875 -20.129   1.062  0.00  0.00     0.003 A 
ATOM     11  C   UNL d   1      18.956 -20.174  -0.325  0.00  0.00     0.037 A 
ATOM     12  C   UNL d   1      20.071 -19.647  -0.972  0.00  0.00     0.071 A 
BRANCH  12  13
ATOM     13  O   UNL d   1      20.116 -19.718  -2.335  0.00  0.00    -0.360 OA
ATOM     14  H   UNL d   1      19.324 -19.325  -2.727  0.00  0.00     0.217 HD
ENDBRANCH  12  13
ENDBRANCH   6   7
ENDBRANCH   5   6
ENDBRANCH   2   5
BRANCH   1  15
ATOM     15  N   UNL d   1      25.571 -15.812  -2.408  0.00  0.00    -0.268 N 
ATOM     16  C   UNL d   1      25.487 -14.911  -3.452  0.00  0.00     0.236 C 
ATOM     17  O   UNL d   1      24.413 -14.450  -3.838  0.00  0.00    -0.272 OA
ATOM     18  H   UNL d   1      26.440 -16.208  -2.053  0.00  0.00     0.190 HD
BRANCH  16  19
ATOM     19  C   UNL d   1      26.831 -14.533  -4.060  0.00  0.00     0.105 C 
BRANCH  19  20
ATOM     20  C   UNL d   1      27.065 -13.015  -4.040  0.00  0.00     0.013 C 
BRANCH  20  21
ATOM     21  C   UNL d   1      26.474 -12.306  -2.807  0.00  0.00    -0.022 C 
ATOM     22  C   UNL d   1      27.404 -12.475  -1.600  0.00  0.00     0.009 C 
ATOM     23  C   UNL d   1      26.256 -10.815  -3.066  0.00  0.00     0.009 C 
ENDBRANCH  20  21
ENDBRANCH  19  20
ENDBRANCH  16  19
ENDBRANCH   1  15
TORSDOF 8
ENDMDL
MODEL 4
REMARK VINA RESULT:    -7.251      2.776      8.497
REMARK INTER + INTRA:         -11.135
REMARK INTER:                  -9.637
REMARK INTRA:                  -1.498
REMARK CONF_INDEPENDENT:        2.386
REMARK UNBOUND:                -1.498
REMARK  8 active torsions:
REMARK  status: ('A' for Active; 'I' for Inactive)
REMARK    1  A    between atoms: C_2  and  C_4 
REMARK    2  A    between atoms: C_4  and  C_5 
REMARK    3  A    between atoms: C_5  and  C_6 
REMARK       I    between atoms: C_6  and  N_8 
REMARK    4  A    between atoms: N_8  and  N_9 
REMARK       I    between atoms: N_9  and  C_10 
REMARK    5  A    between atoms: C_10  and  C_12 
REMARK    6  A    between atoms: C_12  and  C_13 
REMARK    7  A    between atoms: C_13  and  C_14 
REMARK    8  A    between atoms: C_19  and  O_20 
ROOT
ATOM      1  N   UNL d   1      24.330 -17.688  -0.430  0.00  0.00    -0.268 N 
ATOM      2  C   UNL d   1      23.197 -17.052  -0.913  0.00  0.00     0.236 C 
ATOM      3  O   UNL d   1      23.197 -15.876  -1.280  0.00  0.00    -0.272 OA
ATOM      4  H   UNL d   1      24.344 -18.646  -0.078  0.00  0.00     0.190 HD
ENDROOT
BRANCH   2   5
ATOM      5  C   UNL d   1      21.970 -17.925  -0.893  0.00  0.00     0.109 C 
BRANCH   5   6
ATOM      6  C   UNL d   1      21.935 -18.973   0.229  0.00  0.00     0.051 C 
BRANCH   6   7
ATOM      7  C   UNL d   1      20.568 -19.588   0.508  0.00  0.00    -0.025 A 
ATOM      8  C   UNL d   1      20.207 -19.878   1.839  0.00  0.00     0.010 A 
ATOM      9  C   UNL d   1      18.968 -20.460   2.138  0.00  0.00     0.001 A 
ATOM     10  C   UNL d   1      18.078 -20.774   1.113  0.00  0.00     0.003 A 
ATOM     11  C   UNL d   1      18.423 -20.513  -0.208  0.00  0.00     0.037 A 
ATOM     12  C   UNL d   1      19.654 -19.932  -0.501  0.00  0.00     0.071 A 
BRANCH  12  13
ATOM     13  O   UNL d   1      19.958 -19.699  -1.811  0.00  0.00    -0.360 OA
ATOM     14  H   UNL d   1      19.157 -19.680  -2.353  0.00  0.00     0.217 HD
ENDBRANCH  12  13
ENDBRANCH   6   7
ENDBRANCH   5   6
ENDBRANCH   2   5
BRANCH   1  15
ATOM     15  N   UNL d   1      25.521 -16.953  -0.318  0.00  0.00    -0.268 N 
ATOM     16  C   UNL d   1      26.637 -17.560   0.226  0.00  0.00     0.236 C 
ATOM     17  O   UNL d   1      26.618 -18.715   0.648  0.00  0.00    -0.272 OA
ATOM     18  H   UNL d   1      25.499 -16.004  -0.686  0.00  0.00     0.190 HD
BRANCH  16  19
ATOM     19  C   UNL d   1      27.882 -16.681   0.236  0.00  0.00     0.105 C 
BRANCH  19  20
ATOM     20  C   UNL d   1      27.800 -15.581   1.305  0.00  0.00     0.013 C 
BRANCH  20  21
ATOM     21  C   UNL d   1      27.929 -14.153   0.745  0.00  0.00    -0.022 C 
ATOM     22  C   UNL d   1      26.659 -13.766  -0.021  0.00  0.00     0.009 C 
ATOM     23  C   UNL d   1      28.173 -13.132   1.857  0.00  0.00     0.009 C 
ENDBRANCH  20  21
ENDBRANCH  19  20
ENDBRANCH  16  19
ENDBRANCH   1  15
TORSDOF 8
ENDMDL
MODEL 5
REMARK VINA RESULT:    -6.969      2.278      8.668
REMARK INTER + INTRA:         -10.810
REMARK INTER:                  -9.355
REMARK INTRA:                  -1.455
REMARK CONF_INDEPENDENT:        2.386
REMARK UNBOUND:                -1.455
REMARK  8 active torsions:
REMARK  status: ('A' for Active; 'I' for Inactive)
REMARK    1  A    between atoms: C_2  and  C_4 
REMARK    2  A    between atoms: C_4  and  C_5 
REMARK    3  A    between atoms: C_5  and  C_6 
REMARK       I    between atoms: C_6  and  N_8 
REMARK    4  A    between atoms: N_8  and  N_9 
REMARK       I    between atoms: N_9  and  C_10 
REMARK    5  A    between atoms: C_10  and  C_12 
REMARK    6  A    between atoms: C_12  and  C_13 
REMARK    7  A    between atoms: C_13  and  C_14 
REMARK    8  A    between atoms: C_19  and  O_20 
ROOT
ATOM      1  N   UNL d   1      24.321 -17.664  -0.433  0.00  0.00    -0.268 N 
ATOM      2  C   UNL d   1      23.166 -17.065  -0.909  0.00  0.00     0.236 C 
ATOM      3  O   UNL d   1      23.124 -15.887  -1.266  0.00  0.00    -0.272 OA
ATOM      4  H   UNL d   1      24.369 -18.624  -0.088  0.00  0.00     0.190 HD
ENDROOT
BRANCH   2   5
ATOM      5  C   UNL d   1      21.970 -17.981  -0.895  0.00  0.00     0.109 C 
BRANCH   5   6
ATOM      6  C   UNL d   1      21.927 -18.976   0.274  0.00  0.00     0.051 C 
BRANCH   6   7
ATOM      7  C   UNL d   1      20.560 -19.587   0.563  0.00  0.00    -0.025 A 
ATOM      8  C   UNL d   1      20.207 -19.875   1.897  0.00  0.00     0.010 A 
ATOM      9  C   UNL d   1      18.968 -20.452   2.205  0.00  0.00     0.001 A 
ATOM     10  C   UNL d   1      18.070 -20.764   1.187  0.00  0.00     0.003 A 
ATOM     11  C   UNL d   1      18.407 -20.505  -0.136  0.00  0.00     0.037 A 
ATOM     12  C   UNL d   1      19.637 -19.928  -0.439  0.00  0.00     0.071 A 
BRANCH  12  13
ATOM     13  O   UNL d   1      19.933 -19.698  -1.752  0.00  0.00    -0.360 OA
ATOM     14  H   UNL d   1      19.207 -19.984  -2.324  0.00  0.00     0.217 HD
ENDBRANCH  12  13
ENDBRANCH   6   7
ENDBRANCH   5   6
ENDBRANCH   2   5
BRANCH   1  15
ATOM     15  N   UNL d   1      25.485 -16.889  -0.316  0.00  0.00    -0.268 N 
ATOM     16  C   UNL d   1      26.600 -17.436   0.291  0.00  0.00     0.236 C 
ATOM     17  O   UNL d   1      26.601 -18.572   0.764  0.00  0.00    -0.272 OA
ATOM     18  H   UNL d   1      25.448 -15.958  -0.728  0.00  0.00     0.190 HD
BRANCH  16  19
ATOM     19  C   UNL d   1      27.817 -16.521   0.301  0.00  0.00     0.105 C 
BRANCH  19  20
ATOM     20  C   UNL d   1      28.007 -15.800  -1.042  0.00  0.00     0.013 C 
BRANCH  20  21
ATOM     21  C   UNL d   1      29.304 -16.182  -1.780  0.00  0.00    -0.022 C 
ATOM     22  C   UNL d   1      29.862 -17.499  -1.228  0.00  0.00     0.009 C 
ATOM     23  C   UNL d   1      29.073 -16.327  -3.284  0.00  0.00     0.009 C 
ENDBRANCH  20  21
ENDBRANCH  19  20
ENDBRANCH  16  19
ENDBRANCH   1  15
TORSDOF 8
ENDMDL
MODEL 6
REMARK VINA RESULT:    -6.426      1.443      1.764
REMARK INTER + INTRA:         -11.771
REMARK INTER:                  -8.812
REMARK INTRA:                  -2.959
REMARK CONF_INDEPENDENT:        2.386
REMARK UNBOUND:                -2.959
REMARK  8 active torsions:
REMARK  status: ('A' for Active; 'I' for Inactive)
REMARK    1  A    between atoms: C_2  and  C_4 
REMARK    2  A    between atoms: C_4  and  C_5 
REMARK    3  A    between atoms: C_5  and  C_6 
REMARK       I    between atoms: C_6  and  N_8 
REMARK    4  A    between atoms: N_8  and  N_9 
REMARK       I    between atoms: N_9  and  C_10 
REMARK    5  A    between atoms: C_10  and  C_12 
REMARK    6  A    between atoms: C_12  and  C_13 
REMARK    7  A    between atoms: C_13  and  C_14 
REMARK    8  A    between atoms: C_19  and  O_20 
ROOT
ATOM      1  N   UNL d   1      25.222 -17.428  -0.300  0.00  0.00    -0.268 N 
ATOM      2  C   UNL d   1      26.525 -17.716   0.076  0.00  0.00     0.236 C 
ATOM      3  O   UNL d   1      26.874 -18.829   0.472  0.00  0.00    -0.272 OA
ATOM      4  H   UNL d   1      24.899 -16.503  -0.587  0.00  0.00     0.190 HD
ENDROOT
BRANCH   2   5
ATOM      5  C   UNL d   1      27.443 -16.525  -0.000  0.00  0.00     0.109 C 
BRANCH   5   6
ATOM      6  C   UNL d   1      26.827 -15.267  -0.628  0.00  0.00     0.051 C 
BRANCH   6   7
ATOM      7  C   UNL d   1      26.760 -15.259  -2.151  0.00  0.00    -0.025 A 
ATOM      8  C   UNL d   1      27.961 -15.238  -2.889  0.00  0.00     0.010 A 
ATOM      9  C   UNL d   1      27.945 -15.213  -4.289  0.00  0.00     0.001 A 
ATOM     10  C   UNL d   1      26.732 -15.194  -4.974  0.00  0.00     0.003 A 
ATOM     11  C   UNL d   1      25.537 -15.197  -4.265  0.00  0.00     0.037 A 
ATOM     12  C   UNL d   1      25.556 -15.225  -2.873  0.00  0.00     0.071 A 
BRANCH  12  13
ATOM     13  O   UNL d   1      24.361 -15.217  -2.213  0.00  0.00    -0.360 OA
ATOM     14  H   UNL d   1      24.196 -16.072  -1.790  0.00  0.00     0.217 HD
ENDBRANCH  12  13
ENDBRANCH   6   7
ENDBRANCH   5   6
ENDBRANCH   2   5
BRANCH   1  15
ATOM     15  N   UNL d   1      24.250 -18.434  -0.192  0.00  0.00    -0.268 N 
ATOM     16  C   UNL d   1      22.939 -18.143  -0.520  0.00  0.00     0.236 C 
ATOM     17  O   UNL d   1      22.584 -17.019  -0.874  0.00  0.00    -0.272 OA
ATOM     18  H   UNL d   1      24.585 -19.352   0.096  0.00  0.00     0.190 HD
BRANCH  16  19
ATOM     19  C   UNL d   1      21.992 -19.331  -0.421  0.00  0.00     0.105 C 
BRANCH  19  20
ATOM     20  C   UNL d   1      20.546 -18.945  -0.769  0.00  0.00     0.013 C 
BRANCH  20  21
ATOM     21  C   UNL d   1      19.522 -19.303   0.324  0.00  0.00    -0.022 C 
ATOM     22  C   UNL d   1      18.634 -20.464  -0.139  0.00  0.00     0.009 C 
ATOM     23  C   UNL d   1      20.209 -19.690   1.633  0.00  0.00     0.009 C 
ENDBRANCH  20  21
ENDBRANCH  19  20
ENDBRANCH  16  19
ENDBRANCH   1  15
TORSDOF 8
ENDMDL
