MODEL 1
REMARK VINA RESULT:    -6.891      0.000      0.000
REMARK INTER + INTRA:         -13.309
REMARK INTER:                 -10.172
REMARK INTRA:                  -3.136
REMARK CONF_INDEPENDENT:        3.281
REMARK UNBOUND:                -3.136
REMARK  11 active torsions:
REMARK  status: ('A' for Active; 'I' for Inactive)
REMARK    1  A    between atoms: C_2  and  C_3 
REMARK    2  A    between atoms: C_3  and  C_4 
REMARK    3  A    between atoms: C_4  and  C_5 
REMARK    4  A    between atoms: C_5  and  N_6 
REMARK       I    between atoms: N_6  and  C_7 
REMARK       I    between atoms: C_7  and  N_9 
REMARK    5  A    between atoms: N_9  and  N_10 
REMARK       I    between atoms: N_10  and  C_11 
REMARK    6  A    between atoms: C_11  and  C_13 
REMARK    7  A    between atoms: C_16  and  O_17 
REMARK    8  A    between atoms: C_19  and  O_20 
REMARK    9  A    between atoms: O_20  and  C_21 
REMARK   10  A    between atoms: C_21  and  C_22 
REMARK   11  A    between atoms: C_22  and  O_23 
ROOT
ATOM      1  N   UNL d   1      23.279 -17.799  -0.783  0.00  0.00    -0.262 N 
ATOM      2  C   UNL d   1      24.635 -17.623  -0.517  0.00  0.00     0.270 C 
ATOM      3  O   UNL d   1      25.278 -18.386   0.209  0.00  0.00    -0.266 OA
ATOM      4  H   UNL d   1      22.748 -17.224  -1.436  0.00  0.00     0.190 HD
ENDROOT
BRANCH   2   5
ATOM      5  C   UNL d   1      25.315 -16.410  -1.098  0.00  0.00     0.036 A 
ATOM      6  C   UNL d   1      26.020 -15.492  -0.307  0.00  0.00     0.020 A 
ATOM      7  C   UNL d   1      26.465 -14.267  -0.851  0.00  0.00     0.040 A 
ATOM      8  C   UNL d   1      26.261 -13.960  -2.204  0.00  0.00     0.101 A 
ATOM      9  C   UNL d   1      25.544 -14.874  -2.993  0.00  0.00     0.103 A 
ATOM     10  C   UNL d   1      25.092 -16.087  -2.437  0.00  0.00     0.056 A 
BRANCH   8  11
ATOM     11  O   UNL d   1      26.801 -12.758  -2.607  0.00  0.00    -0.353 OA
ATOM     12  C   UNL d   1      27.810 -12.167  -1.786  0.00  0.00     0.210 C 
ENDBRANCH   8  11
BRANCH   9  13
ATOM     13  O   UNL d   1      25.271 -14.520  -4.283  0.00  0.00    -0.346 OA
BRANCH  13  14
ATOM     14  C   UNL d   1      25.921 -15.227  -5.324  0.00  0.00     0.201 C 
BRANCH  14  15
ATOM     15  C   UNL d   1      27.405 -14.911  -5.266  0.00  0.00     0.190 C 
BRANCH  15  16
ATOM     16  O   UNL d   1      27.604 -13.514  -5.106  0.00  0.00    -0.399 OA
ATOM     17  H   UNL d   1      26.879 -13.176  -4.551  0.00  0.00     0.209 HD
ENDBRANCH  15  16
ENDBRANCH  14  15
ENDBRANCH  13  14
ENDBRANCH   9  13
ENDBRANCH   2   5
BRANCH   1  18
ATOM     18  N   UNL d   1      22.550 -18.891  -0.204  0.00  0.00    -0.249 N 
ATOM     19  C   UNL d   1      21.203 -19.036  -0.502  0.00  0.00     0.334 C 
ATOM     20  N   UNL d   1      20.582 -20.117   0.098  0.00  0.00    -0.342 N 
ATOM     21  O   UNL d   1      20.612 -18.254  -1.247  0.00  0.00    -0.246 OA
ATOM     22  H   UNL d   1      21.112 -20.727   0.702  0.00  0.00     0.164 HD
ATOM     23  H   UNL d   1      23.072 -19.504   0.413  0.00  0.00     0.192 HD
BRANCH  20  24
ATOM     24  C   UNL d   1      19.163 -20.408  -0.131  0.00  0.00     0.124 C 
BRANCH  24  25
ATOM     25  C   UNL d   1      18.498 -21.228   0.987  0.00  0.00     0.020 C 
BRANCH  25  26
ATOM     26  C   UNL d   1      18.406 -20.439   2.304  0.00  0.00     0.001 C 
BRANCH  26  27
ATOM     27  C   UNL d   1      19.734 -20.450   3.069  0.00  0.00    -0.004 C 
ATOM     28  C   UNL d   1      19.530 -20.825   4.530  0.00  0.00     0.005 C 
ENDBRANCH  26  27
ENDBRANCH  25  26
ENDBRANCH  24  25
ENDBRANCH  20  24
ENDBRANCH   1  18
TORSDOF 11
ENDMDL
MODEL 2
REMARK VINA RESULT:    -6.392      1.688      2.432
REMARK INTER + INTRA:         -12.536
REMARK INTER:                  -9.673
REMARK INTRA:                  -2.862
REMARK CONF_INDEPENDENT:        3.281
REMARK UNBOUND:                -2.862
REMARK  11 active torsions:
REMARK  status: ('A' for Active; 'I' for Inactive)
REMARK    1  A    between atoms: C_2  and  C_3 
REMARK    2  A    between atoms: C_3  and  C_4 
REMARK    3  A    between atoms: C_4  and  C_5 
REMARK    4  A    between atoms: C_5  and  N_6 
REMARK       I    between atoms: N_6  and  C_7 
REMARK       I    between atoms: C_7  and  N_9 
REMARK    5  A    between atoms: N_9  and  N_10 
REMARK       I    between atoms: N_10  and  C_11 
REMARK    6  A    between atoms: C_11  and  C_13 
REMARK    7  A    between atoms: C_16  and  O_17 
REMARK    8  A    between atoms: C_19  and  O_20 
REMARK    9  A    between atoms: O_20  and  C_21 
REMARK   10  A    between atoms: C_21  and  C_22 
REMARK   11  A    between atoms: C_22  and  O_23 
ROOT
ATOM      1  N   UNL d   1      24.064 -16.904  -1.792  0.00  0.00    -0.262 N 
ATOM      2  C   UNL d   1      25.405 -16.552  -1.925  0.00  0.00     0.270 C 
ATOM      3  O   UNL d   1      26.311 -17.130  -1.319  0.00  0.00    -0.266 OA
ATOM      4  H   UNL d   1      23.310 -16.489  -2.338  0.00  0.00     0.190 HD
ENDROOT
BRANCH   2   5
ATOM      5  C   UNL d   1      25.740 -15.372  -2.801  0.00  0.00     0.036 A 
ATOM      6  C   UNL d   1      25.155 -14.110  -2.618  0.00  0.00     0.020 A 
ATOM      7  C   UNL d   1      25.336 -13.090  -3.578  0.00  0.00     0.040 A 
ATOM      8  C   UNL d   1      26.142 -13.292  -4.707  0.00  0.00     0.101 A 
ATOM      9  C   UNL d   1      26.716 -14.559  -4.895  0.00  0.00     0.103 A 
ATOM     10  C   UNL d   1      26.519 -15.575  -3.940  0.00  0.00     0.056 A 
BRANCH   8  11
ATOM     11  O   UNL d   1      26.272 -12.190  -5.524  0.00  0.00    -0.353 OA
ATOM     12  C   UNL d   1      27.346 -11.285  -5.261  0.00  0.00     0.210 C 
ENDBRANCH   8  11
BRANCH   9  13
ATOM     13  O   UNL d   1      27.420 -14.771  -6.046  0.00  0.00    -0.346 OA
BRANCH  13  14
ATOM     14  C   UNL d   1      28.830 -14.649  -6.001  0.00  0.00     0.201 C 
BRANCH  14  15
ATOM     15  C   UNL d   1      29.293 -13.959  -7.273  0.00  0.00     0.190 C 
BRANCH  15  16
ATOM     16  O   UNL d   1      28.324 -13.014  -7.700  0.00  0.00    -0.399 OA
ATOM     17  H   UNL d   1      27.683 -12.903  -6.975  0.00  0.00     0.209 HD
ENDBRANCH  15  16
ENDBRANCH  14  15
ENDBRANCH  13  14
ENDBRANCH   9  13
ENDBRANCH   2   5
BRANCH   1  18
ATOM     18  N   UNL d   1      23.664 -17.970  -0.919  0.00  0.00    -0.249 N 
ATOM     19  C   UNL d   1      22.321 -18.118  -0.604  0.00  0.00     0.334 C 
ATOM     20  N   UNL d   1      22.029 -19.172   0.242  0.00  0.00    -0.342 N 
ATOM     21  O   UNL d   1      21.461 -17.359  -1.051  0.00  0.00    -0.246 OA
ATOM     22  H   UNL d   1      22.773 -19.763   0.581  0.00  0.00     0.164 HD
ATOM     23  H   UNL d   1      24.407 -18.563  -0.564  0.00  0.00     0.192 HD
BRANCH  20  24
ATOM     24  C   UNL d   1      20.652 -19.462   0.655  0.00  0.00     0.124 C 
BRANCH  24  25
ATOM     25  C   UNL d   1      19.654 -19.573  -0.511  0.00  0.00     0.020 C 
BRANCH  25  26
ATOM     26  C   UNL d   1      18.442 -20.450  -0.151  0.00  0.00     0.001 C 
BRANCH  26  27
ATOM     27  C   UNL d   1      18.681 -21.252   1.133  0.00  0.00    -0.004 C 
ATOM     28  C   UNL d   1      18.404 -20.412   2.373  0.00  0.00     0.005 C 
ENDBRANCH  26  27
ENDBRANCH  25  26
ENDBRANCH  24  25
ENDBRANCH  20  24
ENDBRANCH   1  18
TORSDOF 11
ENDMDL
MODEL 3
REMARK VINA RESULT:    -6.192      0.931      1.055
REMARK INTER + INTRA:         -12.579
REMARK INTER:                  -9.473
REMARK INTRA:                  -3.106
REMARK CONF_INDEPENDENT:        3.281
REMARK UNBOUND:                -3.106
REMARK  11 active torsions:
REMARK  status: ('A' for Active; 'I' for Inactive)
REMARK    1  A    between atoms: C_2  and  C_3 
REMARK    2  A    between atoms: C_3  and  C_4 
REMARK    3  A    between atoms: C_4  and  C_5 
REMARK    4  A    between atoms: C_5  and  N_6 
REMARK       I    between atoms: N_6  and  C_7 
REMARK       I    between atoms: C_7  and  N_9 
REMARK    5  A    between atoms: N_9  and  N_10 
REMARK       I    between atoms: N_10  and  C_11 
REMARK    6  A    between atoms: C_11  and  C_13 
REMARK    7  A    between atoms: C_16  and  O_17 
REMARK    8  A    between atoms: C_19  and  O_20 
REMARK    9  A    between atoms: O_20  and  C_21 
REMARK   10  A    between atoms: C_21  and  C_22 
REMARK   11  A    between atoms: C_22  and  O_23 
ROOT
ATOM      1  N   UNL d   1      23.830 -17.527  -0.503  0.00  0.00    -0.262 N 
ATOM      2  C   UNL d   1      25.212 -17.565  -0.332  0.00  0.00     0.270 C 
ATOM      3  O   UNL d   1      25.791 -18.502   0.223  0.00  0.00    -0.266 OA
ATOM      4  H   UNL d   1      23.341 -16.798  -1.023  0.00  0.00     0.190 HD
ENDROOT
BRANCH   2   5
ATOM      5  C   UNL d   1      26.012 -16.373  -0.792  0.00  0.00     0.036 A 
ATOM      6  C   UNL d   1      27.118 -15.889  -0.079  0.00  0.00     0.020 A 
ATOM      7  C   UNL d   1      27.712 -14.656  -0.427  0.00  0.00     0.040 A 
ATOM      8  C   UNL d   1      27.249 -13.911  -1.521  0.00  0.00     0.101 A 
ATOM      9  C   UNL d   1      26.134 -14.391  -2.227  0.00  0.00     0.103 A 
ATOM     10  C   UNL d   1      25.538 -15.615  -1.864  0.00  0.00     0.056 A 
BRANCH   8  11
ATOM     11  O   UNL d   1      27.962 -12.761  -1.776  0.00  0.00    -0.353 OA
ATOM     12  C   UNL d   1      29.384 -12.862  -1.873  0.00  0.00     0.210 C 
ENDBRANCH   8  11
BRANCH   9  13
ATOM     13  O   UNL d   1      25.634 -13.610  -3.229  0.00  0.00    -0.346 OA
BRANCH  13  14
ATOM     14  C   UNL d   1      25.492 -14.182  -4.517  0.00  0.00     0.201 C 
BRANCH  14  15
ATOM     15  C   UNL d   1      26.798 -14.865  -4.886  0.00  0.00     0.190 C 
BRANCH  15  16
ATOM     16  O   UNL d   1      27.895 -14.005  -4.617  0.00  0.00    -0.399 OA
ATOM     17  H   UNL d   1      27.706 -13.541  -3.782  0.00  0.00     0.209 HD
ENDBRANCH  15  16
ENDBRANCH  14  15
ENDBRANCH  13  14
ENDBRANCH   9  13
ENDBRANCH   2   5
BRANCH   1  18
ATOM     18  N   UNL d   1      22.998 -18.593  -0.024  0.00  0.00    -0.249 N 
ATOM     19  C   UNL d   1      21.651 -18.599  -0.355  0.00  0.00     0.334 C 
ATOM     20  N   UNL d   1      20.927 -19.665   0.148  0.00  0.00    -0.342 N 
ATOM     21  O   UNL d   1      21.146 -17.714  -1.047  0.00  0.00    -0.246 OA
ATOM     22  H   UNL d   1      21.389 -20.362   0.712  0.00  0.00     0.164 HD
ATOM     23  H   UNL d   1      23.452 -19.294   0.552  0.00  0.00     0.192 HD
BRANCH  20  24
ATOM     24  C   UNL d   1      19.494 -19.814  -0.127  0.00  0.00     0.124 C 
BRANCH  24  25
ATOM     25  C   UNL d   1      18.924 -21.197   0.229  0.00  0.00     0.020 C 
BRANCH  25  26
ATOM     26  C   UNL d   1      18.082 -21.160   1.516  0.00  0.00     0.001 C 
BRANCH  26  27
ATOM     27  C   UNL d   1      18.568 -20.075   2.483  0.00  0.00    -0.004 C 
ATOM     28  C   UNL d   1      19.902 -20.448   3.114  0.00  0.00     0.005 C 
ENDBRANCH  26  27
ENDBRANCH  25  26
ENDBRANCH  24  25
ENDBRANCH  20  24
ENDBRANCH   1  18
TORSDOF 11
ENDMDL
MODEL 4
REMARK VINA RESULT:    -6.132      2.284      3.548
REMARK INTER + INTRA:         -12.528
REMARK INTER:                  -9.413
REMARK INTRA:                  -3.115
REMARK CONF_INDEPENDENT:        3.281
REMARK UNBOUND:                -3.115
REMARK  11 active torsions:
REMARK  status: ('A' for Active; 'I' for Inactive)
REMARK    1  A    between atoms: C_2  and  C_3 
REMARK    2  A    between atoms: C_3  and  C_4 
REMARK    3  A    between atoms: C_4  and  C_5 
REMARK    4  A    between atoms: C_5  and  N_6 
REMARK       I    between atoms: N_6  and  C_7 
REMARK       I    between atoms: C_7  and  N_9 
REMARK    5  A    between atoms: N_9  and  N_10 
REMARK       I    between atoms: N_10  and  C_11 
REMARK    6  A    between atoms: C_11  and  C_13 
REMARK    7  A    between atoms: C_16  and  O_17 
REMARK    8  A    between atoms: C_19  and  O_20 
REMARK    9  A    between atoms: O_20  and  C_21 
REMARK   10  A    between atoms: C_21  and  C_22 
REMARK   11  A    between atoms: C_22  and  O_23 
ROOT
ATOM      1  N   UNL d   1      24.561 -16.639  -1.905  0.00  0.00    -0.262 N 
ATOM      2  C   UNL d   1      25.533 -15.647  -1.803  0.00  0.00     0.270 C 
ATOM      3  O   UNL d   1      25.688 -14.965  -0.786  0.00  0.00    -0.266 OA
ATOM      4  H   UNL d   1      24.466 -17.262  -2.707  0.00  0.00     0.190 HD
ENDROOT
BRANCH   2   5
ATOM      5  C   UNL d   1      26.382 -15.365  -3.016  0.00  0.00     0.036 A 
ATOM      6  C   UNL d   1      25.835 -14.918  -4.228  0.00  0.00     0.020 A 
ATOM      7  C   UNL d   1      26.628 -14.861  -5.395  0.00  0.00     0.040 A 
ATOM      8  C   UNL d   1      27.989 -15.199  -5.364  0.00  0.00     0.101 A 
ATOM      9  C   UNL d   1      28.531 -15.659  -4.153  0.00  0.00     0.103 A 
ATOM     10  C   UNL d   1      27.729 -15.725  -2.997  0.00  0.00     0.056 A 
BRANCH   8  11
ATOM     11  O   UNL d   1      28.647 -15.040  -6.563  0.00  0.00    -0.353 OA
ATOM     12  C   UNL d   1      28.856 -13.710  -7.042  0.00  0.00     0.210 C 
ENDBRANCH   8  11
BRANCH   9  13
ATOM     13  O   UNL d   1      29.832 -16.074  -4.159  0.00  0.00    -0.346 OA
BRANCH  13  14
ATOM     14  C   UNL d   1      30.106 -17.423  -3.827  0.00  0.00     0.201 C 
BRANCH  14  15
ATOM     15  C   UNL d   1      30.637 -18.125  -5.065  0.00  0.00     0.190 C 
BRANCH  15  16
ATOM     16  O   UNL d   1      30.405 -17.330  -6.218  0.00  0.00    -0.399 OA
ATOM     17  H   UNL d   1      29.993 -16.499  -5.922  0.00  0.00     0.209 HD
ENDBRANCH  15  16
ENDBRANCH  14  15
ENDBRANCH  13  14
ENDBRANCH   9  13
ENDBRANCH   2   5
BRANCH   1  18
ATOM     18  N   UNL d   1      23.669 -16.913  -0.815  0.00  0.00    -0.249 N 
ATOM     19  C   UNL d   1      22.829 -18.014  -0.891  0.00  0.00     0.334 C 
ATOM     20  N   UNL d   1      22.006 -18.201   0.205  0.00  0.00    -0.342 N 
ATOM     21  O   UNL d   1      22.824 -18.764  -1.867  0.00  0.00    -0.246 OA
ATOM     22  H   UNL d   1      22.048 -17.556   0.980  0.00  0.00     0.164 HD
ATOM     23  H   UNL d   1      23.697 -16.263  -0.037  0.00  0.00     0.192 HD
BRANCH  20  24
ATOM     24  C   UNL d   1      21.071 -19.330   0.276  0.00  0.00     0.124 C 
BRANCH  24  25
ATOM     25  C   UNL d   1      20.007 -19.339  -0.833  0.00  0.00     0.020 C 
BRANCH  25  26
ATOM     26  C   UNL d   1      18.729 -20.078  -0.401  0.00  0.00     0.001 C 
BRANCH  26  27
ATOM     27  C   UNL d   1      18.997 -21.052   0.752  0.00  0.00    -0.004 C 
ATOM     28  C   UNL d   1      18.588 -20.454   2.090  0.00  0.00     0.005 C 
ENDBRANCH  26  27
ENDBRANCH  25  26
ENDBRANCH  24  25
ENDBRANCH  20  24
ENDBRANCH   1  18
TORSDOF 11
ENDMDL
MODEL 5
REMARK VINA RESULT:    -6.061      2.495      4.623
REMARK INTER + INTRA:         -12.296
REMARK INTER:                  -9.343
REMARK INTRA:                  -2.953
REMARK CONF_INDEPENDENT:        3.281
REMARK UNBOUND:                -2.953
REMARK  11 active torsions:
REMARK  status: ('A' for Active; 'I' for Inactive)
REMARK    1  A    between atoms: C_2  and  C_3 
REMARK    2  A    between atoms: C_3  and  C_4 
REMARK    3  A    between atoms: C_4  and  C_5 
REMARK    4  A    between atoms: C_5  and  N_6 
REMARK       I    between atoms: N_6  and  C_7 
REMARK       I    between atoms: C_7  and  N_9 
REMARK    5  A    between atoms: N_9  and  N_10 
REMARK       I    between atoms: N_10  and  C_11 
REMARK    6  A    between atoms: C_11  and  C_13 
REMARK    7  A    between atoms: C_16  and  O_17 
REMARK    8  A    between atoms: C_19  and  O_20 
REMARK    9  A    between atoms: O_20  and  C_21 
REMARK   10  A    between atoms: C_21  and  C_22 
REMARK   11  A    between atoms: C_22  and  O_23 
ROOT
ATOM      1  N   UNL d   1      25.201 -15.107  -2.778  0.00  0.00    -0.262 N 
ATOM      2  C   UNL d   1      25.099 -14.212  -3.841  0.00  0.00     0.270 C 
ATOM      3  O   UNL d   1      24.029 -13.700  -4.183  0.00  0.00    -0.266 OA
ATOM      4  H   UNL d   1      26.084 -15.483  -2.434  0.00  0.00     0.190 HD
ENDROOT
BRANCH   2   5
ATOM      5  C   UNL d   1      26.345 -13.919  -4.637  0.00  0.00     0.036 A 
ATOM      6  C   UNL d   1      26.665 -12.629  -5.084  0.00  0.00     0.020 A 
ATOM      7  C   UNL d   1      27.725 -12.428  -5.996  0.00  0.00     0.040 A 
ATOM      8  C   UNL d   1      28.516 -13.500  -6.435  0.00  0.00     0.101 A 
ATOM      9  C   UNL d   1      28.187 -14.792  -5.995  0.00  0.00     0.103 A 
ATOM     10  C   UNL d   1      27.119 -14.984  -5.097  0.00  0.00     0.056 A 
BRANCH   8  11
ATOM     11  O   UNL d   1      29.548 -13.145  -7.274  0.00  0.00    -0.353 OA
ATOM     12  C   UNL d   1      29.216 -12.574  -8.541  0.00  0.00     0.210 C 
ENDBRANCH   8  11
BRANCH   9  13
ATOM     13  O   UNL d   1      28.905 -15.836  -6.504  0.00  0.00    -0.346 OA
BRANCH  13  14
ATOM     14  C   UNL d   1      30.057 -16.263  -5.800  0.00  0.00     0.201 C 
BRANCH  14  15
ATOM     15  C   UNL d   1      31.181 -16.473  -6.800  0.00  0.00     0.190 C 
BRANCH  15  16
ATOM     16  O   UNL d   1      31.197 -15.418  -7.749  0.00  0.00    -0.399 OA
ATOM     17  H   UNL d   1      30.290 -15.071  -7.817  0.00  0.00     0.209 HD
ENDBRANCH  15  16
ENDBRANCH  14  15
ENDBRANCH  13  14
ENDBRANCH   9  13
ENDBRANCH   2   5
BRANCH   1  18
ATOM     18  N   UNL d   1      24.043 -15.489  -2.022  0.00  0.00    -0.249 N 
ATOM     19  C   UNL d   1      24.059 -16.687  -1.322  0.00  0.00     0.334 C 
ATOM     20  N   UNL d   1      22.901 -16.972  -0.621  0.00  0.00    -0.342 N 
ATOM     21  O   UNL d   1      25.037 -17.434  -1.332  0.00  0.00    -0.246 OA
ATOM     22  H   UNL d   1      22.127 -16.326  -0.648  0.00  0.00     0.164 HD
ATOM     23  H   UNL d   1      23.255 -14.850  -2.051  0.00  0.00     0.192 HD
BRANCH  20  24
ATOM     24  C   UNL d   1      22.773 -18.197   0.177  0.00  0.00     0.124 C 
BRANCH  24  25
ATOM     25  C   UNL d   1      21.994 -19.325  -0.520  0.00  0.00     0.020 C 
BRANCH  25  26
ATOM     26  C   UNL d   1      20.518 -18.954  -0.742  0.00  0.00     0.001 C 
BRANCH  26  27
ATOM     27  C   UNL d   1      19.572 -19.940  -0.046  0.00  0.00    -0.004 C 
ATOM     28  C   UNL d   1      19.648 -19.807   1.469  0.00  0.00     0.005 C 
ENDBRANCH  26  27
ENDBRANCH  25  26
ENDBRANCH  24  25
ENDBRANCH  20  24
ENDBRANCH   1  18
TORSDOF 11
ENDMDL
MODEL 6
REMARK VINA RESULT:    -5.832      2.424      4.400
REMARK INTER + INTRA:         -12.053
REMARK INTER:                  -9.113
REMARK INTRA:                  -2.939
REMARK CONF_INDEPENDENT:        3.281
REMARK UNBOUND:                -2.939
REMARK  11 active torsions:
REMARK  status: ('A' for Active; 'I' for Inactive)
REMARK    1  A    between atoms: C_2  and  C_3 
REMARK    2  A    between atoms: C_3  and  C_4 
REMARK    3  A    between atoms: C_4  and  C_5 
REMARK    4  A    between atoms: C_5  and  N_6 
REMARK       I    between atoms: N_6  and  C_7 
REMARK       I    between atoms: C_7  and  N_9 
REMARK    5  A    between atoms: N_9  and  N_10 
REMARK       I    between atoms: N_10  and  C_11 
REMARK    6  A    between atoms: C_11  and  C_13 
REMARK    7  A    between atoms: C_16  and  O_17 
REMARK    8  A    between atoms: C_19  and  O_20 
REMARK    9  A    between atoms: O_20  and  C_21 
REMARK   10  A    between atoms: C_21  and  C_22 
REMARK   11  A    between atoms: C_22  and  O_23 
ROOT
ATOM      1  N   UNL d   1      25.515 -15.971  -2.577  0.00  0.00    -0.262 N 
ATOM      2  C   UNL d   1      25.710 -15.113  -3.657  0.00  0.00     0.270 C 
ATOM      3  O   UNL d   1      24.840 -14.337  -4.061  0.00  0.00    -0.266 OA
ATOM      4  H   UNL d   1      26.244 -16.564  -2.183  0.00  0.00     0.190 HD
ENDROOT
BRANCH   2   5
ATOM      5  C   UNL d   1      27.024 -15.194  -4.392  0.00  0.00     0.036 A 
ATOM      6  C   UNL d   1      28.210 -15.605  -3.767  0.00  0.00     0.020 A 
ATOM      7  C   UNL d   1      29.452 -15.473  -4.427  0.00  0.00     0.040 A 
ATOM      8  C   UNL d   1      29.527 -14.978  -5.737  0.00  0.00     0.101 A 
ATOM      9  C   UNL d   1      28.340 -14.555  -6.356  0.00  0.00     0.103 A 
ATOM     10  C   UNL d   1      27.108 -14.678  -5.685  0.00  0.00     0.056 A 
BRANCH   8  11
ATOM     11  O   UNL d   1      30.796 -14.961  -6.272  0.00  0.00    -0.353 OA
ATOM     12  C   UNL d   1      31.280 -16.157  -6.886  0.00  0.00     0.210 C 
ENDBRANCH   8  11
BRANCH   9  13
ATOM     13  O   UNL d   1      28.439 -13.988  -7.595  0.00  0.00    -0.346 OA
BRANCH  13  14
ATOM     14  C   UNL d   1      28.537 -12.578  -7.680  0.00  0.00     0.201 C 
BRANCH  14  15
ATOM     15  C   UNL d   1      29.814 -12.230  -8.426  0.00  0.00     0.190 C 
BRANCH  15  16
ATOM     16  O   UNL d   1      30.720 -13.322  -8.385  0.00  0.00    -0.399 OA
ATOM     17  H   UNL d   1      30.205 -14.122  -8.177  0.00  0.00     0.209 HD
ENDBRANCH  15  16
ENDBRANCH  14  15
ENDBRANCH  13  14
ENDBRANCH   9  13
ENDBRANCH   2   5
BRANCH   1  18
ATOM     18  N   UNL d   1      24.263 -16.000  -1.876  0.00  0.00    -0.249 N 
ATOM     19  C   UNL d   1      23.899 -17.152  -1.193  0.00  0.00     0.334 C 
ATOM     20  N   UNL d   1      22.678 -17.089  -0.546  0.00  0.00    -0.342 N 
ATOM     21  O   UNL d   1      24.618 -18.151  -1.172  0.00  0.00    -0.246 OA
ATOM     22  H   UNL d   1      22.127 -16.245  -0.596  0.00  0.00     0.164 HD
ATOM     23  H   UNL d   1      23.697 -15.160  -1.930  0.00  0.00     0.192 HD
BRANCH  20  24
ATOM     24  C   UNL d   1      22.164 -18.224   0.228  0.00  0.00     0.124 C 
BRANCH  24  25
ATOM     25  C   UNL d   1      21.512 -19.325  -0.624  0.00  0.00     0.020 C 
BRANCH  25  26
ATOM     26  C   UNL d   1      19.995 -19.418  -0.385  0.00  0.00     0.001 C 
BRANCH  26  27
ATOM     27  C   UNL d   1      19.671 -19.932   1.022  0.00  0.00    -0.004 C 
ATOM     28  C   UNL d   1      18.447 -20.836   1.015  0.00  0.00     0.005 C 
ENDBRANCH  26  27
ENDBRANCH  25  26
ENDBRANCH  24  25
ENDBRANCH  20  24
ENDBRANCH   1  18
TORSDOF 11
ENDMDL
MODEL 7
REMARK VINA RESULT:    -5.813      1.865      2.745
REMARK INTER + INTRA:         -12.195
REMARK INTER:                  -9.094
REMARK INTRA:                  -3.101
REMARK CONF_INDEPENDENT:        3.281
REMARK UNBOUND:                -3.101
REMARK  11 active torsions:
REMARK  status: ('A' for Active; 'I' for Inactive)
REMARK    1  A    between atoms: C_2  and  C_3 
REMARK    2  A    between atoms: C_3  and  C_4 
REMARK    3  A    between atoms: C_4  and  C_5 
REMARK    4  A    between atoms: C_5  and  N_6 
REMARK       I    between atoms: N_6  and  C_7 
REMARK       I    between atoms: C_7  and  N_9 
REMARK    5  A    between atoms: N_9  and  N_10 
REMARK       I    between atoms: N_10  and  C_11 
REMARK    6  A    between atoms: C_11  and  C_13 
REMARK    7  A    between atoms: C_16  and  O_17 
REMARK    8  A    between atoms: C_19  and  O_20 
REMARK    9  A    between atoms: O_20  and  C_21 
REMARK   10  A    between atoms: C_21  and  C_22 
REMARK   11  A    between atoms: C_22  and  O_23 
ROOT
ATOM      1  N   UNL d   1      23.252 -17.974  -0.810  0.00  0.00    -0.262 N 
ATOM      2  C   UNL d   1      24.619 -18.031  -0.547  0.00  0.00     0.270 C 
ATOM      3  O   UNL d   1      25.139 -18.949   0.092  0.00  0.00    -0.266 OA
ATOM      4  H   UNL d   1      22.815 -17.264  -1.397  0.00  0.00     0.190 HD
ENDROOT
BRANCH   2   5
ATOM      5  C   UNL d   1      25.474 -16.881  -1.015  0.00  0.00     0.036 A 
ATOM      6  C   UNL d   1      24.986 -15.878  -1.865  0.00  0.00     0.020 A 
ATOM      7  C   UNL d   1      25.866 -14.937  -2.444  0.00  0.00     0.040 A 
ATOM      8  C   UNL d   1      27.236 -14.947  -2.146  0.00  0.00     0.101 A 
ATOM      9  C   UNL d   1      27.725 -15.959  -1.304  0.00  0.00     0.103 A 
ATOM     10  C   UNL d   1      26.842 -16.902  -0.743  0.00  0.00     0.056 A 
BRANCH   8  11
ATOM     11  O   UNL d   1      27.959 -13.935  -2.737  0.00  0.00    -0.353 OA
ATOM     12  C   UNL d   1      27.956 -13.854  -4.164  0.00  0.00     0.210 C 
ENDBRANCH   8  11
BRANCH   9  13
ATOM     13  O   UNL d   1      29.074 -16.014  -1.098  0.00  0.00    -0.346 OA
BRANCH  13  14
ATOM     14  C   UNL d   1      29.557 -15.858   0.223  0.00  0.00     0.201 C 
BRANCH  14  15
ATOM     15  C   UNL d   1      30.311 -14.542   0.307  0.00  0.00     0.190 C 
BRANCH  15  16
ATOM     16  O   UNL d   1      30.484 -13.992  -0.991  0.00  0.00    -0.399 OA
ATOM     17  H   UNL d   1      29.677 -14.184  -1.500  0.00  0.00     0.209 HD
ENDBRANCH  15  16
ENDBRANCH  14  15
ENDBRANCH  13  14
ENDBRANCH   9  13
ENDBRANCH   2   5
BRANCH   1  18
ATOM     18  N   UNL d   1      22.366 -18.996  -0.332  0.00  0.00    -0.249 N 
ATOM     19  C   UNL d   1      21.012 -18.904  -0.618  0.00  0.00     0.334 C 
ATOM     20  N   UNL d   1      20.235 -19.933  -0.119  0.00  0.00    -0.342 N 
ATOM     21  O   UNL d   1      20.546 -17.969  -1.270  0.00  0.00    -0.246 OA
ATOM     22  H   UNL d   1      20.667 -20.676   0.411  0.00  0.00     0.164 HD
ATOM     23  H   UNL d   1      22.790 -19.741   0.211  0.00  0.00     0.192 HD
BRANCH  20  24
ATOM     24  C   UNL d   1      18.787 -19.980  -0.351  0.00  0.00     0.124 C 
BRANCH  24  25
ATOM     25  C   UNL d   1      18.095 -21.223   0.233  0.00  0.00     0.020 C 
BRANCH  25  26
ATOM     26  C   UNL d   1      18.382 -21.391   1.735  0.00  0.00     0.001 C 
BRANCH  26  27
ATOM     27  C   UNL d   1      18.788 -20.065   2.389  0.00  0.00    -0.004 C 
ATOM     28  C   UNL d   1      20.246 -20.085   2.826  0.00  0.00     0.005 C 
ENDBRANCH  26  27
ENDBRANCH  25  26
ENDBRANCH  24  25
ENDBRANCH  20  24
ENDBRANCH   1  18
TORSDOF 11
ENDMDL
MODEL 8
REMARK VINA RESULT:    -5.581      4.591      9.620
REMARK INTER + INTRA:         -11.922
REMARK INTER:                  -8.863
REMARK INTRA:                  -3.059
REMARK CONF_INDEPENDENT:        3.281
REMARK UNBOUND:                -3.059
REMARK  11 active torsions:
REMARK  status: ('A' for Active; 'I' for Inactive)
REMARK    1  A    between atoms: C_2  and  C_3 
REMARK    2  A    between atoms: C_3  and  C_4 
REMARK    3  A    between atoms: C_4  and  C_5 
REMARK    4  A    between atoms: C_5  and  N_6 
REMARK       I    between atoms: N_6  and  C_7 
REMARK       I    between atoms: C_7  and  N_9 
REMARK    5  A    between atoms: N_9  and  N_10 
REMARK       I    between atoms: N_10  and  C_11 
REMARK    6  A    between atoms: C_11  and  C_13 
REMARK    7  A    between atoms: C_16  and  O_17 
REMARK    8  A    between atoms: C_19  and  O_20 
REMARK    9  A    between atoms: O_20  and  C_21 
REMARK   10  A    between atoms: C_21  and  C_22 
REMARK   11  A    between atoms: C_22  and  O_23 
ROOT
ATOM      1  N   UNL d   1      25.363 -12.948  -3.086  0.00  0.00    -0.262 N 
ATOM      2  C   UNL d   1      25.161 -14.287  -3.412  0.00  0.00     0.270 C 
ATOM      3  O   UNL d   1      24.806 -14.656  -4.535  0.00  0.00    -0.266 OA
ATOM      4  H   UNL d   1      25.725 -12.629  -2.189  0.00  0.00     0.190 HD
ENDROOT
BRANCH   2   5
ATOM      5  C   UNL d   1      25.324 -15.310  -2.317  0.00  0.00     0.036 A 
ATOM      6  C   UNL d   1      26.534 -15.982  -2.091  0.00  0.00     0.020 A 
ATOM      7  C   UNL d   1      26.591 -17.074  -1.197  0.00  0.00     0.040 A 
ATOM      8  C   UNL d   1      25.459 -17.481  -0.476  0.00  0.00     0.101 A 
ATOM      9  C   UNL d   1      24.246 -16.814  -0.713  0.00  0.00     0.103 A 
ATOM     10  C   UNL d   1      24.195 -15.735  -1.617  0.00  0.00     0.056 A 
BRANCH   8  11
ATOM     11  O   UNL d   1      25.680 -18.520   0.401  0.00  0.00    -0.353 OA
ATOM     12  C   UNL d   1      27.031 -18.822   0.755  0.00  0.00     0.210 C 
ENDBRANCH   8  11
BRANCH   9  13
ATOM     13  O   UNL d   1      23.132 -17.281  -0.076  0.00  0.00    -0.346 OA
BRANCH  13  14
ATOM     14  C   UNL d   1      22.089 -17.826  -0.863  0.00  0.00     0.201 C 
BRANCH  14  15
ATOM     15  C   UNL d   1      21.951 -19.301  -0.524  0.00  0.00     0.190 C 
BRANCH  15  16
ATOM     16  O   UNL d   1      23.212 -19.840  -0.158  0.00  0.00    -0.399 OA
ATOM     17  H   UNL d   1      23.757 -19.108   0.180  0.00  0.00     0.209 HD
ENDBRANCH  15  16
ENDBRANCH  14  15
ENDBRANCH  13  14
ENDBRANCH   9  13
ENDBRANCH   2   5
BRANCH   1  18
ATOM     18  N   UNL d   1      25.155 -11.913  -4.059  0.00  0.00    -0.249 N 
ATOM     19  C   UNL d   1      25.654 -10.643  -3.810  0.00  0.00     0.334 C 
ATOM     20  N   UNL d   1      25.408  -9.711  -4.802  0.00  0.00    -0.342 N 
ATOM     21  O   UNL d   1      26.270 -10.376  -2.778  0.00  0.00    -0.246 OA
ATOM     22  H   UNL d   1      24.897  -9.982  -5.628  0.00  0.00     0.164 HD
ATOM     23  H   UNL d   1      24.632 -12.174  -4.889  0.00  0.00     0.192 HD
BRANCH  20  24
ATOM     24  C   UNL d   1      25.885  -8.328  -4.687  0.00  0.00     0.124 C 
BRANCH  24  25
ATOM     25  C   UNL d   1      24.792  -7.265  -4.891  0.00  0.00     0.020 C 
BRANCH  25  26
ATOM     26  C   UNL d   1      23.541  -7.848  -5.571  0.00  0.00     0.001 C 
BRANCH  26  27
ATOM     27  C   UNL d   1      22.947  -6.878  -6.598  0.00  0.00    -0.004 C 
ATOM     28  C   UNL d   1      21.605  -6.330  -6.134  0.00  0.00     0.005 C 
ENDBRANCH  26  27
ENDBRANCH  25  26
ENDBRANCH  24  25
ENDBRANCH  20  24
ENDBRANCH   1  18
TORSDOF 11
ENDMDL
MODEL 9
REMARK VINA RESULT:    -5.558      1.823      2.817
REMARK INTER + INTRA:         -11.929
REMARK INTER:                  -8.839
REMARK INTRA:                  -3.089
REMARK CONF_INDEPENDENT:        3.281
REMARK UNBOUND:                -3.089
REMARK  11 active torsions:
REMARK  status: ('A' for Active; 'I' for Inactive)
REMARK    1  A    between atoms: C_2  and  C_3 
REMARK    2  A    between atoms: C_3  and  C_4 
REMARK    3  A    between atoms: C_4  and  C_5 
REMARK    4  A    between atoms: C_5  and  N_6 
REMARK       I    between atoms: N_6  and  C_7 
REMARK       I    between atoms: C_7  and  N_9 
REMARK    5  A    between atoms: N_9  and  N_10 
REMARK       I    between atoms: N_10  and  C_11 
REMARK    6  A    between atoms: C_11  and  C_13 
REMARK    7  A    between atoms: C_16  and  O_17 
REMARK    8  A    between atoms: C_19  and  O_20 
REMARK    9  A    between atoms: O_20  and  C_21 
REMARK   10  A    between atoms: C_21  and  C_22 
REMARK   11  A    between atoms: C_22  and  O_23 
ROOT
ATOM      1  N   UNL d   1      24.366 -16.871  -1.656  0.00  0.00    -0.262 N 
ATOM      2  C   UNL d   1      25.345 -15.901  -1.451  0.00  0.00     0.270 C 
ATOM      3  O   UNL d   1      25.488 -15.312  -0.376  0.00  0.00    -0.266 OA
ATOM      4  H   UNL d   1      24.279 -17.420  -2.510  0.00  0.00     0.190 HD
ENDROOT
BRANCH   2   5
ATOM      5  C   UNL d   1      26.215 -15.522  -2.621  0.00  0.00     0.036 A 
ATOM      6  C   UNL d   1      27.546 -15.949  -2.738  0.00  0.00     0.020 A 
ATOM      7  C   UNL d   1      28.388 -15.410  -3.736  0.00  0.00     0.040 A 
ATOM      8  C   UNL d   1      27.905 -14.477  -4.665  0.00  0.00     0.101 A 
ATOM      9  C   UNL d   1      26.576 -14.042  -4.539  0.00  0.00     0.103 A 
ATOM     10  C   UNL d   1      25.748 -14.574  -3.532  0.00  0.00     0.056 A 
BRANCH   8  11
ATOM     11  O   UNL d   1      28.823 -14.085  -5.614  0.00  0.00    -0.353 OA
ATOM     12  C   UNL d   1      28.901 -14.841  -6.824  0.00  0.00     0.210 C 
ENDBRANCH   8  11
BRANCH   9  13
ATOM     13  O   UNL d   1      26.147 -13.063  -5.390  0.00  0.00    -0.346 OA
BRANCH  13  14
ATOM     14  C   UNL d   1      25.905 -11.773  -4.860  0.00  0.00     0.201 C 
BRANCH  14  15
ATOM     15  C   UNL d   1      27.013 -10.845  -5.329  0.00  0.00     0.190 C 
BRANCH  15  16
ATOM     16  O   UNL d   1      27.751 -11.453  -6.378  0.00  0.00    -0.399 OA
ATOM     17  H   UNL d   1      28.043 -12.327  -6.063  0.00  0.00     0.209 HD
ENDBRANCH  15  16
ENDBRANCH  14  15
ENDBRANCH  13  14
ENDBRANCH   9  13
ENDBRANCH   2   5
BRANCH   1  18
ATOM     18  N   UNL d   1      23.454 -17.231  -0.608  0.00  0.00    -0.249 N 
ATOM     19  C   UNL d   1      22.595 -18.303  -0.799  0.00  0.00     0.334 C 
ATOM     20  N   UNL d   1      21.753 -18.578   0.264  0.00  0.00    -0.342 N 
ATOM     21  O   UNL d   1      22.591 -18.956  -1.843  0.00  0.00    -0.246 OA
ATOM     22  H   UNL d   1      21.796 -18.011   1.097  0.00  0.00     0.164 HD
ATOM     23  H   UNL d   1      23.483 -16.659   0.230  0.00  0.00     0.192 HD
BRANCH  20  24
ATOM     24  C   UNL d   1      20.798 -19.690   0.215  0.00  0.00     0.124 C 
BRANCH  24  25
ATOM     25  C   UNL d   1      19.417 -19.311  -0.346  0.00  0.00     0.020 C 
BRANCH  25  26
ATOM     26  C   UNL d   1      18.405 -20.462  -0.214  0.00  0.00     0.001 C 
BRANCH  26  27
ATOM     27  C   UNL d   1      18.465 -21.116   1.171  0.00  0.00    -0.004 C 
ATOM     28  C   UNL d   1      18.407 -20.076   2.281  0.00  0.00     0.005 C 
ENDBRANCH  26  27
ENDBRANCH  25  26
ENDBRANCH  24  25
ENDBRANCH  20  24
ENDBRANCH   1  18
TORSDOF 11
ENDMDL
