MODEL 1
REMARK VINA RESULT:    -8.529      0.000      0.000
REMARK INTER + INTRA:         -16.616
REMARK INTER:                 -11.810
REMARK INTRA:                  -4.805
REMARK CONF_INDEPENDENT:        3.281
REMARK UNBOUND:                -4.805
REMARK  11 active torsions:
REMARK  status: ('A' for Active; 'I' for Inactive)
REMARK    1  A    between atoms: CA_4  and  CB_2 
REMARK    2  A    between atoms: CA_4  and  C_31 
REMARK    3  A    between atoms: CA_4  and  N_5 
REMARK       I    between atoms: N_5  and  C_6 
REMARK    4  A    between atoms: C_8  and  C_6 
REMARK    5  A    between atoms: C_8  and  N_19 
REMARK    6  A    between atoms: C_8  and  C_9 
REMARK    7  A    between atoms: C_9  and  C_10 
REMARK       I    between atoms: C_31  and  N_33 
REMARK    8  A    between atoms: CA_34  and  N_33 
REMARK    9  A    between atoms: CA_34  and  CB_38 
REMARK   10  A    between atoms: CA_34  and  C_35 
REMARK   11  A    between atoms: CB_38  and  OG1_40 
ROOT
ATOM      1  C   UNK d   0      26.213 -14.260  -1.360  0.00  0.00     0.188 C 
ENDROOT
BRANCH   1   2
ATOM      2  N   UNK d   0      26.732 -14.538  -2.685  0.00  0.00    -0.252 N 
ATOM      3  C   UNK d   0      25.813 -14.540  -3.726  0.00  0.00     0.330 C 
ATOM      4  O   UNK d   0      24.603 -14.357  -3.588  0.00  0.00    -0.246 OA
ATOM      5  N   UNK d   0      26.320 -14.748  -4.976  0.00  0.00    -0.307 N 
ATOM      6  C   UNK d   0      27.685 -14.834  -5.235  0.00  0.00     0.052 C 
ATOM      7  H   UNK d   0      25.645 -14.726  -5.729  0.00  0.00     0.170 HD
ATOM      8  C   UNK d   0      28.158 -14.925  -6.530  0.00  0.00     0.030 C 
ATOM      9  C   UNK d   0      28.596 -14.756  -4.193  0.00  0.00     0.059 C 
ATOM     10  C   UNK d   0      29.531 -14.787  -6.755  0.00  0.00     0.002 C 
ATOM     11  C   UNK d   0      30.441 -14.816  -5.695  0.00  0.00     0.001 C 
ATOM     12  C   UNK d   0      29.970 -14.848  -4.400  0.00  0.00     0.019 C 
ATOM     13  C   UNK d   0      28.105 -14.505  -2.862  0.00  0.00     0.264 C 
ATOM     14  O   UNK d   0      28.965 -14.282  -1.994  0.00  0.00    -0.267 OA
ENDBRANCH   1   2
BRANCH   1  15
ATOM     15  C   UNK d   0      26.780 -15.151  -0.258  0.00  0.00     0.076 C 
BRANCH  15  16
ATOM     16  C   UNK d   0      26.305 -16.549  -0.252  0.00  0.00    -0.028 A 
ATOM     17  C   UNK d   0      27.017 -17.710  -0.066  0.00  0.00     0.096 A 
ATOM     18  N   UNK d   0      26.128 -18.744  -0.082  0.00  0.00    -0.365 N 
ATOM     19  C   UNK d   0      24.859 -18.279  -0.341  0.00  0.00     0.042 A 
ATOM     20  H   UNK d   0      26.380 -19.711   0.044  0.00  0.00     0.165 HD
ATOM     21  C   UNK d   0      23.656 -18.965  -0.508  0.00  0.00     0.030 A 
ATOM     22  C   UNK d   0      24.939 -16.896  -0.440  0.00  0.00    -0.002 A 
ATOM     23  C   UNK d   0      22.517 -18.205  -0.805  0.00  0.00     0.002 A 
ATOM     24  C   UNK d   0      22.569 -16.815  -0.894  0.00  0.00     0.001 A 
ATOM     25  C   UNK d   0      23.774 -16.144  -0.698  0.00  0.00     0.014 A 
ENDBRANCH  15  16
ENDBRANCH   1  15
BRANCH   1  26
ATOM     26  C   UNK d   0      26.652 -12.837  -1.080  0.00  0.00     0.222 C 
ATOM     27  N   VAL d   1      26.844 -12.103  -2.231  0.00  0.00    -0.247 NA
ATOM     28  H   VAL d   1      27.557 -12.562  -2.799  0.00  0.00     0.131 HD
ATOM     29  O   UNK d   0      26.863 -12.423   0.054  0.00  0.00    -0.278 OA
BRANCH  27  30
ATOM     30  CA  VAL d   1      27.101 -10.652  -2.110  0.00  0.00     0.158 C 
BRANCH  30  31
ATOM     31  C   VAL d   1      25.907  -9.839  -2.715  0.00  0.00     0.236 C 
ATOM     32  O   VAL d   1      25.417 -10.078  -3.827  0.00  0.00    -0.272 OA
ATOM     33  N   THR d   2      25.370  -8.798  -2.018  0.00  0.00    -0.343 N 
ATOM     34  H   THR d   2      24.639  -8.350  -2.560  0.00  0.00     0.163 HD
BRANCH  33  35
ATOM     35  CA  THR d   2      26.009  -7.964  -0.969  0.00  0.00     0.214 C 
BRANCH  35  36
ATOM     36  CB  THR d   2      26.079  -6.495  -1.381  0.00  0.00     0.147 C 
ATOM     37  CG2 THR d   2      27.246  -6.201  -2.333  0.00  0.00     0.042 C 
BRANCH  36  38
ATOM     38  OG1 THR d   2      24.870  -6.130  -2.079  0.00  0.00    -0.393 OA
ATOM     39  HG1 THR d   2      24.132  -6.390  -1.503  0.00  0.00     0.210 HD
ENDBRANCH  36  38
ENDBRANCH  35  36
BRANCH  35  40
ATOM     40  C   THR d   2      25.327  -7.747   0.446  0.00  0.00     0.199 C 
ATOM     41  O   THR d   2      24.731  -6.635   0.601  0.00  0.00    -0.646 OA
ATOM     42  OXT THR d   2      25.467  -8.644   1.315  0.00  0.00    -0.646 OA
ENDBRANCH  35  40
ENDBRANCH  33  35
ENDBRANCH  30  31
BRANCH  30  43
ATOM     43  CB  VAL d   1      28.432 -10.315  -2.903  0.00  0.00     0.004 C 
ATOM     44  CG1 VAL d   1      28.442 -10.927  -4.298  0.00  0.00     0.011 C 
ATOM     45  CG2 VAL d   1      29.851 -10.665  -2.437  0.00  0.00     0.011 C 
ENDBRANCH  30  43
ENDBRANCH  27  30
ENDBRANCH   1  26
TORSDOF 11
ENDMDL
MODEL 2
REMARK VINA RESULT:    -8.497      1.494      5.185
REMARK INTER + INTRA:         -16.133
REMARK INTER:                 -11.778
REMARK INTRA:                  -4.355
REMARK CONF_INDEPENDENT:        3.281
REMARK UNBOUND:                -4.355
REMARK  11 active torsions:
REMARK  status: ('A' for Active; 'I' for Inactive)
REMARK    1  A    between atoms: CA_4  and  CB_2 
REMARK    2  A    between atoms: CA_4  and  C_31 
REMARK    3  A    between atoms: CA_4  and  N_5 
REMARK       I    between atoms: N_5  and  C_6 
REMARK    4  A    between atoms: C_8  and  C_6 
REMARK    5  A    between atoms: C_8  and  N_19 
REMARK    6  A    between atoms: C_8  and  C_9 
REMARK    7  A    between atoms: C_9  and  C_10 
REMARK       I    between atoms: C_31  and  N_33 
REMARK    8  A    between atoms: CA_34  and  N_33 
REMARK    9  A    between atoms: CA_34  and  CB_38 
REMARK   10  A    between atoms: CA_34  and  C_35 
REMARK   11  A    between atoms: CB_38  and  OG1_40 
ROOT
ATOM      1  C   UNK d   0      27.468 -13.580  -3.196  0.00  0.00     0.188 C 
ENDROOT
BRANCH   1   2
ATOM      2  N   UNK d   0      27.118 -14.724  -2.376  0.00  0.00    -0.252 N 
ATOM      3  C   UNK d   0      27.903 -14.946  -1.251  0.00  0.00     0.330 C 
ATOM      4  O   UNK d   0      28.877 -14.262  -0.935  0.00  0.00    -0.246 OA
ATOM      5  N   UNK d   0      27.532 -15.992  -0.457  0.00  0.00    -0.307 N 
ATOM      6  C   UNK d   0      26.372 -16.731  -0.671  0.00  0.00     0.052 C 
ATOM      7  H   UNK d   0      28.097 -16.131   0.371  0.00  0.00     0.170 HD
ATOM      8  C   UNK d   0      25.974 -17.704   0.227  0.00  0.00     0.030 C 
ATOM      9  C   UNK d   0      25.559 -16.450  -1.757  0.00  0.00     0.059 C 
ATOM     10  C   UNK d   0      24.700 -18.264   0.091  0.00  0.00     0.002 C 
ATOM     11  C   UNK d   0      23.940 -18.050  -1.062  0.00  0.00     0.001 C 
ATOM     12  C   UNK d   0      24.395 -17.169  -2.019  0.00  0.00     0.019 C 
ATOM     13  C   UNK d   0      25.897 -15.334  -2.603  0.00  0.00     0.264 C 
ATOM     14  O   UNK d   0      25.055 -15.023  -3.461  0.00  0.00    -0.267 OA
ENDBRANCH   1   2
BRANCH   1  15
ATOM     15  C   UNK d   0      26.908 -13.624  -4.615  0.00  0.00     0.076 C 
BRANCH  15  16
ATOM     16  C   UNK d   0      27.876 -13.961  -5.679  0.00  0.00    -0.028 A 
ATOM     17  C   UNK d   0      28.087 -13.348  -6.890  0.00  0.00     0.096 A 
ATOM     18  N   UNK d   0      29.131 -13.983  -7.496  0.00  0.00    -0.365 N 
ATOM     19  C   UNK d   0      29.558 -15.040  -6.726  0.00  0.00     0.042 A 
ATOM     20  H   UNK d   0      29.506 -13.728  -8.395  0.00  0.00     0.165 HD
ATOM     21  C   UNK d   0      30.544 -15.998  -6.963  0.00  0.00     0.030 A 
ATOM     22  C   UNK d   0      28.792 -15.043  -5.568  0.00  0.00    -0.002 A 
ATOM     23  C   UNK d   0      30.726 -16.991  -5.991  0.00  0.00     0.002 A 
ATOM     24  C   UNK d   0      29.980 -17.005  -4.813  0.00  0.00     0.001 A 
ATOM     25  C   UNK d   0      29.018 -16.025  -4.581  0.00  0.00     0.014 A 
ENDBRANCH  15  16
ENDBRANCH   1  15
BRANCH   1  26
ATOM     26  C   UNK d   0      26.832 -12.404  -2.482  0.00  0.00     0.222 C 
ATOM     27  N   VAL d   1      27.761 -11.571  -1.896  0.00  0.00    -0.247 NA
ATOM     28  H   VAL d   1      28.306 -12.110  -1.222  0.00  0.00     0.131 HD
ATOM     29  O   UNK d   0      25.618 -12.261  -2.399  0.00  0.00    -0.278 OA
BRANCH  27  30
ATOM     30  CA  VAL d   1      27.299 -10.291  -1.318  0.00  0.00     0.158 C 
BRANCH  30  31
ATOM     31  C   VAL d   1      26.315  -9.577  -2.302  0.00  0.00     0.236 C 
ATOM     32  O   VAL d   1      26.089  -9.983  -3.451  0.00  0.00    -0.272 OA
ATOM     33  N   THR d   2      25.671  -8.439  -1.916  0.00  0.00    -0.343 N 
ATOM     34  H   THR d   2      25.107  -8.077  -2.678  0.00  0.00     0.163 HD
BRANCH  33  35
ATOM     35  CA  THR d   2      26.079  -7.455  -0.882  0.00  0.00     0.214 C 
BRANCH  35  36
ATOM     36  CB  THR d   2      25.957  -6.020  -1.388  0.00  0.00     0.147 C 
ATOM     37  CG2 THR d   2      27.136  -5.602  -2.277  0.00  0.00     0.042 C 
BRANCH  36  38
ATOM     38  OG1 THR d   2      24.764  -5.889  -2.189  0.00  0.00    -0.393 OA
ATOM     39  HG1 THR d   2      24.031  -6.227  -1.647  0.00  0.00     0.210 HD
ENDBRANCH  36  38
ENDBRANCH  35  36
BRANCH  35  40
ATOM     40  C   THR d   2      25.251  -7.271   0.458  0.00  0.00     0.199 C 
ATOM     41  O   THR d   2      25.473  -8.135   1.362  0.00  0.00    -0.646 OA
ATOM     42  OXT THR d   2      24.410  -6.338   0.510  0.00  0.00    -0.646 OA
ENDBRANCH  35  40
ENDBRANCH  33  35
ENDBRANCH  30  31
BRANCH  30  43
ATOM     43  CB  VAL d   1      28.567  -9.372  -1.069  0.00  0.00     0.004 C 
ATOM     44  CG1 VAL d   1      29.771  -9.816  -1.891  0.00  0.00     0.011 C 
ATOM     45  CG2 VAL d   1      29.233  -9.133   0.292  0.00  0.00     0.011 C 
ENDBRANCH  30  43
ENDBRANCH  27  30
ENDBRANCH   1  26
TORSDOF 11
ENDMDL
MODEL 3
REMARK VINA RESULT:    -8.336      2.784      5.871
REMARK INTER + INTRA:         -16.518
REMARK INTER:                 -11.618
REMARK INTRA:                  -4.900
REMARK CONF_INDEPENDENT:        3.281
REMARK UNBOUND:                -4.900
REMARK  11 active torsions:
REMARK  status: ('A' for Active; 'I' for Inactive)
REMARK    1  A    between atoms: CA_4  and  CB_2 
REMARK    2  A    between atoms: CA_4  and  C_31 
REMARK    3  A    between atoms: CA_4  and  N_5 
REMARK       I    between atoms: N_5  and  C_6 
REMARK    4  A    between atoms: C_8  and  C_6 
REMARK    5  A    between atoms: C_8  and  N_19 
REMARK    6  A    between atoms: C_8  and  C_9 
REMARK    7  A    between atoms: C_9  and  C_10 
REMARK       I    between atoms: C_31  and  N_33 
REMARK    8  A    between atoms: CA_34  and  N_33 
REMARK    9  A    between atoms: CA_34  and  CB_38 
REMARK   10  A    between atoms: CA_34  and  C_35 
REMARK   11  A    between atoms: CB_38  and  OG1_40 
ROOT
ATOM      1  C   UNK d   0      28.764 -13.618  -0.647  0.00  0.00     0.188 C 
ENDROOT
BRANCH   1   2
ATOM      2  N   UNK d   0      28.466 -13.594   0.772  0.00  0.00    -0.252 N 
ATOM      3  C   UNK d   0      27.146 -13.343   1.126  0.00  0.00     0.330 C 
ATOM      4  O   UNK d   0      26.241 -13.112   0.324  0.00  0.00    -0.246 OA
ATOM      5  N   UNK d   0      26.865 -13.377   2.462  0.00  0.00    -0.307 N 
ATOM      6  C   UNK d   0      27.798 -13.758   3.422  0.00  0.00     0.052 C 
ATOM      7  H   UNK d   0      25.897 -13.215   2.707  0.00  0.00     0.170 HD
ATOM      8  C   UNK d   0      27.436 -13.894   4.749  0.00  0.00     0.030 C 
ATOM      9  C   UNK d   0      29.093 -14.078   3.046  0.00  0.00     0.059 C 
ATOM     10  C   UNK d   0      28.341 -14.486   5.635  0.00  0.00     0.002 C 
ATOM     11  C   UNK d   0      29.670 -14.704   5.267  0.00  0.00     0.001 C 
ATOM     12  C   UNK d   0      30.064 -14.453   3.970  0.00  0.00     0.019 C 
ATOM     13  C   UNK d   0      29.423 -14.085   1.643  0.00  0.00     0.264 C 
ATOM     14  O   UNK d   0      30.542 -14.533   1.346  0.00  0.00    -0.267 OA
ENDBRANCH   1   2
BRANCH   1  15
ATOM     15  C   UNK d   0      27.864 -14.538  -1.468  0.00  0.00     0.076 C 
BRANCH  15  16
ATOM     16  C   UNK d   0      27.683 -15.904  -0.936  0.00  0.00    -0.028 A 
ATOM     17  C   UNK d   0      28.632 -16.845  -0.613  0.00  0.00     0.096 A 
ATOM     18  N   UNK d   0      27.979 -17.927  -0.101  0.00  0.00    -0.365 N 
ATOM     19  C   UNK d   0      26.618 -17.730  -0.147  0.00  0.00     0.042 A 
ATOM     20  H   UNK d   0      28.436 -18.762   0.229  0.00  0.00     0.165 HD
ATOM     21  C   UNK d   0      25.564 -18.573   0.206  0.00  0.00     0.030 A 
ATOM     22  C   UNK d   0      26.403 -16.457  -0.658  0.00  0.00    -0.002 A 
ATOM     23  C   UNK d   0      24.262 -18.096   0.006  0.00  0.00     0.002 A 
ATOM     24  C   UNK d   0      24.021 -16.816  -0.491  0.00  0.00     0.001 A 
ATOM     25  C   UNK d   0      25.085 -15.978  -0.813  0.00  0.00     0.014 A 
ENDBRANCH  15  16
ENDBRANCH   1  15
BRANCH   1  26
ATOM     26  C   UNK d   0      28.513 -12.195  -1.103  0.00  0.00     0.222 C 
ATOM     27  N   VAL d   1      27.905 -12.130  -2.339  0.00  0.00    -0.247 NA
ATOM     28  H   VAL d   1      28.503 -12.594  -3.023  0.00  0.00     0.131 HD
ATOM     29  O   UNK d   0      28.871 -11.221  -0.451  0.00  0.00    -0.278 OA
BRANCH  27  30
ATOM     30  CA  VAL d   1      27.439 -10.816  -2.830  0.00  0.00     0.158 C 
BRANCH  30  31
ATOM     31  C   VAL d   1      26.066 -10.970  -3.565  0.00  0.00     0.236 C 
ATOM     32  O   VAL d   1      25.154 -10.134  -3.483  0.00  0.00    -0.272 OA
ATOM     33  N   THR d   2      25.819 -12.075  -4.325  0.00  0.00    -0.343 N 
ATOM     34  H   THR d   2      24.875 -12.045  -4.695  0.00  0.00     0.163 HD
BRANCH  33  35
ATOM     35  CA  THR d   2      26.437 -13.420  -4.222  0.00  0.00     0.214 C 
BRANCH  35  36
ATOM     36  CB  THR d   2      25.451 -14.525  -4.596  0.00  0.00     0.147 C 
ATOM     37  CG2 THR d   2      25.652 -15.803  -3.773  0.00  0.00     0.042 C 
BRANCH  36  38
ATOM     38  OG1 THR d   2      24.103 -14.075  -4.347  0.00  0.00    -0.393 OA
ATOM     39  HG1 THR d   2      23.911 -13.398  -5.018  0.00  0.00     0.210 HD
ENDBRANCH  36  38
ENDBRANCH  35  36
BRANCH  35  40
ATOM     40  C   THR d   2      27.617 -13.865  -5.183  0.00  0.00     0.199 C 
ATOM     41  O   THR d   2      27.349 -14.825  -5.971  0.00  0.00    -0.646 OA
ATOM     42  OXT THR d   2      28.728 -13.288  -5.064  0.00  0.00    -0.646 OA
ENDBRANCH  35  40
ENDBRANCH  33  35
ENDBRANCH  30  31
BRANCH  30  43
ATOM     43  CB  VAL d   1      28.524 -10.250  -3.839  0.00  0.00     0.004 C 
ATOM     44  CG1 VAL d   1      28.062 -10.334  -5.288  0.00  0.00     0.011 C 
ATOM     45  CG2 VAL d   1      29.961 -10.768  -3.976  0.00  0.00     0.011 C 
ENDBRANCH  30  43
ENDBRANCH  27  30
ENDBRANCH   1  26
TORSDOF 11
ENDMDL
MODEL 4
REMARK VINA RESULT:    -8.263      2.146      5.604
REMARK INTER + INTRA:         -16.265
REMARK INTER:                 -11.544
REMARK INTRA:                  -4.721
REMARK CONF_INDEPENDENT:        3.281
REMARK UNBOUND:                -4.721
REMARK  11 active torsions:
REMARK  status: ('A' for Active; 'I' for Inactive)
REMARK    1  A    between atoms: CA_4  and  CB_2 
REMARK    2  A    between atoms: CA_4  and  C_31 
REMARK    3  A    between atoms: CA_4  and  N_5 
REMARK       I    between atoms: N_5  and  C_6 
REMARK    4  A    between atoms: C_8  and  C_6 
REMARK    5  A    between atoms: C_8  and  N_19 
REMARK    6  A    between atoms: C_8  and  C_9 
REMARK    7  A    between atoms: C_9  and  C_10 
REMARK       I    between atoms: C_31  and  N_33 
REMARK    8  A    between atoms: CA_34  and  N_33 
REMARK    9  A    between atoms: CA_34  and  CB_38 
REMARK   10  A    between atoms: CA_34  and  C_35 
REMARK   11  A    between atoms: CB_38  and  OG1_40 
ROOT
ATOM      1  C   UNK d   0      27.402 -14.077  -2.756  0.00  0.00     0.188 C 
ENDROOT
BRANCH   1   2
ATOM      2  N   UNK d   0      26.932 -15.224  -2.004  0.00  0.00    -0.252 N 
ATOM      3  C   UNK d   0      27.737 -15.655  -0.957  0.00  0.00     0.330 C 
ATOM      4  O   UNK d   0      28.820 -15.151  -0.659  0.00  0.00    -0.246 OA
ATOM      5  N   UNK d   0      27.260 -16.701  -0.221  0.00  0.00    -0.307 N 
ATOM      6  C   UNK d   0      25.991 -17.242  -0.410  0.00  0.00     0.052 C 
ATOM      7  H   UNK d   0      27.844 -16.992   0.551  0.00  0.00     0.170 HD
ATOM      8  C   UNK d   0      25.504 -18.220   0.437  0.00  0.00     0.030 C 
ATOM      9  C   UNK d   0      25.168 -16.752  -1.411  0.00  0.00     0.059 C 
ATOM     10  C   UNK d   0      24.154 -18.574   0.347  0.00  0.00     0.002 C 
ATOM     11  C   UNK d   0      23.369 -18.153  -0.729  0.00  0.00     0.001 C 
ATOM     12  C   UNK d   0      23.896 -17.268  -1.645  0.00  0.00     0.019 C 
ATOM     13  C   UNK d   0      25.621 -15.628  -2.191  0.00  0.00     0.264 C 
ATOM     14  O   UNK d   0      24.787 -15.124  -2.961  0.00  0.00    -0.267 OA
ENDBRANCH   1   2
BRANCH   1  15
ATOM     15  C   UNK d   0      26.856 -13.985  -4.178  0.00  0.00     0.076 C 
BRANCH  15  16
ATOM     16  C   UNK d   0      27.797 -14.356  -5.254  0.00  0.00    -0.028 A 
ATOM     17  C   UNK d   0      27.945 -13.812  -6.507  0.00  0.00     0.096 A 
ATOM     18  N   UNK d   0      28.988 -14.450  -7.111  0.00  0.00    -0.365 N 
ATOM     19  C   UNK d   0      29.477 -15.444  -6.296  0.00  0.00     0.042 A 
ATOM     20  H   UNK d   0      29.323 -14.238  -8.037  0.00  0.00     0.165 HD
ATOM     21  C   UNK d   0      30.486 -16.383  -6.511  0.00  0.00     0.030 A 
ATOM     22  C   UNK d   0      28.752 -15.400  -5.112  0.00  0.00    -0.002 A 
ATOM     23  C   UNK d   0      30.734 -17.309  -5.489  0.00  0.00     0.002 A 
ATOM     24  C   UNK d   0      30.030 -17.275  -4.286  0.00  0.00     0.001 A 
ATOM     25  C   UNK d   0      29.045 -16.313  -4.077  0.00  0.00     0.014 A 
ENDBRANCH  15  16
ENDBRANCH   1  15
BRANCH   1  26
ATOM     26  C   UNK d   0      26.879 -12.885  -1.979  0.00  0.00     0.222 C 
ATOM     27  N   VAL d   1      27.443 -12.777  -0.726  0.00  0.00    -0.247 NA
ATOM     28  H   VAL d   1      27.240 -13.627  -0.200  0.00  0.00     0.131 HD
ATOM     29  O   UNK d   0      26.006 -12.145  -2.417  0.00  0.00    -0.278 OA
BRANCH  27  30
ATOM     30  CA  VAL d   1      27.161 -11.566   0.074  0.00  0.00     0.158 C 
BRANCH  30  31
ATOM     31  C   VAL d   1      27.986 -10.353  -0.472  0.00  0.00     0.236 C 
ATOM     32  O   VAL d   1      28.804 -10.449  -1.398  0.00  0.00    -0.272 OA
ATOM     33  N   THR d   2      27.835  -9.119   0.088  0.00  0.00    -0.343 N 
ATOM     34  H   THR d   2      28.468  -8.455  -0.346  0.00  0.00     0.163 HD
BRANCH  33  35
ATOM     35  CA  THR d   2      27.372  -8.779   1.457  0.00  0.00     0.214 C 
BRANCH  35  36
ATOM     36  CB  THR d   2      28.024  -7.499   1.973  0.00  0.00     0.147 C 
ATOM     37  CG2 THR d   2      29.393  -7.749   2.618  0.00  0.00     0.042 C 
BRANCH  36  38
ATOM     38  OG1 THR d   2      28.241  -6.589   0.873  0.00  0.00    -0.393 OA
ATOM     39  HG1 THR d   2      27.361  -6.365   0.526  0.00  0.00     0.210 HD
ENDBRANCH  36  38
ENDBRANCH  35  36
BRANCH  35  40
ATOM     40  C   THR d   2      25.866  -8.371   1.743  0.00  0.00     0.199 C 
ATOM     41  O   THR d   2      25.530  -7.210   1.353  0.00  0.00    -0.646 OA
ATOM     42  OXT THR d   2      25.141  -9.184   2.371  0.00  0.00    -0.646 OA
ENDBRANCH  35  40
ENDBRANCH  33  35
ENDBRANCH  30  31
BRANCH  30  43
ATOM     43  CB  VAL d   1      27.571 -11.857   1.578  0.00  0.00     0.004 C 
ATOM     44  CG1 VAL d   1      29.071 -12.084   1.732  0.00  0.00     0.011 C 
ATOM     45  CG2 VAL d   1      27.028 -13.005   2.437  0.00  0.00     0.011 C 
ENDBRANCH  30  43
ENDBRANCH  27  30
ENDBRANCH   1  26
TORSDOF 11
ENDMDL
MODEL 5
REMARK VINA RESULT:    -7.231      3.052      7.263
REMARK INTER + INTRA:         -16.383
REMARK INTER:                 -10.512
REMARK INTRA:                  -5.870
REMARK CONF_INDEPENDENT:        3.281
REMARK UNBOUND:                -5.870
REMARK  11 active torsions:
REMARK  status: ('A' for Active; 'I' for Inactive)
REMARK    1  A    between atoms: CA_4  and  CB_2 
REMARK    2  A    between atoms: CA_4  and  C_31 
REMARK    3  A    between atoms: CA_4  and  N_5 
REMARK       I    between atoms: N_5  and  C_6 
REMARK    4  A    between atoms: C_8  and  C_6 
REMARK    5  A    between atoms: C_8  and  N_19 
REMARK    6  A    between atoms: C_8  and  C_9 
REMARK    7  A    between atoms: C_9  and  C_10 
REMARK       I    between atoms: C_31  and  N_33 
REMARK    8  A    between atoms: CA_34  and  N_33 
REMARK    9  A    between atoms: CA_34  and  CB_38 
REMARK   10  A    between atoms: CA_34  and  C_35 
REMARK   11  A    between atoms: CB_38  and  OG1_40 
ROOT
ATOM      1  C   UNK d   0      26.909 -13.710  -3.887  0.00  0.00     0.188 C 
ENDROOT
BRANCH   1   2
ATOM      2  N   UNK d   0      26.198 -14.540  -2.935  0.00  0.00    -0.252 N 
ATOM      3  C   UNK d   0      24.825 -14.654  -3.111  0.00  0.00     0.330 C 
ATOM      4  O   UNK d   0      24.185 -14.076  -3.990  0.00  0.00    -0.246 OA
ATOM      5  N   UNK d   0      24.173 -15.481  -2.242  0.00  0.00    -0.307 N 
ATOM      6  C   UNK d   0      24.837 -16.269  -1.306  0.00  0.00     0.052 C 
ATOM      7  H   UNK d   0      23.178 -15.574  -2.393  0.00  0.00     0.170 HD
ATOM      8  C   UNK d   0      24.146 -17.180  -0.529  0.00  0.00     0.030 C 
ATOM      9  C   UNK d   0      26.216 -16.201  -1.191  0.00  0.00     0.059 C 
ATOM     10  C   UNK d   0      24.874 -18.099   0.235  0.00  0.00     0.002 C 
ATOM     11  C   UNK d   0      26.250 -17.950   0.422  0.00  0.00     0.001 C 
ATOM     12  C   UNK d   0      26.922 -16.960  -0.262  0.00  0.00     0.019 C 
ATOM     13  C   UNK d   0      26.945 -15.363  -2.109  0.00  0.00     0.264 C 
ATOM     14  O   UNK d   0      28.183 -15.460  -2.074  0.00  0.00    -0.267 OA
ENDBRANCH   1   2
BRANCH   1  15
ATOM     15  C   UNK d   0      27.768 -12.617  -3.257  0.00  0.00     0.076 C 
BRANCH  15  16
ATOM     16  C   UNK d   0      27.099 -11.319  -3.035  0.00  0.00    -0.028 A 
ATOM     17  C   UNK d   0      27.030 -10.560  -1.892  0.00  0.00     0.096 A 
ATOM     18  N   UNK d   0      26.357  -9.414  -2.200  0.00  0.00    -0.365 N 
ATOM     19  C   UNK d   0      25.931  -9.447  -3.507  0.00  0.00     0.042 A 
ATOM     20  H   UNK d   0      26.173  -8.671  -1.545  0.00  0.00     0.165 HD
ATOM     21  C   UNK d   0      25.166  -8.538  -4.238  0.00  0.00     0.030 A 
ATOM     22  C   UNK d   0      26.396 -10.632  -4.062  0.00  0.00    -0.002 A 
ATOM     23  C   UNK d   0      24.857  -8.873  -5.563  0.00  0.00     0.002 A 
ATOM     24  C   UNK d   0      25.325 -10.049  -6.147  0.00  0.00     0.001 A 
ATOM     25  C   UNK d   0      26.111 -10.933  -5.411  0.00  0.00     0.014 A 
ENDBRANCH  15  16
ENDBRANCH   1  15
BRANCH   1  26
ATOM     26  C   UNK d   0      27.833 -14.674  -4.602  0.00  0.00     0.222 C 
ATOM     27  N   VAL d   1      29.166 -14.382  -4.403  0.00  0.00    -0.247 NA
ATOM     28  H   VAL d   1      29.349 -13.437  -4.742  0.00  0.00     0.131 HD
ATOM     29  O   UNK d   0      27.418 -15.575  -5.321  0.00  0.00    -0.278 OA
BRANCH  27  30
ATOM     30  CA  VAL d   1      30.181 -15.338  -4.892  0.00  0.00     0.158 C 
BRANCH  30  31
ATOM     31  C   VAL d   1      30.013 -15.565  -6.431  0.00  0.00     0.236 C 
ATOM     32  O   VAL d   1      29.920 -16.688  -6.946  0.00  0.00    -0.272 OA
ATOM     33  N   THR d   2      29.983 -14.497  -7.278  0.00  0.00    -0.343 N 
ATOM     34  H   THR d   2      29.914 -14.812  -8.240  0.00  0.00     0.163 HD
BRANCH  33  35
ATOM     35  CA  THR d   2      30.557 -13.143  -7.074  0.00  0.00     0.214 C 
BRANCH  35  36
ATOM     36  CB  THR d   2      29.487 -12.058  -7.162  0.00  0.00     0.147 C 
ATOM     37  CG2 THR d   2      29.019 -11.801  -8.599  0.00  0.00     0.042 C 
BRANCH  36  38
ATOM     38  OG1 THR d   2      28.323 -12.463  -6.410  0.00  0.00    -0.393 OA
ATOM     39  HG1 THR d   2      28.622 -12.604  -5.496  0.00  0.00     0.210 HD
ENDBRANCH  36  38
ENDBRANCH  35  36
BRANCH  35  40
ATOM     40  C   THR d   2      31.175 -12.709  -5.679  0.00  0.00     0.199 C 
ATOM     41  O   THR d   2      32.335 -13.163  -5.430  0.00  0.00    -0.646 OA
ATOM     42  OXT THR d   2      30.469 -12.008  -4.911  0.00  0.00    -0.646 OA
ENDBRANCH  35  40
ENDBRANCH  33  35
ENDBRANCH  30  31
BRANCH  30  43
ATOM     43  CB  VAL d   1      29.981 -16.711  -4.124  0.00  0.00     0.004 C 
ATOM     44  CG1 VAL d   1      30.666 -16.714  -2.763  0.00  0.00     0.011 C 
ATOM     45  CG2 VAL d   1      30.403 -18.088  -4.650  0.00  0.00     0.011 C 
ENDBRANCH  30  43
ENDBRANCH  27  30
ENDBRANCH   1  26
TORSDOF 11
ENDMDL
MODEL 6
REMARK VINA RESULT:    -6.623      3.630      5.684
REMARK INTER + INTRA:         -16.155
REMARK INTER:                  -9.904
REMARK INTRA:                  -6.251
REMARK CONF_INDEPENDENT:        3.281
REMARK UNBOUND:                -6.251
REMARK  11 active torsions:
REMARK  status: ('A' for Active; 'I' for Inactive)
REMARK    1  A    between atoms: CA_4  and  CB_2 
REMARK    2  A    between atoms: CA_4  and  C_31 
REMARK    3  A    between atoms: CA_4  and  N_5 
REMARK       I    between atoms: N_5  and  C_6 
REMARK    4  A    between atoms: C_8  and  C_6 
REMARK    5  A    between atoms: C_8  and  N_19 
REMARK    6  A    between atoms: C_8  and  C_9 
REMARK    7  A    between atoms: C_9  and  C_10 
REMARK       I    between atoms: C_31  and  N_33 
REMARK    8  A    between atoms: CA_34  and  N_33 
REMARK    9  A    between atoms: CA_34  and  CB_38 
REMARK   10  A    between atoms: CA_34  and  C_35 
REMARK   11  A    between atoms: CB_38  and  OG1_40 
ROOT
ATOM      1  C   UNK d   0      28.844 -13.584  -0.408  0.00  0.00     0.188 C 
ENDROOT
BRANCH   1   2
ATOM      2  N   UNK d   0      28.516 -13.576   1.004  0.00  0.00    -0.252 N 
ATOM      3  C   UNK d   0      27.187 -13.342   1.333  0.00  0.00     0.330 C 
ATOM      4  O   UNK d   0      26.297 -13.113   0.514  0.00  0.00    -0.246 OA
ATOM      5  N   UNK d   0      26.878 -13.392   2.662  0.00  0.00    -0.307 N 
ATOM      6  C   UNK d   0      27.794 -13.773   3.638  0.00  0.00     0.052 C 
ATOM      7  H   UNK d   0      25.903 -13.243   2.887  0.00  0.00     0.170 HD
ATOM      8  C   UNK d   0      27.405 -13.925   4.955  0.00  0.00     0.030 C 
ATOM      9  C   UNK d   0      29.100 -14.075   3.286  0.00  0.00     0.059 C 
ATOM     10  C   UNK d   0      28.297 -14.516   5.855  0.00  0.00     0.002 C 
ATOM     11  C   UNK d   0      29.637 -14.716   5.514  0.00  0.00     0.001 C 
ATOM     12  C   UNK d   0      30.055 -14.449   4.228  0.00  0.00     0.019 C 
ATOM     13  C   UNK d   0      29.460 -14.065   1.891  0.00  0.00     0.264 C 
ATOM     14  O   UNK d   0      30.590 -14.499   1.614  0.00  0.00    -0.267 OA
ENDBRANCH   1   2
BRANCH   1  15
ATOM     15  C   UNK d   0      27.903 -14.418  -1.273  0.00  0.00     0.076 C 
BRANCH  15  16
ATOM     16  C   UNK d   0      27.607 -15.777  -0.776  0.00  0.00    -0.028 A 
ATOM     17  C   UNK d   0      28.461 -16.718  -0.252  0.00  0.00     0.096 A 
ATOM     18  N   UNK d   0      27.709 -17.791   0.124  0.00  0.00    -0.365 N 
ATOM     19  C   UNK d   0      26.389 -17.589  -0.206  0.00  0.00     0.042 A 
ATOM     20  H   UNK d   0      28.082 -18.623   0.552  0.00  0.00     0.165 HD
ATOM     21  C   UNK d   0      25.279 -18.423  -0.072  0.00  0.00     0.030 A 
ATOM     22  C   UNK d   0      26.293 -16.321  -0.765  0.00  0.00    -0.002 A 
ATOM     23  C   UNK d   0      24.050 -17.944  -0.544  0.00  0.00     0.002 A 
ATOM     24  C   UNK d   0      23.927 -16.669  -1.094  0.00  0.00     0.001 A 
ATOM     25  C   UNK d   0      25.040 -15.838  -1.196  0.00  0.00     0.014 A 
ENDBRANCH  15  16
ENDBRANCH   1  15
BRANCH   1  26
ATOM     26  C   UNK d   0      28.701 -12.135  -0.829  0.00  0.00     0.222 C 
ATOM     27  N   VAL d   1      28.624 -11.273   0.244  0.00  0.00    -0.247 NA
ATOM     28  H   VAL d   1      27.819 -11.531   0.815  0.00  0.00     0.131 HD
ATOM     29  O   UNK d   0      28.609 -11.796  -2.003  0.00  0.00    -0.278 OA
BRANCH  27  30
ATOM     30  CA  VAL d   1      28.661  -9.818  -0.013  0.00  0.00     0.158 C 
BRANCH  30  31
ATOM     31  C   VAL d   1      29.356  -9.076   1.177  0.00  0.00     0.236 C 
ATOM     32  O   VAL d   1      30.389  -8.404   1.048  0.00  0.00    -0.272 OA
ATOM     33  N   THR d   2      28.837  -9.169   2.435  0.00  0.00    -0.343 N 
ATOM     34  H   THR d   2      29.424  -8.672   3.096  0.00  0.00     0.163 HD
BRANCH  33  35
ATOM     35  CA  THR d   2      27.980 -10.241   3.000  0.00  0.00     0.214 C 
BRANCH  35  36
ATOM     36  CB  THR d   2      28.038 -10.264   4.526  0.00  0.00     0.147 C 
ATOM     37  CG2 THR d   2      29.337 -10.877   5.061  0.00  0.00     0.042 C 
BRANCH  36  38
ATOM     38  OG1 THR d   2      27.974  -8.914   5.033  0.00  0.00    -0.393 OA
ATOM     39  HG1 THR d   2      27.030  -8.692   5.105  0.00  0.00     0.210 HD
ENDBRANCH  36  38
ENDBRANCH  35  36
BRANCH  35  40
ATOM     40  C   THR d   2      26.401 -10.200   2.856  0.00  0.00     0.199 C 
ATOM     41  O   THR d   2      25.897 -11.093   2.105  0.00  0.00    -0.646 OA
ATOM     42  OXT THR d   2      25.777  -9.275   3.435  0.00  0.00    -0.646 OA
ENDBRANCH  35  40
ENDBRANCH  33  35
ENDBRANCH  30  31
BRANCH  30  43
ATOM     43  CB  VAL d   1      27.169  -9.302  -0.166  0.00  0.00     0.004 C 
ATOM     44  CG1 VAL d   1      26.722  -9.257  -1.622  0.00  0.00     0.011 C 
ATOM     45  CG2 VAL d   1      26.647  -7.947   0.327  0.00  0.00     0.011 C 
ENDBRANCH  30  43
ENDBRANCH  27  30
ENDBRANCH   1  26
TORSDOF 11
ENDMDL
MODEL 7
REMARK VINA RESULT:    -6.556      2.585      6.681
REMARK INTER + INTRA:         -16.217
REMARK INTER:                  -9.837
REMARK INTRA:                  -6.380
REMARK CONF_INDEPENDENT:        3.281
REMARK UNBOUND:                -6.380
REMARK  11 active torsions:
REMARK  status: ('A' for Active; 'I' for Inactive)
REMARK    1  A    between atoms: CA_4  and  CB_2 
REMARK    2  A    between atoms: CA_4  and  C_31 
REMARK    3  A    between atoms: CA_4  and  N_5 
REMARK       I    between atoms: N_5  and  C_6 
REMARK    4  A    between atoms: C_8  and  C_6 
REMARK    5  A    between atoms: C_8  and  N_19 
REMARK    6  A    between atoms: C_8  and  C_9 
REMARK    7  A    between atoms: C_9  and  C_10 
REMARK       I    between atoms: C_31  and  N_33 
REMARK    8  A    between atoms: CA_34  and  N_33 
REMARK    9  A    between atoms: CA_34  and  CB_38 
REMARK   10  A    between atoms: CA_34  and  C_35 
REMARK   11  A    between atoms: CB_38  and  OG1_40 
ROOT
ATOM      1  C   UNK d   0      27.933 -15.304  -4.023  0.00  0.00     0.188 C 
ENDROOT
BRANCH   1   2
ATOM      2  N   UNK d   0      27.353 -13.975  -3.980  0.00  0.00    -0.252 N 
ATOM      3  C   UNK d   0      25.997 -13.878  -4.265  0.00  0.00     0.330 C 
ATOM      4  O   UNK d   0      25.281 -14.830  -4.577  0.00  0.00    -0.246 OA
ATOM      5  N   UNK d   0      25.450 -12.631  -4.169  0.00  0.00    -0.307 N 
ATOM      6  C   UNK d   0      26.157 -11.529  -3.698  0.00  0.00     0.052 C 
ATOM      7  H   UNK d   0      24.458 -12.576  -4.357  0.00  0.00     0.170 HD
ATOM      8  C   UNK d   0      25.529 -10.312  -3.505  0.00  0.00     0.030 C 
ATOM      9  C   UNK d   0      27.492 -11.656  -3.347  0.00  0.00     0.059 C 
ATOM     10  C   UNK d   0      26.218  -9.301  -2.828  0.00  0.00     0.002 C 
ATOM     11  C   UNK d   0      27.588  -9.407  -2.578  0.00  0.00     0.001 C 
ATOM     12  C   UNK d   0      28.243 -10.580  -2.883  0.00  0.00     0.019 C 
ATOM     13  C   UNK d   0      28.100 -12.962  -3.404  0.00  0.00     0.264 C 
ATOM     14  O   UNK d   0      29.242 -13.054  -2.927  0.00  0.00    -0.267 OA
ENDBRANCH   1   2
BRANCH   1  15
ATOM     15  C   UNK d   0      29.456 -15.327  -4.113  0.00  0.00     0.076 C 
BRANCH  15  16
ATOM     16  C   UNK d   0      30.018 -15.611  -5.449  0.00  0.00    -0.028 A 
ATOM     17  C   UNK d   0      30.272 -14.748  -6.488  0.00  0.00     0.096 A 
ATOM     18  N   UNK d   0      30.850 -15.470  -7.489  0.00  0.00    -0.365 N 
ATOM     19  C   UNK d   0      30.916 -16.800  -7.143  0.00  0.00     0.042 A 
ATOM     20  H   UNK d   0      31.151 -15.081  -8.368  0.00  0.00     0.165 HD
ATOM     21  C   UNK d   0      31.366 -17.906  -7.864  0.00  0.00     0.030 A 
ATOM     22  C   UNK d   0      30.409 -16.916  -5.856  0.00  0.00    -0.002 A 
ATOM     23  C   UNK d   0      31.270 -19.161  -7.247  0.00  0.00     0.002 A 
ATOM     24  C   UNK d   0      30.779 -19.300  -5.950  0.00  0.00     0.001 A 
ATOM     25  C   UNK d   0      30.359 -18.182  -5.235  0.00  0.00     0.014 A 
ENDBRANCH  15  16
ENDBRANCH   1  15
BRANCH   1  26
ATOM     26  C   UNK d   0      27.536 -15.923  -2.698  0.00  0.00     0.222 C 
ATOM     27  N   VAL d   1      26.880 -15.037  -1.870  0.00  0.00    -0.247 NA
ATOM     28  H   VAL d   1      27.493 -14.241  -1.691  0.00  0.00     0.131 HD
ATOM     29  O   UNK d   0      27.827 -17.074  -2.395  0.00  0.00    -0.278 OA
BRANCH  27  30
ATOM     30  CA  VAL d   1      26.278 -15.548  -0.621  0.00  0.00     0.158 C 
BRANCH  30  31
ATOM     31  C   VAL d   1      27.371 -16.233   0.265  0.00  0.00     0.236 C 
ATOM     32  O   VAL d   1      27.442 -17.459   0.431  0.00  0.00    -0.272 OA
ATOM     33  N   THR d   2      28.296 -15.471   0.917  0.00  0.00    -0.343 N 
ATOM     34  H   THR d   2      28.902 -16.058   1.480  0.00  0.00     0.163 HD
BRANCH  33  35
ATOM     35  CA  THR d   2      28.189 -14.051   1.336  0.00  0.00     0.214 C 
BRANCH  35  36
ATOM     36  CB  THR d   2      29.235 -13.179   0.646  0.00  0.00     0.147 C 
ATOM     37  CG2 THR d   2      30.599 -13.222   1.347  0.00  0.00     0.042 C 
BRANCH  36  38
ATOM     38  OG1 THR d   2      29.445 -13.649  -0.703  0.00  0.00    -0.393 OA
ATOM     39  HG1 THR d   2      28.562 -13.808  -1.078  0.00  0.00     0.210 HD
ENDBRANCH  36  38
ENDBRANCH  35  36
BRANCH  35  40
ATOM     40  C   THR d   2      26.919 -13.174   0.971  0.00  0.00     0.199 C 
ATOM     41  O   THR d   2      26.866 -12.760  -0.229  0.00  0.00    -0.646 OA
ATOM     42  OXT THR d   2      26.100 -12.908   1.887  0.00  0.00    -0.646 OA
ENDBRANCH  35  40
ENDBRANCH  33  35
ENDBRANCH  30  31
BRANCH  30  43
ATOM     43  CB  VAL d   1      25.160 -16.606  -1.004  0.00  0.00     0.004 C 
ATOM     44  CG1 VAL d   1      23.942 -15.950  -1.641  0.00  0.00     0.011 C 
ATOM     45  CG2 VAL d   1      24.477 -17.565  -0.022  0.00  0.00     0.011 C 
ENDBRANCH  30  43
ENDBRANCH  27  30
ENDBRANCH   1  26
TORSDOF 11
ENDMDL
MODEL 8
REMARK VINA RESULT:    -6.503      2.249      6.018
REMARK INTER + INTRA:         -16.389
REMARK INTER:                  -9.784
REMARK INTRA:                  -6.605
REMARK CONF_INDEPENDENT:        3.281
REMARK UNBOUND:                -6.605
REMARK  11 active torsions:
REMARK  status: ('A' for Active; 'I' for Inactive)
REMARK    1  A    between atoms: CA_4  and  CB_2 
REMARK    2  A    between atoms: CA_4  and  C_31 
REMARK    3  A    between atoms: CA_4  and  N_5 
REMARK       I    between atoms: N_5  and  C_6 
REMARK    4  A    between atoms: C_8  and  C_6 
REMARK    5  A    between atoms: C_8  and  N_19 
REMARK    6  A    between atoms: C_8  and  C_9 
REMARK    7  A    between atoms: C_9  and  C_10 
REMARK       I    between atoms: C_31  and  N_33 
REMARK    8  A    between atoms: CA_34  and  N_33 
REMARK    9  A    between atoms: CA_34  and  CB_38 
REMARK   10  A    between atoms: CA_34  and  C_35 
REMARK   11  A    between atoms: CB_38  and  OG1_40 
ROOT
ATOM      1  C   UNK d   0      27.464 -15.070  -3.616  0.00  0.00     0.188 C 
ENDROOT
BRANCH   1   2
ATOM      2  N   UNK d   0      26.323 -15.396  -2.782  0.00  0.00    -0.252 N 
ATOM      3  C   UNK d   0      25.104 -14.844  -3.153  0.00  0.00     0.330 C 
ATOM      4  O   UNK d   0      24.945 -14.084  -4.109  0.00  0.00    -0.246 OA
ATOM      5  N   UNK d   0      24.026 -15.201  -2.394  0.00  0.00    -0.307 N 
ATOM      6  C   UNK d   0      24.096 -16.153  -1.382  0.00  0.00     0.052 C 
ATOM      7  H   UNK d   0      23.140 -14.811  -2.687  0.00  0.00     0.170 HD
ATOM      8  C   UNK d   0      22.956 -16.570  -0.720  0.00  0.00     0.030 C 
ATOM      9  C   UNK d   0      25.307 -16.751  -1.071  0.00  0.00     0.059 C 
ATOM     10  C   UNK d   0      23.040 -17.677   0.130  0.00  0.00     0.002 C 
ATOM     11  C   UNK d   0      24.278 -18.198   0.512  0.00  0.00     0.001 C 
ATOM     12  C   UNK d   0      25.428 -17.699  -0.059  0.00  0.00     0.019 C 
ATOM     13  C   UNK d   0      26.463 -16.426  -1.868  0.00  0.00     0.264 C 
ATOM     14  O   UNK d   0      27.481 -17.105  -1.657  0.00  0.00    -0.267 OA
ENDBRANCH   1   2
BRANCH   1  15
ATOM     15  C   UNK d   0      27.123 -14.804  -5.080  0.00  0.00     0.076 C 
BRANCH  15  16
ATOM     16  C   UNK d   0      28.270 -14.748  -6.008  0.00  0.00    -0.028 A 
ATOM     17  C   UNK d   0      28.506 -13.883  -7.050  0.00  0.00     0.096 A 
ATOM     18  N   UNK d   0      29.729 -14.189  -7.569  0.00  0.00    -0.365 N 
ATOM     19  C   UNK d   0      30.262 -15.281  -6.924  0.00  0.00     0.042 A 
ATOM     20  H   UNK d   0      30.157 -13.700  -8.339  0.00  0.00     0.165 HD
ATOM     21  C   UNK d   0      31.448 -15.980  -7.148  0.00  0.00     0.030 A 
ATOM     22  C   UNK d   0      29.369 -15.647  -5.926  0.00  0.00    -0.002 A 
ATOM     23  C   UNK d   0      31.704 -17.094  -6.337  0.00  0.00     0.002 A 
ATOM     24  C   UNK d   0      30.830 -17.471  -5.319  0.00  0.00     0.001 A 
ATOM     25  C   UNK d   0      29.663 -16.745  -5.091  0.00  0.00     0.014 A 
ENDBRANCH  15  16
ENDBRANCH   1  15
BRANCH   1  26
ATOM     26  C   UNK d   0      28.001 -13.783  -3.023  0.00  0.00     0.222 C 
ATOM     27  N   VAL d   1      27.004 -12.886  -2.705  0.00  0.00    -0.247 NA
ATOM     28  H   VAL d   1      26.480 -12.665  -3.552  0.00  0.00     0.131 HD
ATOM     29  O   UNK d   0      29.201 -13.564  -2.901  0.00  0.00    -0.278 OA
BRANCH  27  30
ATOM     30  CA  VAL d   1      27.364 -11.664  -1.957  0.00  0.00     0.158 C 
BRANCH  30  31
ATOM     31  C   VAL d   1      28.539 -10.917  -2.673  0.00  0.00     0.236 C 
ATOM     32  O   VAL d   1      29.678 -10.826  -2.195  0.00  0.00    -0.272 OA
ATOM     33  N   THR d   2      28.327 -10.310  -3.876  0.00  0.00    -0.343 N 
ATOM     34  H   THR d   2      29.170  -9.837  -4.184  0.00  0.00     0.163 HD
BRANCH  33  35
ATOM     35  CA  THR d   2      27.051  -9.807  -4.442  0.00  0.00     0.214 C 
BRANCH  35  36
ATOM     36  CB  THR d   2      26.566 -10.674  -5.601  0.00  0.00     0.147 C 
ATOM     37  CG2 THR d   2      27.419 -10.506  -6.864  0.00  0.00     0.042 C 
BRANCH  36  38
ATOM     38  OG1 THR d   2      26.642 -12.067  -5.229  0.00  0.00    -0.393 OA
ATOM     39  HG1 THR d   2      25.936 -12.215  -4.577  0.00  0.00     0.210 HD
ENDBRANCH  36  38
ENDBRANCH  35  36
BRANCH  35  40
ATOM     40  C   THR d   2      25.708  -9.824  -3.598  0.00  0.00     0.199 C 
ATOM     41  O   THR d   2      25.157 -10.962  -3.468  0.00  0.00    -0.646 OA
ATOM     42  OXT THR d   2      25.261  -8.728  -3.173  0.00  0.00    -0.646 OA
ENDBRANCH  35  40
ENDBRANCH  33  35
ENDBRANCH  30  31
BRANCH  30  43
ATOM     43  CB  VAL d   1      27.813 -12.088  -0.496  0.00  0.00     0.004 C 
ATOM     44  CG1 VAL d   1      27.010 -13.271   0.032  0.00  0.00     0.011 C 
ATOM     45  CG2 VAL d   1      27.799 -11.173   0.734  0.00  0.00     0.011 C 
ENDBRANCH  30  43
ENDBRANCH  27  30
ENDBRANCH   1  26
TORSDOF 11
ENDMDL
MODEL 9
REMARK VINA RESULT:    -5.907      2.025      3.166
REMARK INTER + INTRA:         -16.273
REMARK INTER:                  -9.188
REMARK INTRA:                  -7.085
REMARK CONF_INDEPENDENT:        3.281
REMARK UNBOUND:                -7.085
REMARK  11 active torsions:
REMARK  status: ('A' for Active; 'I' for Inactive)
REMARK    1  A    between atoms: CA_4  and  CB_2 
REMARK    2  A    between atoms: CA_4  and  C_31 
REMARK    3  A    between atoms: CA_4  and  N_5 
REMARK       I    between atoms: N_5  and  C_6 
REMARK    4  A    between atoms: C_8  and  C_6 
REMARK    5  A    between atoms: C_8  and  N_19 
REMARK    6  A    between atoms: C_8  and  C_9 
REMARK    7  A    between atoms: C_9  and  C_10 
REMARK       I    between atoms: C_31  and  N_33 
REMARK    8  A    between atoms: CA_34  and  N_33 
REMARK    9  A    between atoms: CA_34  and  CB_38 
REMARK   10  A    between atoms: CA_34  and  C_35 
REMARK   11  A    between atoms: CB_38  and  OG1_40 
ROOT
ATOM      1  C   UNK d   0      26.041 -14.675  -3.110  0.00  0.00     0.188 C 
ENDROOT
BRANCH   1   2
ATOM      2  N   UNK d   0      27.331 -15.030  -3.668  0.00  0.00    -0.252 N 
ATOM      3  C   UNK d   0      27.367 -15.296  -5.031  0.00  0.00     0.330 C 
ATOM      4  O   UNK d   0      26.382 -15.281  -5.770  0.00  0.00    -0.246 OA
ATOM      5  N   UNK d   0      28.595 -15.575  -5.558  0.00  0.00    -0.307 N 
ATOM      6  C   UNK d   0      29.773 -15.485  -4.821  0.00  0.00     0.052 C 
ATOM      7  H   UNK d   0      28.613 -15.746  -6.555  0.00  0.00     0.170 HD
ATOM      8  C   UNK d   0      31.003 -15.660  -5.425  0.00  0.00     0.030 C 
ATOM      9  C   UNK d   0      29.729 -15.146  -3.478  0.00  0.00     0.059 C 
ATOM     10  C   UNK d   0      32.158 -15.346  -4.701  0.00  0.00     0.002 C 
ATOM     11  C   UNK d   0      32.103 -15.110  -3.326  0.00  0.00     0.001 C 
ATOM     12  C   UNK d   0      30.878 -15.055  -2.697  0.00  0.00     0.019 C 
ATOM     13  C   UNK d   0      28.455 -14.813  -2.890  0.00  0.00     0.264 C 
ATOM     14  O   UNK d   0      28.488 -14.360  -1.735  0.00  0.00    -0.267 OA
ENDBRANCH   1   2
BRANCH   1  15
ATOM     15  C   UNK d   0      25.950 -14.809  -1.592  0.00  0.00     0.076 C 
BRANCH  15  16
ATOM     16  C   UNK d   0      25.795 -16.184  -1.075  0.00  0.00    -0.028 A 
ATOM     17  C   UNK d   0      26.759 -17.082  -0.685  0.00  0.00     0.096 A 
ATOM     18  N   UNK d   0      26.120 -18.195  -0.221  0.00  0.00    -0.365 N 
ATOM     19  C   UNK d   0      24.759 -18.059  -0.365  0.00  0.00     0.042 A 
ATOM     20  H   UNK d   0      26.590 -19.009   0.141  0.00  0.00     0.165 HD
ATOM     21  C   UNK d   0      23.722 -18.950  -0.089  0.00  0.00     0.030 A 
ATOM     22  C   UNK d   0      24.524 -16.795  -0.890  0.00  0.00    -0.002 A 
ATOM     23  C   UNK d   0      22.417 -18.532  -0.382  0.00  0.00     0.002 A 
ATOM     24  C   UNK d   0      22.155 -17.262  -0.895  0.00  0.00     0.001 A 
ATOM     25  C   UNK d   0      23.200 -16.376  -1.139  0.00  0.00     0.014 A 
ENDBRANCH  15  16
ENDBRANCH   1  15
BRANCH   1  26
ATOM     26  C   UNK d   0      25.876 -13.210  -3.457  0.00  0.00     0.222 C 
ATOM     27  N   VAL d   1      27.082 -12.564  -3.627  0.00  0.00    -0.247 NA
ATOM     28  H   VAL d   1      27.619 -12.639  -2.762  0.00  0.00     0.131 HD
ATOM     29  O   UNK d   0      24.780 -12.666  -3.520  0.00  0.00    -0.278 OA
BRANCH  27  30
ATOM     30  CA  VAL d   1      27.077 -11.178  -4.142  0.00  0.00     0.158 C 
BRANCH  30  31
ATOM     31  C   VAL d   1      26.246 -10.252  -3.192  0.00  0.00     0.236 C 
ATOM     32  O   VAL d   1      25.218  -9.659  -3.550  0.00  0.00    -0.272 OA
ATOM     33  N   THR d   2      26.654 -10.051  -1.907  0.00  0.00    -0.343 N 
ATOM     34  H   THR d   2      26.037  -9.395  -1.440  0.00  0.00     0.163 HD
BRANCH  33  35
ATOM     35  CA  THR d   2      28.024 -10.171  -1.347  0.00  0.00     0.214 C 
BRANCH  35  36
ATOM     36  CB  THR d   2      28.108 -11.275  -0.295  0.00  0.00     0.147 C 
ATOM     37  CG2 THR d   2      27.665 -10.805   1.096  0.00  0.00     0.042 C 
BRANCH  36  38
ATOM     38  OG1 THR d   2      27.235 -12.364  -0.665  0.00  0.00    -0.393 OA
ATOM     39  HG1 THR d   2      27.596 -12.738  -1.486  0.00  0.00     0.210 HD
ENDBRANCH  36  38
ENDBRANCH  35  36
BRANCH  35  40
ATOM     40  C   THR d   2      29.245 -10.647  -2.241  0.00  0.00     0.199 C 
ATOM     41  O   THR d   2      29.426 -11.903  -2.296  0.00  0.00    -0.646 OA
ATOM     42  OXT THR d   2      29.966  -9.766  -2.774  0.00  0.00    -0.646 OA
ENDBRANCH  35  40
ENDBRANCH  33  35
ENDBRANCH  30  31
BRANCH  30  43
ATOM     43  CB  VAL d   1      26.424 -11.187  -5.587  0.00  0.00     0.004 C 
ATOM     44  CG1 VAL d   1      27.308 -11.885  -6.613  0.00  0.00     0.011 C 
ATOM     45  CG2 VAL d   1      26.011  -9.940  -6.378  0.00  0.00     0.011 C 
ENDBRANCH  30  43
ENDBRANCH  27  30
ENDBRANCH   1  26
TORSDOF 11
ENDMDL
