MODEL 1
REMARK VINA RESULT:    -9.382      0.000      0.000
REMARK INTER + INTRA:         -11.936
REMARK INTER:                 -11.171
REMARK INTRA:                  -0.765
REMARK CONF_INDEPENDENT:        1.790
REMARK UNBOUND:                -0.765
REMARK  6 active torsions:
REMARK  status: ('A' for Active; 'I' for Inactive)
REMARK    1  A    between atoms: C_6  and  N_7 
REMARK    2  A    between atoms: C_14  and  C_15 
REMARK    3  A    between atoms: C_15  and  C_16 
REMARK    4  A    between atoms: C_16  and  N_17 
REMARK    5  A    between atoms: N_20  and  C_21 
REMARK    6  A    between atoms: C_24  and  N_25 
ROOT
ATOM      1  C   UNL d   1      27.899 -14.098   1.262  0.00  0.00     0.238 C 
ENDROOT
BRANCH   1   2
ATOM      2  C   UNL d   1      27.972 -14.580   2.715  0.00  0.00     0.070 C 
BRANCH   2   3
ATOM      3  C   UNL d   1      28.937 -13.762   3.592  0.00  0.00     0.222 C 
ATOM      4  O   UNL d   1      29.432 -12.689   2.795  0.00  0.00    -0.334 OA
ATOM      5  C   UNL d   1      28.674 -11.550   2.848  0.00  0.00     0.096 A 
ATOM      6  C   UNL d   1      28.870 -10.626   1.824  0.00  0.00     0.041 A 
ATOM      7  C   UNL d   1      27.770 -11.283   3.883  0.00  0.00     0.070 A 
ATOM      8  C   UNL d   1      28.151  -9.430   1.822  0.00  0.00     0.039 A 
ATOM      9  C   UNL d   1      27.237  -9.170   2.854  0.00  0.00     0.105 A 
ATOM     10  C   UNL d   1      27.039 -10.097   3.890  0.00  0.00     0.068 A 
ATOM     11  N   UNL d   1      27.616 -12.196   4.927  0.00  0.00    -0.322 N 
ATOM     12  C   UNL d   1      28.252 -13.407   4.913  0.00  0.00     0.251 C 
ATOM     13  H   UNL d   1      27.078 -11.963   5.754  0.00  0.00     0.169 HD
ATOM     14  O   UNL d   1      28.133 -14.222   5.818  0.00  0.00    -0.270 OA
BRANCH   9  15
ATOM     15  N   UNL d   1      26.481  -7.912   2.853  0.00  0.00    -0.116 N 
ATOM     16  O   UNL d   1      25.714  -7.703   1.908  0.00  0.00    -0.532 OA
ATOM     17  O   UNL d   1      26.655  -7.145   3.813  0.00  0.00    -0.532 OA
ENDBRANCH   9  15
ENDBRANCH   2   3
ENDBRANCH   1   2
BRANCH   1  18
ATOM     18  N   UNL d   1      27.633 -15.251   0.287  0.00  0.00    -0.068 N 
ATOM     19  C   UNL d   1      27.239 -16.566   0.982  0.00  0.00     0.254 C 
ATOM     20  C   UNL d   1      26.892 -17.679  -0.017  0.00  0.00     0.150 C 
ATOM     21  N   UNL d   1      25.875 -17.244  -0.971  0.00  0.00    -0.378 N 
ATOM     22  C   UNL d   1      26.244 -16.042  -1.737  0.00  0.00     0.150 C 
ATOM     23  C   UNL d   1      26.572 -14.855  -0.784  0.00  0.00     0.254 C 
ATOM     24  H   UNL d   1      28.512 -15.418  -0.223  0.00  0.00     0.280 HD
BRANCH  21  25
ATOM     25  C   UNL d   1      24.551 -17.639  -0.875  0.00  0.00     0.030 A 
ATOM     26  C   UNL d   1      23.529 -16.682  -1.010  0.00  0.00     0.032 A 
ATOM     27  C   UNL d   1      22.168 -17.012  -0.894  0.00  0.00     0.038 A 
ATOM     28  C   UNL d   1      21.795 -18.343  -0.699  0.00  0.00     0.103 A 
ATOM     29  C   UNL d   1      22.784 -19.322  -0.565  0.00  0.00     0.038 A 
ATOM     30  C   UNL d   1      24.146 -18.967  -0.663  0.00  0.00     0.032 A 
BRANCH  28  31
ATOM     31  N   UNL d   1      20.371 -18.719  -0.699  0.00  0.00    -0.116 N 
ATOM     32  O   UNL d   1      19.538 -17.824  -0.895  0.00  0.00    -0.532 OA
ATOM     33  O   UNL d   1      20.093 -19.914  -0.521  0.00  0.00    -0.532 OA
ENDBRANCH  28  31
ENDBRANCH  21  25
ENDBRANCH   1  18
TORSDOF 6
ENDMDL
MODEL 2
REMARK VINA RESULT:    -9.352      0.964      1.255
REMARK INTER + INTRA:         -11.942
REMARK INTER:                 -11.142
REMARK INTRA:                  -0.800
REMARK CONF_INDEPENDENT:        1.790
REMARK UNBOUND:                -0.800
REMARK  6 active torsions:
REMARK  status: ('A' for Active; 'I' for Inactive)
REMARK    1  A    between atoms: C_6  and  N_7 
REMARK    2  A    between atoms: C_14  and  C_15 
REMARK    3  A    between atoms: C_15  and  C_16 
REMARK    4  A    between atoms: C_16  and  N_17 
REMARK    5  A    between atoms: N_20  and  C_21 
REMARK    6  A    between atoms: C_24  and  N_25 
ROOT
ATOM      1  C   UNL d   1      28.009 -14.885   2.425  0.00  0.00     0.238 C 
ENDROOT
BRANCH   1   2
ATOM      2  C   UNL d   1      27.513 -13.450   2.634  0.00  0.00     0.070 C 
BRANCH   2   3
ATOM      3  C   UNL d   1      28.583 -12.499   3.200  0.00  0.00     0.222 C 
ATOM      4  O   UNL d   1      28.898 -11.555   2.178  0.00  0.00    -0.334 OA
ATOM      5  C   UNL d   1      28.119 -10.429   2.191  0.00  0.00     0.096 A 
ATOM      6  C   UNL d   1      28.106  -9.670   1.023  0.00  0.00     0.041 A 
ATOM      7  C   UNL d   1      27.394 -10.015   3.315  0.00  0.00     0.070 A 
ATOM      8  C   UNL d   1      27.355  -8.495   0.967  0.00  0.00     0.039 A 
ATOM      9  C   UNL d   1      26.620  -8.090   2.092  0.00  0.00     0.105 A 
ATOM     10  C   UNL d   1      26.634  -8.849   3.272  0.00  0.00     0.068 A 
ATOM     11  N   UNL d   1      27.453 -10.760   4.494  0.00  0.00    -0.322 N 
ATOM     12  C   UNL d   1      28.119 -11.952   4.551  0.00  0.00     0.251 C 
ATOM     13  H   UNL d   1      27.055 -10.408   5.358  0.00  0.00     0.169 HD
ATOM     14  O   UNL d   1      28.184 -12.621   5.574  0.00  0.00    -0.270 OA
BRANCH   9  15
ATOM     15  N   UNL d   1      25.831  -6.854   2.034  0.00  0.00    -0.116 N 
ATOM     16  O   UNL d   1      25.833  -6.123   3.029  0.00  0.00    -0.532 OA
ATOM     17  O   UNL d   1      25.223  -6.617   0.978  0.00  0.00    -0.532 OA
ENDBRANCH   9  15
ENDBRANCH   2   3
ENDBRANCH   1   2
BRANCH   1  18
ATOM     18  N   UNL d   1      27.656 -15.418   1.032  0.00  0.00    -0.068 N 
ATOM     19  C   UNL d   1      27.408 -16.936   0.998  0.00  0.00     0.254 C 
ATOM     20  C   UNL d   1      26.968 -17.430  -0.388  0.00  0.00     0.150 C 
ATOM     21  N   UNL d   1      25.817 -16.681  -0.884  0.00  0.00    -0.378 N 
ATOM     22  C   UNL d   1      26.034 -15.227  -0.964  0.00  0.00     0.150 C 
ATOM     23  C   UNL d   1      26.445 -14.648   0.421  0.00  0.00     0.254 C 
ATOM     24  H   UNL d   1      28.463 -15.220   0.424  0.00  0.00     0.280 HD
BRANCH  21  25
ATOM     25  C   UNL d   1      24.532 -17.201  -0.871  0.00  0.00     0.030 A 
ATOM     26  C   UNL d   1      23.430 -16.330  -0.927  0.00  0.00     0.032 A 
ATOM     27  C   UNL d   1      22.103 -16.792  -0.889  0.00  0.00     0.038 A 
ATOM     28  C   UNL d   1      21.851 -18.164  -0.855  0.00  0.00     0.103 A 
ATOM     29  C   UNL d   1      22.923 -19.060  -0.803  0.00  0.00     0.038 A 
ATOM     30  C   UNL d   1      24.248 -18.575  -0.822  0.00  0.00     0.032 A 
BRANCH  28  31
ATOM     31  N   UNL d   1      20.467 -18.664  -0.939  0.00  0.00    -0.116 N 
ATOM     32  O   UNL d   1      19.551 -17.832  -0.897  0.00  0.00    -0.532 OA
ATOM     33  O   UNL d   1      20.305 -19.886  -1.065  0.00  0.00    -0.532 OA
ENDBRANCH  28  31
ENDBRANCH  21  25
ENDBRANCH   1  18
TORSDOF 6
ENDMDL
MODEL 3
REMARK VINA RESULT:    -9.220      2.309      8.906
REMARK INTER + INTRA:         -11.971
REMARK INTER:                 -11.010
REMARK INTRA:                  -0.961
REMARK CONF_INDEPENDENT:        1.790
REMARK UNBOUND:                -0.961
REMARK  6 active torsions:
REMARK  status: ('A' for Active; 'I' for Inactive)
REMARK    1  A    between atoms: C_6  and  N_7 
REMARK    2  A    between atoms: C_14  and  C_15 
REMARK    3  A    between atoms: C_15  and  C_16 
REMARK    4  A    between atoms: C_16  and  N_17 
REMARK    5  A    between atoms: N_20  and  C_21 
REMARK    6  A    between atoms: C_24  and  N_25 
ROOT
ATOM      1  C   UNL d   1      29.345 -15.562   0.405  0.00  0.00     0.238 C 
ENDROOT
BRANCH   1   2
ATOM      2  C   UNL d   1      28.392 -15.039  -0.676  0.00  0.00     0.070 C 
BRANCH   2   3
ATOM      3  C   UNL d   1      28.095 -16.061  -1.789  0.00  0.00     0.222 C 
ATOM      4  O   UNL d   1      27.655 -17.262  -1.159  0.00  0.00    -0.334 OA
ATOM      5  C   UNL d   1      26.303 -17.331  -0.957  0.00  0.00     0.096 A 
ATOM      6  C   UNL d   1      25.862 -18.266  -0.024  0.00  0.00     0.041 A 
ATOM      7  C   UNL d   1      25.385 -16.544  -1.663  0.00  0.00     0.070 A 
ATOM      8  C   UNL d   1      24.495 -18.411   0.220  0.00  0.00     0.039 A 
ATOM      9  C   UNL d   1      23.579 -17.612  -0.481  0.00  0.00     0.105 A 
ATOM     10  C   UNL d   1      24.019 -16.672  -1.425  0.00  0.00     0.068 A 
ATOM     11  N   UNL d   1      25.838 -15.643  -2.628  0.00  0.00    -0.322 N 
ATOM     12  C   UNL d   1      27.172 -15.427  -2.832  0.00  0.00     0.251 C 
ATOM     13  H   UNL d   1      25.190 -15.168  -3.249  0.00  0.00     0.169 HD
ATOM     14  O   UNL d   1      27.591 -14.644  -3.674  0.00  0.00    -0.270 OA
BRANCH   9  15
ATOM     15  N   UNL d   1      22.142 -17.766  -0.226  0.00  0.00    -0.116 N 
ATOM     16  O   UNL d   1      21.362 -17.081  -0.895  0.00  0.00    -0.532 OA
ATOM     17  O   UNL d   1      21.803 -18.588   0.641  0.00  0.00    -0.532 OA
ENDBRANCH   9  15
ENDBRANCH   2   3
ENDBRANCH   1   2
BRANCH   1  18
ATOM     18  N   UNL d   1      29.139 -14.849   1.746  0.00  0.00    -0.068 N 
ATOM     19  C   UNL d   1      29.987 -13.575   1.902  0.00  0.00     0.254 C 
ATOM     20  C   UNL d   1      29.695 -12.831   3.214  0.00  0.00     0.150 C 
ATOM     21  N   UNL d   1      28.270 -12.556   3.370  0.00  0.00    -0.378 N 
ATOM     22  C   UNL d   1      27.418 -13.756   3.325  0.00  0.00     0.150 C 
ATOM     23  C   UNL d   1      27.631 -14.542   1.999  0.00  0.00     0.254 C 
ATOM     24  H   UNL d   1      29.428 -15.509   2.482  0.00  0.00     0.280 HD
BRANCH  21  25
ATOM     25  C   UNL d   1      27.729 -11.300   3.150  0.00  0.00     0.030 A 
ATOM     26  C   UNL d   1      27.211 -10.979   1.882  0.00  0.00     0.032 A 
ATOM     27  C   UNL d   1      26.675  -9.713   1.586  0.00  0.00     0.038 A 
ATOM     28  C   UNL d   1      26.589  -8.749   2.591  0.00  0.00     0.103 A 
ATOM     29  C   UNL d   1      27.090  -9.035   3.864  0.00  0.00     0.038 A 
ATOM     30  C   UNL d   1      27.644 -10.304   4.136  0.00  0.00     0.032 A 
BRANCH  28  31
ATOM     31  N   UNL d   1      25.919  -7.464   2.327  0.00  0.00    -0.116 N 
ATOM     32  O   UNL d   1      25.155  -7.402   1.354  0.00  0.00    -0.532 OA
ATOM     33  O   UNL d   1      26.146  -6.527   3.106  0.00  0.00    -0.532 OA
ENDBRANCH  28  31
ENDBRANCH  21  25
ENDBRANCH   1  18
TORSDOF 6
ENDMDL
MODEL 4
REMARK VINA RESULT:    -8.919      3.141      8.255
REMARK INTER + INTRA:         -11.843
REMARK INTER:                 -10.709
REMARK INTRA:                  -1.135
REMARK CONF_INDEPENDENT:        1.790
REMARK UNBOUND:                -1.135
REMARK  6 active torsions:
REMARK  status: ('A' for Active; 'I' for Inactive)
REMARK    1  A    between atoms: C_6  and  N_7 
REMARK    2  A    between atoms: C_14  and  C_15 
REMARK    3  A    between atoms: C_15  and  C_16 
REMARK    4  A    between atoms: C_16  and  N_17 
REMARK    5  A    between atoms: N_20  and  C_21 
REMARK    6  A    between atoms: C_24  and  N_25 
ROOT
ATOM      1  C   UNL d   1      28.100 -16.636  -0.077  0.00  0.00     0.238 C 
ENDROOT
BRANCH   1   2
ATOM      2  C   UNL d   1      26.890 -17.326   0.563  0.00  0.00     0.070 C 
BRANCH   2   3
ATOM      3  C   UNL d   1      25.545 -16.658   0.225  0.00  0.00     0.222 C 
ATOM      4  O   UNL d   1      25.810 -15.286  -0.062  0.00  0.00    -0.334 OA
ATOM      5  C   UNL d   1      26.087 -15.028  -1.377  0.00  0.00     0.096 A 
ATOM      6  C   UNL d   1      26.721 -13.818  -1.652  0.00  0.00     0.041 A 
ATOM      7  C   UNL d   1      25.730 -15.895  -2.417  0.00  0.00     0.070 A 
ATOM      8  C   UNL d   1      27.015 -13.473  -2.972  0.00  0.00     0.039 A 
ATOM      9  C   UNL d   1      26.666 -14.350  -4.011  0.00  0.00     0.105 A 
ATOM     10  C   UNL d   1      26.024 -15.568  -3.739  0.00  0.00     0.068 A 
ATOM     11  N   UNL d   1      25.053 -17.082  -2.132  0.00  0.00    -0.322 N 
ATOM     12  C   UNL d   1      24.821 -17.479  -0.845  0.00  0.00     0.251 C 
ATOM     13  H   UNL d   1      24.660 -17.654  -2.873  0.00  0.00     0.169 HD
ATOM     14  O   UNL d   1      24.229 -18.514  -0.572  0.00  0.00    -0.270 OA
BRANCH   9  15
ATOM     15  N   UNL d   1      26.974 -13.987  -5.399  0.00  0.00    -0.116 N 
ATOM     16  O   UNL d   1      26.816 -12.808  -5.733  0.00  0.00    -0.532 OA
ATOM     17  O   UNL d   1      27.387 -14.889  -6.144  0.00  0.00    -0.532 OA
ENDBRANCH   9  15
ENDBRANCH   2   3
ENDBRANCH   1   2
BRANCH   1  18
ATOM     18  N   UNL d   1      28.749 -15.620   0.869  0.00  0.00    -0.068 N 
ATOM     19  C   UNL d   1      29.284 -14.367   0.154  0.00  0.00     0.254 C 
ATOM     20  C   UNL d   1      29.847 -13.326   1.132  0.00  0.00     0.150 C 
ATOM     21  N   UNL d   1      28.877 -12.985   2.169  0.00  0.00    -0.378 N 
ATOM     22  C   UNL d   1      28.403 -14.138   2.952  0.00  0.00     0.150 C 
ATOM     23  C   UNL d   1      27.780 -15.222   2.024  0.00  0.00     0.254 C 
ATOM     24  H   UNL d   1      29.549 -16.093   1.312  0.00  0.00     0.280 HD
BRANCH  21  25
ATOM     25  C   UNL d   1      28.154 -11.803   2.148  0.00  0.00     0.030 A 
ATOM     26  C   UNL d   1      27.761 -11.208   3.360  0.00  0.00     0.032 A 
ATOM     27  C   UNL d   1      27.003 -10.025   3.407  0.00  0.00     0.038 A 
ATOM     28  C   UNL d   1      26.671  -9.371   2.220  0.00  0.00     0.103 A 
ATOM     29  C   UNL d   1      27.048  -9.932   0.996  0.00  0.00     0.038 A 
ATOM     30  C   UNL d   1      27.792 -11.131   0.970  0.00  0.00     0.032 A 
BRANCH  28  31
ATOM     31  N   UNL d   1      25.983  -8.069   2.261  0.00  0.00    -0.116 N 
ATOM     32  O   UNL d   1      26.283  -7.287   3.173  0.00  0.00    -0.532 OA
ATOM     33  O   UNL d   1      25.159  -7.827   1.368  0.00  0.00    -0.532 OA
ENDBRANCH  28  31
ENDBRANCH  21  25
ENDBRANCH   1  18
TORSDOF 6
ENDMDL
MODEL 5
REMARK VINA RESULT:    -8.874      3.137     10.077
REMARK INTER + INTRA:         -11.420
REMARK INTER:                 -10.664
REMARK INTRA:                  -0.757
REMARK CONF_INDEPENDENT:        1.790
REMARK UNBOUND:                -0.757
REMARK  6 active torsions:
REMARK  status: ('A' for Active; 'I' for Inactive)
REMARK    1  A    between atoms: C_6  and  N_7 
REMARK    2  A    between atoms: C_14  and  C_15 
REMARK    3  A    between atoms: C_15  and  C_16 
REMARK    4  A    between atoms: C_16  and  N_17 
REMARK    5  A    between atoms: N_20  and  C_21 
REMARK    6  A    between atoms: C_24  and  N_25 
ROOT
ATOM      1  C   UNL d   1      28.721 -14.580   1.672  0.00  0.00     0.238 C 
ENDROOT
BRANCH   1   2
ATOM      2  C   UNL d   1      27.379 -14.898   1.004  0.00  0.00     0.070 C 
BRANCH   2   3
ATOM      3  C   UNL d   1      27.515 -15.533  -0.392  0.00  0.00     0.222 C 
ATOM      4  O   UNL d   1      27.187 -16.915  -0.265  0.00  0.00    -0.334 OA
ATOM      5  C   UNL d   1      25.859 -17.198  -0.442  0.00  0.00     0.096 A 
ATOM      6  C   UNL d   1      25.417 -18.428   0.040  0.00  0.00     0.041 A 
ATOM      7  C   UNL d   1      24.976 -16.335  -1.103  0.00  0.00     0.070 A 
ATOM      8  C   UNL d   1      24.081 -18.798  -0.124  0.00  0.00     0.039 A 
ATOM      9  C   UNL d   1      23.197 -17.926  -0.776  0.00  0.00     0.105 A 
ATOM     10  C   UNL d   1      23.639 -16.688  -1.267  0.00  0.00     0.068 A 
ATOM     11  N   UNL d   1      25.442 -15.126  -1.622  0.00  0.00    -0.322 N 
ATOM     12  C   UNL d   1      26.726 -14.707  -1.409  0.00  0.00     0.251 C 
ATOM     13  H   UNL d   1      24.860 -14.554  -2.225  0.00  0.00     0.169 HD
ATOM     14  O   UNL d   1      27.156 -13.652  -1.857  0.00  0.00    -0.270 OA
BRANCH   9  15
ATOM     15  N   UNL d   1      21.793 -18.316  -0.950  0.00  0.00    -0.116 N 
ATOM     16  O   UNL d   1      20.938 -17.426  -0.895  0.00  0.00    -0.532 OA
ATOM     17  O   UNL d   1      21.558 -19.517  -1.155  0.00  0.00    -0.532 OA
ENDBRANCH   9  15
ENDBRANCH   2   3
ENDBRANCH   1   2
BRANCH   1  18
ATOM     18  N   UNL d   1      28.669 -14.786   3.190  0.00  0.00    -0.068 N 
ATOM     19  C   UNL d   1      29.986 -14.437   3.905  0.00  0.00     0.254 C 
ATOM     20  C   UNL d   1      29.880 -14.565   5.431  0.00  0.00     0.150 C 
ATOM     21  N   UNL d   1      28.757 -13.795   5.958  0.00  0.00    -0.378 N 
ATOM     22  C   UNL d   1      27.454 -14.158   5.377  0.00  0.00     0.150 C 
ATOM     23  C   UNL d   1      27.475 -14.011   3.828  0.00  0.00     0.254 C 
ATOM     24  H   UNL d   1      28.483 -15.786   3.349  0.00  0.00     0.280 HD
BRANCH  21  25
ATOM     25  C   UNL d   1      28.929 -12.578   6.599  0.00  0.00     0.030 A 
ATOM     26  C   UNL d   1      29.172 -11.421   5.837  0.00  0.00     0.032 A 
ATOM     27  C   UNL d   1      29.383 -10.162   6.428  0.00  0.00     0.038 A 
ATOM     28  C   UNL d   1      29.290 -10.026   7.813  0.00  0.00     0.103 A 
ATOM     29  C   UNL d   1      29.046 -11.155   8.601  0.00  0.00     0.038 A 
ATOM     30  C   UNL d   1      28.857 -12.413   7.991  0.00  0.00     0.032 A 
BRANCH  28  31
ATOM     31  N   UNL d   1      29.387  -8.693   8.433  0.00  0.00    -0.116 N 
ATOM     32  O   UNL d   1      29.960  -8.607   9.527  0.00  0.00    -0.532 OA
ATOM     33  O   UNL d   1      28.906  -7.735   7.812  0.00  0.00    -0.532 OA
ENDBRANCH  28  31
ENDBRANCH  21  25
ENDBRANCH   1  18
TORSDOF 6
ENDMDL
MODEL 6
REMARK VINA RESULT:    -8.725      3.709      8.525
REMARK INTER + INTRA:         -11.515
REMARK INTER:                 -10.515
REMARK INTRA:                  -1.000
REMARK CONF_INDEPENDENT:        1.790
REMARK UNBOUND:                -1.000
REMARK  6 active torsions:
REMARK  status: ('A' for Active; 'I' for Inactive)
REMARK    1  A    between atoms: C_6  and  N_7 
REMARK    2  A    between atoms: C_14  and  C_15 
REMARK    3  A    between atoms: C_15  and  C_16 
REMARK    4  A    between atoms: C_16  and  N_17 
REMARK    5  A    between atoms: N_20  and  C_21 
REMARK    6  A    between atoms: C_24  and  N_25 
ROOT
ATOM      1  C   UNL d   1      31.269 -15.143   1.754  0.00  0.00     0.238 C 
ENDROOT
BRANCH   1   2
ATOM      2  C   UNL d   1      30.783 -15.208   0.301  0.00  0.00     0.070 C 
BRANCH   2   3
ATOM      3  C   UNL d   1      30.378 -16.621  -0.155  0.00  0.00     0.222 C 
ATOM      4  O   UNL d   1      28.956 -16.702  -0.081  0.00  0.00    -0.334 OA
ATOM      5  C   UNL d   1      28.308 -16.321  -1.225  0.00  0.00     0.096 A 
ATOM      6  C   UNL d   1      26.957 -16.008  -1.098  0.00  0.00     0.041 A 
ATOM      7  C   UNL d   1      28.933 -16.275  -2.477  0.00  0.00     0.070 A 
ATOM      8  C   UNL d   1      26.222 -15.633  -2.224  0.00  0.00     0.039 A 
ATOM      9  C   UNL d   1      26.855 -15.577  -3.475  0.00  0.00     0.105 A 
ATOM     10  C   UNL d   1      28.216 -15.895  -3.608  0.00  0.00     0.068 A 
ATOM     11  N   UNL d   1      30.277 -16.636  -2.598  0.00  0.00    -0.322 N 
ATOM     12  C   UNL d   1      31.036 -16.933  -1.501  0.00  0.00     0.251 C 
ATOM     13  H   UNL d   1      30.710 -16.747  -3.508  0.00  0.00     0.169 HD
ATOM     14  O   UNL d   1      32.214 -17.253  -1.584  0.00  0.00    -0.270 OA
BRANCH   9  15
ATOM     15  N   UNL d   1      26.083 -15.185  -4.660  0.00  0.00    -0.116 N 
ATOM     16  O   UNL d   1      25.077 -14.489  -4.486  0.00  0.00    -0.532 OA
ATOM     17  O   UNL d   1      26.502 -15.569  -5.763  0.00  0.00    -0.532 OA
ENDBRANCH   9  15
ENDBRANCH   2   3
ENDBRANCH   1   2
BRANCH   1  18
ATOM     18  N   UNL d   1      30.136 -14.784   2.722  0.00  0.00    -0.068 N 
ATOM     19  C   UNL d   1      30.416 -13.521   3.556  0.00  0.00     0.254 C 
ATOM     20  C   UNL d   1      29.231 -13.132   4.451  0.00  0.00     0.150 C 
ATOM     21  N   UNL d   1      27.996 -13.011   3.683  0.00  0.00    -0.378 N 
ATOM     22  C   UNL d   1      27.627 -14.227   2.940  0.00  0.00     0.150 C 
ATOM     23  C   UNL d   1      28.772 -14.659   1.977  0.00  0.00     0.254 C 
ATOM     24  H   UNL d   1      30.040 -15.574   3.375  0.00  0.00     0.280 HD
BRANCH  21  25
ATOM     25  C   UNL d   1      27.457 -11.782   3.334  0.00  0.00     0.030 A 
ATOM     26  C   UNL d   1      27.551 -10.703   4.231  0.00  0.00     0.032 A 
ATOM     27  C   UNL d   1      27.001  -9.440   3.950  0.00  0.00     0.038 A 
ATOM     28  C   UNL d   1      26.390  -9.214   2.716  0.00  0.00     0.103 A 
ATOM     29  C   UNL d   1      26.283 -10.262   1.798  0.00  0.00     0.038 A 
ATOM     30  C   UNL d   1      26.823 -11.528   2.107  0.00  0.00     0.032 A 
BRANCH  28  31
ATOM     31  N   UNL d   1      25.920  -7.863   2.361  0.00  0.00    -0.116 N 
ATOM     32  O   UNL d   1      26.328  -6.914   3.043  0.00  0.00    -0.532 OA
ATOM     33  O   UNL d   1      25.159  -7.758   1.389  0.00  0.00    -0.532 OA
ENDBRANCH  28  31
ENDBRANCH  21  25
ENDBRANCH   1  18
TORSDOF 6
ENDMDL
MODEL 7
REMARK VINA RESULT:    -8.510      1.413      1.998
REMARK INTER + INTRA:         -11.467
REMARK INTER:                 -10.299
REMARK INTRA:                  -1.168
REMARK CONF_INDEPENDENT:        1.790
REMARK UNBOUND:                -1.168
REMARK  6 active torsions:
REMARK  status: ('A' for Active; 'I' for Inactive)
REMARK    1  A    between atoms: C_6  and  N_7 
REMARK    2  A    between atoms: C_14  and  C_15 
REMARK    3  A    between atoms: C_15  and  C_16 
REMARK    4  A    between atoms: C_16  and  N_17 
REMARK    5  A    between atoms: N_20  and  C_21 
REMARK    6  A    between atoms: C_24  and  N_25 
ROOT
ATOM      1  C   UNL d   1      29.692 -14.450   2.959  0.00  0.00     0.238 C 
ENDROOT
BRANCH   1   2
ATOM      2  C   UNL d   1      28.809 -13.975   4.118  0.00  0.00     0.070 C 
BRANCH   2   3
ATOM      3  C   UNL d   1      29.381 -12.763   4.877  0.00  0.00     0.222 C 
ATOM      4  O   UNL d   1      29.787 -11.803   3.904  0.00  0.00    -0.334 OA
ATOM      5  C   UNL d   1      28.809 -10.915   3.545  0.00  0.00     0.096 A 
ATOM      6  C   UNL d   1      29.006 -10.222   2.353  0.00  0.00     0.041 A 
ATOM      7  C   UNL d   1      27.679 -10.665   4.333  0.00  0.00     0.070 A 
ATOM      8  C   UNL d   1      28.065  -9.282   1.932  0.00  0.00     0.039 A 
ATOM      9  C   UNL d   1      26.927  -9.043   2.719  0.00  0.00     0.105 A 
ATOM     10  C   UNL d   1      26.726  -9.735   3.923  0.00  0.00     0.068 A 
ATOM     11  N   UNL d   1      27.516 -11.332   5.548  0.00  0.00    -0.322 N 
ATOM     12  C   UNL d   1      28.383 -12.311   5.946  0.00  0.00     0.251 C 
ATOM     13  H   UNL d   1      26.785 -11.067   6.199  0.00  0.00     0.169 HD
ATOM     14  O   UNL d   1      28.261 -12.907   7.007  0.00  0.00    -0.270 OA
BRANCH   9  15
ATOM     15  N   UNL d   1      25.937  -8.053   2.278  0.00  0.00    -0.116 N 
ATOM     16  O   UNL d   1      25.990  -6.925   2.778  0.00  0.00    -0.532 OA
ATOM     17  O   UNL d   1      25.118  -8.413   1.418  0.00  0.00    -0.532 OA
ENDBRANCH   9  15
ENDBRANCH   2   3
ENDBRANCH   1   2
BRANCH   1  18
ATOM     18  N   UNL d   1      28.981 -14.322   1.607  0.00  0.00    -0.068 N 
ATOM     19  C   UNL d   1      29.114 -15.572   0.720  0.00  0.00     0.254 C 
ATOM     20  C   UNL d   1      28.319 -15.453  -0.588  0.00  0.00     0.150 C 
ATOM     21  N   UNL d   1      26.922 -15.111  -0.338  0.00  0.00    -0.378 N 
ATOM     22  C   UNL d   1      26.734 -13.866   0.425  0.00  0.00     0.150 C 
ATOM     23  C   UNL d   1      27.482 -13.932   1.789  0.00  0.00     0.254 C 
ATOM     24  H   UNL d   1      29.426 -13.538   1.109  0.00  0.00     0.280 HD
BRANCH  21  25
ATOM     25  C   UNL d   1      25.903 -16.048  -0.420  0.00  0.00     0.030 A 
ATOM     26  C   UNL d   1      24.755 -15.760  -1.179  0.00  0.00     0.032 A 
ATOM     27  C   UNL d   1      23.675 -16.655  -1.279  0.00  0.00     0.038 A 
ATOM     28  C   UNL d   1      23.754 -17.903  -0.659  0.00  0.00     0.103 A 
ATOM     29  C   UNL d   1      24.882 -18.224   0.102  0.00  0.00     0.038 A 
ATOM     30  C   UNL d   1      25.947 -17.304   0.206  0.00  0.00     0.032 A 
BRANCH  28  31
ATOM     31  N   UNL d   1      22.683 -18.895  -0.857  0.00  0.00    -0.116 N 
ATOM     32  O   UNL d   1      22.472 -19.292  -2.010  0.00  0.00    -0.532 OA
ATOM     33  O   UNL d   1      22.072 -19.288   0.147  0.00  0.00    -0.532 OA
ENDBRANCH  28  31
ENDBRANCH  21  25
ENDBRANCH   1  18
TORSDOF 6
ENDMDL
MODEL 8
REMARK VINA RESULT:    -8.326      4.929      6.702
REMARK INTER + INTRA:         -11.262
REMARK INTER:                 -10.116
REMARK INTRA:                  -1.146
REMARK CONF_INDEPENDENT:        1.790
REMARK UNBOUND:                -1.146
REMARK  6 active torsions:
REMARK  status: ('A' for Active; 'I' for Inactive)
REMARK    1  A    between atoms: C_6  and  N_7 
REMARK    2  A    between atoms: C_14  and  C_15 
REMARK    3  A    between atoms: C_15  and  C_16 
REMARK    4  A    between atoms: C_16  and  N_17 
REMARK    5  A    between atoms: N_20  and  C_21 
REMARK    6  A    between atoms: C_24  and  N_25 
ROOT
ATOM      1  C   UNL d   1      29.934 -16.674  -2.417  0.00  0.00     0.238 C 
ENDROOT
BRANCH   1   2
ATOM      2  C   UNL d   1      29.758 -15.592  -3.488  0.00  0.00     0.070 C 
BRANCH   2   3
ATOM      3  C   UNL d   1      28.895 -16.035  -4.683  0.00  0.00     0.222 C 
ATOM      4  O   UNL d   1      27.535 -15.758  -4.353  0.00  0.00    -0.334 OA
ATOM      5  C   UNL d   1      27.110 -14.508  -4.715  0.00  0.00     0.096 A 
ATOM      6  C   UNL d   1      25.955 -14.040  -4.093  0.00  0.00     0.041 A 
ATOM      7  C   UNL d   1      27.759 -13.732  -5.684  0.00  0.00     0.070 A 
ATOM      8  C   UNL d   1      25.446 -12.784  -4.427  0.00  0.00     0.039 A 
ATOM      9  C   UNL d   1      26.106 -12.005  -5.391  0.00  0.00     0.105 A 
ATOM     10  C   UNL d   1      27.268 -12.474  -6.023  0.00  0.00     0.068 A 
ATOM     11  N   UNL d   1      28.889 -14.232  -6.333  0.00  0.00    -0.322 N 
ATOM     12  C   UNL d   1      29.450 -15.425  -5.971  0.00  0.00     0.251 C 
ATOM     13  H   UNL d   1      29.289 -13.754  -7.134  0.00  0.00     0.169 HD
ATOM     14  O   UNL d   1      30.439 -15.882  -6.528  0.00  0.00    -0.270 OA
BRANCH   9  15
ATOM     15  N   UNL d   1      25.570 -10.685  -5.744  0.00  0.00    -0.116 N 
ATOM     16  O   UNL d   1      25.154 -10.522  -6.895  0.00  0.00    -0.532 OA
ATOM     17  O   UNL d   1      25.560  -9.820  -4.854  0.00  0.00    -0.532 OA
ENDBRANCH   9  15
ENDBRANCH   2   3
ENDBRANCH   1   2
BRANCH   1  18
ATOM     18  N   UNL d   1      28.997 -16.457  -1.224  0.00  0.00    -0.068 N 
ATOM     19  C   UNL d   1      27.827 -15.504  -1.524  0.00  0.00     0.254 C 
ATOM     20  C   UNL d   1      26.855 -15.374  -0.343  0.00  0.00     0.150 C 
ATOM     21  N   UNL d   1      26.386 -16.680   0.111  0.00  0.00    -0.378 N 
ATOM     22  C   UNL d   1      27.464 -17.602   0.506  0.00  0.00     0.150 C 
ATOM     23  C   UNL d   1      28.470 -17.814  -0.662  0.00  0.00     0.254 C 
ATOM     24  H   UNL d   1      29.561 -16.033  -0.474  0.00  0.00     0.280 HD
BRANCH  21  25
ATOM     25  C   UNL d   1      25.123 -17.162  -0.195  0.00  0.00     0.030 A 
ATOM     26  C   UNL d   1      24.114 -16.265  -0.586  0.00  0.00     0.032 A 
ATOM     27  C   UNL d   1      22.805 -16.686  -0.882  0.00  0.00     0.038 A 
ATOM     28  C   UNL d   1      22.495 -18.046  -0.851  0.00  0.00     0.103 A 
ATOM     29  C   UNL d   1      23.476 -18.967  -0.471  0.00  0.00     0.038 A 
ATOM     30  C   UNL d   1      24.777 -18.522  -0.158  0.00  0.00     0.032 A 
BRANCH  28  31
ATOM     31  N   UNL d   1      21.164 -18.511  -1.278  0.00  0.00    -0.116 N 
ATOM     32  O   UNL d   1      21.045 -19.699  -1.603  0.00  0.00    -0.532 OA
ATOM     33  O   UNL d   1      20.238 -17.687  -1.268  0.00  0.00    -0.532 OA
ENDBRANCH  28  31
ENDBRANCH  21  25
ENDBRANCH   1  18
TORSDOF 6
ENDMDL
