MODEL 1
REMARK VINA RESULT:   -31.577      0.000      0.000
REMARK INTER + INTRA:         -34.488
REMARK INTER:                 -33.366
REMARK INTRA:                  -1.121
REMARK CONF_INDEPENDENT:        1.790
REMARK UNBOUND:                -1.121
REMARK  6 active torsions:
REMARK  status: ('A' for Active; 'I' for Inactive)
REMARK       I    between atoms: C_2  and  N_3 
REMARK    1  A    between atoms: C_2  and  C_17 
REMARK    2  A    between atoms: N_3  and  C_4 
REMARK    3  A    between atoms: C_5  and  C_4 
REMARK    4  A    between atoms: C_5  and  C_14 
REMARK    5  A    between atoms: C_5  and  N_6 
REMARK       I    between atoms: N_6  and  C_7 
REMARK    6  A    between atoms: C_7  and  C_9 
ROOT
ATOM      1  C   UNL d   1      24.773 -17.433  -0.087  0.00  0.00     0.106 C 
ENDROOT
BRANCH   1   2
ATOM      2  C   UNL d   1      26.227 -17.321   0.341  0.00  0.00     0.010 A 
ATOM      3  C   UNL d   1      26.913 -18.638   0.605  0.00  0.00     0.007 A 
ATOM      4  C   UNL d   1      27.485 -17.712  -0.422  0.00  0.00     0.007 A 
ENDBRANCH   1   2
BRANCH   1   5
ATOM      5  N   UNL d   1      24.610 -16.539  -1.270  0.00  0.00    -0.349 N 
ATOM      6  C   UNL d   1      25.341 -15.370  -1.466  0.00  0.00     0.272 C 
ATOM      7  O   UNL d   1      25.931 -14.811  -0.536  0.00  0.00    -0.266 OA
ATOM      8  H   UNL d   1      24.183 -16.947  -2.090  0.00  0.00     0.163 HD
BRANCH   6   9
ATOM      9  C   UNL d   1      25.380 -14.847  -2.865  0.00  0.00     0.145 A 
ATOM     10  C   UNL d   1      26.393 -15.033  -3.852  0.00  0.00     0.058 A 
ATOM     11  C   UNL d   1      25.955 -14.378  -4.980  0.00  0.00     0.112 A 
ATOM     12  N   UNL d   1      24.754 -13.830  -4.645  0.00  0.00    -0.289 N 
ATOM     13  N   UNL d   1      24.383 -14.092  -3.380  0.00  0.00    -0.170 NA
ATOM     14  H   UNL d   1      24.136 -13.273  -5.231  0.00  0.00     0.188 HD
ENDBRANCH   6   9
ENDBRANCH   1   5
BRANCH   1  15
ATOM     15  C   UNL d   1      24.432 -18.900  -0.457  0.00  0.00     0.148 C 
BRANCH  15  16
ATOM     16  N   UNL d   1      23.073 -19.342  -0.141  0.00  0.00    -0.354 N 
ATOM     17  C   UNL d   1      21.976 -18.612  -0.569  0.00  0.00     0.272 C 
ATOM     18  O   UNL d   1      22.104 -17.553  -1.185  0.00  0.00    -0.266 OA
ATOM     19  H   UNL d   1      22.897 -20.257   0.262  0.00  0.00     0.162 HD
BRANCH  17  20
ATOM     20  C   UNL d   1      20.641 -19.201  -0.332  0.00  0.00     0.145 A 
ATOM     21  C   UNL d   1      20.199 -19.744   0.907  0.00  0.00     0.058 A 
ATOM     22  C   UNL d   1      18.946 -20.249   0.676  0.00  0.00     0.112 A 
ATOM     23  N   UNL d   1      18.700 -20.025  -0.645  0.00  0.00    -0.289 N 
ATOM     24  N   UNL d   1      19.676 -19.325  -1.270  0.00  0.00    -0.170 NA
ATOM     25  H   UNL d   1      17.881 -20.309  -1.175  0.00  0.00     0.188 HD
ENDBRANCH  17  20
ENDBRANCH  15  16
ENDBRANCH   1  15
TORSDOF 6
ENDMDL
MODEL 2
REMARK VINA RESULT:   -31.341      1.797      7.284
REMARK INTER + INTRA:         -33.882
REMARK INTER:                 -33.131
REMARK INTRA:                  -0.751
REMARK CONF_INDEPENDENT:        1.790
REMARK UNBOUND:                -0.751
REMARK  6 active torsions:
REMARK  status: ('A' for Active; 'I' for Inactive)
REMARK       I    between atoms: C_2  and  N_3 
REMARK    1  A    between atoms: C_2  and  C_17 
REMARK    2  A    between atoms: N_3  and  C_4 
REMARK    3  A    between atoms: C_5  and  C_4 
REMARK    4  A    between atoms: C_5  and  C_14 
REMARK    5  A    between atoms: C_5  and  N_6 
REMARK       I    between atoms: N_6  and  C_7 
REMARK    6  A    between atoms: C_7  and  C_9 
ROOT
ATOM      1  C   UNL d   1      24.458 -17.341  -1.099  0.00  0.00     0.106 C 
ENDROOT
BRANCH   1   2
ATOM      2  C   UNL d   1      25.190 -17.489   0.224  0.00  0.00     0.010 A 
ATOM      3  C   UNL d   1      26.246 -18.566   0.247  0.00  0.00     0.007 A 
ATOM      4  C   UNL d   1      26.637 -17.156   0.562  0.00  0.00     0.007 A 
ENDBRANCH   1   2
BRANCH   1   5
ATOM      5  N   UNL d   1      23.021 -17.629  -0.822  0.00  0.00    -0.349 N 
ATOM      6  C   UNL d   1      22.342 -18.740  -1.318  0.00  0.00     0.272 C 
ATOM      7  O   UNL d   1      22.770 -19.384  -2.280  0.00  0.00    -0.266 OA
ATOM      8  H   UNL d   1      22.617 -17.177  -0.014  0.00  0.00     0.163 HD
BRANCH   6   9
ATOM      9  C   UNL d   1      21.080 -19.108  -0.608  0.00  0.00     0.145 A 
ATOM     10  C   UNL d   1      20.884 -19.344   0.786  0.00  0.00     0.058 A 
ATOM     11  C   UNL d   1      19.546 -19.625   0.944  0.00  0.00     0.112 A 
ATOM     12  N   UNL d   1      19.008 -19.568  -0.306  0.00  0.00    -0.289 N 
ATOM     13  N   UNL d   1      19.905 -19.262  -1.259  0.00  0.00    -0.170 NA
ATOM     14  H   UNL d   1      18.039 -19.720  -0.575  0.00  0.00     0.188 HD
ENDBRANCH   6   9
ENDBRANCH   1   5
BRANCH   1  15
ATOM     15  C   UNL d   1      24.632 -15.903  -1.655  0.00  0.00     0.148 C 
BRANCH  15  16
ATOM     16  N   UNL d   1      25.699 -15.722  -2.640  0.00  0.00    -0.354 N 
ATOM     17  C   UNL d   1      25.493 -14.944  -3.768  0.00  0.00     0.272 C 
ATOM     18  O   UNL d   1      24.403 -14.420  -4.002  0.00  0.00    -0.266 OA
ATOM     19  H   UNL d   1      26.647 -16.030  -2.451  0.00  0.00     0.162 HD
BRANCH  17  20
ATOM     20  C   UNL d   1      26.663 -14.695  -4.637  0.00  0.00     0.145 A 
ATOM     21  C   UNL d   1      27.453 -13.510  -4.618  0.00  0.00     0.058 A 
ATOM     22  C   UNL d   1      28.376 -13.654  -5.621  0.00  0.00     0.112 A 
ATOM     23  N   UNL d   1      28.103 -14.857  -6.200  0.00  0.00    -0.289 N 
ATOM     24  N   UNL d   1      27.117 -15.548  -5.580  0.00  0.00    -0.170 NA
ATOM     25  H   UNL d   1      28.561 -15.269  -7.007  0.00  0.00     0.188 HD
ENDBRANCH  17  20
ENDBRANCH  15  16
ENDBRANCH   1  15
TORSDOF 6
ENDMDL
MODEL 3
REMARK VINA RESULT:   -31.010      0.884      6.937
REMARK INTER + INTRA:         -33.891
REMARK INTER:                 -32.800
REMARK INTRA:                  -1.091
REMARK CONF_INDEPENDENT:        1.790
REMARK UNBOUND:                -1.091
REMARK  6 active torsions:
REMARK  status: ('A' for Active; 'I' for Inactive)
REMARK       I    between atoms: C_2  and  N_3 
REMARK    1  A    between atoms: C_2  and  C_17 
REMARK    2  A    between atoms: N_3  and  C_4 
REMARK    3  A    between atoms: C_5  and  C_4 
REMARK    4  A    between atoms: C_5  and  C_14 
REMARK    5  A    between atoms: C_5  and  N_6 
REMARK       I    between atoms: N_6  and  C_7 
REMARK    6  A    between atoms: C_7  and  C_9 
ROOT
ATOM      1  C   UNL d   1      24.248 -18.026  -0.818  0.00  0.00     0.106 C 
ENDROOT
BRANCH   1   2
ATOM      2  C   UNL d   1      25.432 -18.701  -0.144  0.00  0.00     0.010 A 
ATOM      3  C   UNL d   1      26.761 -18.026  -0.375  0.00  0.00     0.007 A 
ATOM      4  C   UNL d   1      26.274 -18.216   1.027  0.00  0.00     0.007 A 
ENDBRANCH   1   2
BRANCH   1   5
ATOM      5  N   UNL d   1      23.022 -18.665  -0.259  0.00  0.00    -0.349 N 
ATOM      6  C   UNL d   1      21.728 -18.213  -0.509  0.00  0.00     0.272 C 
ATOM      7  O   UNL d   1      21.511 -17.073  -0.930  0.00  0.00    -0.266 OA
ATOM      8  H   UNL d   1      23.113 -19.621   0.056  0.00  0.00     0.163 HD
BRANCH   6   9
ATOM      9  C   UNL d   1      20.630 -19.193  -0.252  0.00  0.00     0.145 A 
ATOM     10  C   UNL d   1      20.495 -20.107   0.835  0.00  0.00     0.058 A 
ATOM     11  C   UNL d   1      19.306 -20.770   0.634  0.00  0.00     0.112 A 
ATOM     12  N   UNL d   1      18.795 -20.268  -0.524  0.00  0.00    -0.289 N 
ATOM     13  N   UNL d   1      19.570 -19.320  -1.081  0.00  0.00    -0.170 NA
ATOM     14  H   UNL d   1      17.925 -20.522  -0.985  0.00  0.00     0.188 HD
ENDBRANCH   6   9
ENDBRANCH   1   5
BRANCH   1  15
ATOM     15  C   UNL d   1      24.257 -16.503  -0.522  0.00  0.00     0.148 C 
BRANCH  15  16
ATOM     16  N   UNL d   1      24.383 -15.625  -1.686  0.00  0.00    -0.354 N 
ATOM     17  C   UNL d   1      25.541 -14.895  -1.898  0.00  0.00     0.272 C 
ATOM     18  O   UNL d   1      26.478 -14.923  -1.099  0.00  0.00    -0.266 OA
ATOM     19  H   UNL d   1      23.698 -15.643  -2.435  0.00  0.00     0.162 HD
BRANCH  17  20
ATOM     20  C   UNL d   1      25.642 -14.146  -3.169  0.00  0.00     0.145 A 
ATOM     21  C   UNL d   1      26.780 -13.398  -3.583  0.00  0.00     0.058 A 
ATOM     22  C   UNL d   1      26.433 -12.804  -4.769  0.00  0.00     0.112 A 
ATOM     23  N   UNL d   1      25.144 -13.178  -5.001  0.00  0.00    -0.289 N 
ATOM     24  N   UNL d   1      24.657 -14.052  -4.088  0.00  0.00    -0.170 NA
ATOM     25  H   UNL d   1      24.547 -12.886  -5.770  0.00  0.00     0.188 HD
ENDBRANCH  17  20
ENDBRANCH  15  16
ENDBRANCH   1  15
TORSDOF 6
ENDMDL
MODEL 4
REMARK VINA RESULT:   -30.729      1.164      1.179
REMARK INTER + INTRA:         -33.716
REMARK INTER:                 -32.518
REMARK INTRA:                  -1.197
REMARK CONF_INDEPENDENT:        1.790
REMARK UNBOUND:                -1.197
REMARK  6 active torsions:
REMARK  status: ('A' for Active; 'I' for Inactive)
REMARK       I    between atoms: C_2  and  N_3 
REMARK    1  A    between atoms: C_2  and  C_17 
REMARK    2  A    between atoms: N_3  and  C_4 
REMARK    3  A    between atoms: C_5  and  C_4 
REMARK    4  A    between atoms: C_5  and  C_14 
REMARK    5  A    between atoms: C_5  and  N_6 
REMARK       I    between atoms: N_6  and  C_7 
REMARK    6  A    between atoms: C_7  and  C_9 
ROOT
ATOM      1  C   UNL d   1      24.299 -16.795  -0.749  0.00  0.00     0.106 C 
ENDROOT
BRANCH   1   2
ATOM      2  C   UNL d   1      25.405 -17.099   0.248  0.00  0.00     0.010 A 
ATOM      3  C   UNL d   1      25.963 -18.499   0.167  0.00  0.00     0.007 A 
ATOM      4  C   UNL d   1      26.888 -17.334  -0.006  0.00  0.00     0.007 A 
ENDBRANCH   1   2
BRANCH   1   5
ATOM      5  N   UNL d   1      24.775 -15.642  -1.569  0.00  0.00    -0.349 N 
ATOM      6  C   UNL d   1      25.781 -15.734  -2.527  0.00  0.00     0.272 C 
ATOM      7  O   UNL d   1      26.577 -16.677  -2.542  0.00  0.00    -0.266 OA
ATOM      8  H   UNL d   1      24.147 -14.854  -1.646  0.00  0.00     0.163 HD
BRANCH   6   9
ATOM      9  C   UNL d   1      25.826 -14.634  -3.538  0.00  0.00     0.145 A 
ATOM     10  C   UNL d   1      26.924 -14.224  -4.351  0.00  0.00     0.058 A 
ATOM     11  C   UNL d   1      26.459 -13.192  -5.133  0.00  0.00     0.112 A 
ATOM     12  N   UNL d   1      25.159 -13.011  -4.769  0.00  0.00    -0.289 N 
ATOM     13  N   UNL d   1      24.751 -13.862  -3.812  0.00  0.00    -0.170 NA
ATOM     14  H   UNL d   1      24.496 -12.333  -5.138  0.00  0.00     0.188 HD
ENDBRANCH   6   9
ENDBRANCH   1   5
BRANCH   1  15
ATOM     15  C   UNL d   1      24.028 -18.031  -1.647  0.00  0.00     0.148 C 
BRANCH  15  16
ATOM     16  N   UNL d   1      22.705 -18.641  -1.513  0.00  0.00    -0.354 N 
ATOM     17  C   UNL d   1      22.147 -18.851  -0.263  0.00  0.00     0.272 C 
ATOM     18  O   UNL d   1      22.756 -18.577   0.772  0.00  0.00    -0.266 OA
ATOM     19  H   UNL d   1      22.108 -18.784  -2.322  0.00  0.00     0.162 HD
BRANCH  17  20
ATOM     20  C   UNL d   1      20.751 -19.338  -0.221  0.00  0.00     0.145 A 
ATOM     21  C   UNL d   1      20.125 -19.914   0.921  0.00  0.00     0.058 A 
ATOM     22  C   UNL d   1      18.872 -20.297   0.514  0.00  0.00     0.112 A 
ATOM     23  N   UNL d   1      18.804 -19.975  -0.808  0.00  0.00    -0.289 N 
ATOM     24  N   UNL d   1      19.899 -19.325  -1.268  0.00  0.00    -0.170 NA
ATOM     25  H   UNL d   1      18.035 -20.158  -1.446  0.00  0.00     0.188 HD
ENDBRANCH  17  20
ENDBRANCH  15  16
ENDBRANCH   1  15
TORSDOF 6
ENDMDL
MODEL 5
REMARK VINA RESULT:   -30.524      1.760      2.024
REMARK INTER + INTRA:         -33.464
REMARK INTER:                 -32.313
REMARK INTRA:                  -1.151
REMARK CONF_INDEPENDENT:        1.790
REMARK UNBOUND:                -1.151
REMARK  6 active torsions:
REMARK  status: ('A' for Active; 'I' for Inactive)
REMARK       I    between atoms: C_2  and  N_3 
REMARK    1  A    between atoms: C_2  and  C_17 
REMARK    2  A    between atoms: N_3  and  C_4 
REMARK    3  A    between atoms: C_5  and  C_4 
REMARK    4  A    between atoms: C_5  and  C_14 
REMARK    5  A    between atoms: C_5  and  N_6 
REMARK       I    between atoms: N_6  and  C_7 
REMARK    6  A    between atoms: C_7  and  C_9 
ROOT
ATOM      1  C   UNL d   1      24.500 -16.340  -1.654  0.00  0.00     0.106 C 
ENDROOT
BRANCH   1   2
ATOM      2  C   UNL d   1      25.399 -15.997  -0.477  0.00  0.00     0.010 A 
ATOM      3  C   UNL d   1      26.247 -17.138   0.026  0.00  0.00     0.007 A 
ATOM      4  C   UNL d   1      26.916 -15.880  -0.431  0.00  0.00     0.007 A 
ENDBRANCH   1   2
BRANCH   1   5
ATOM      5  N   UNL d   1      25.274 -16.015  -2.887  0.00  0.00    -0.349 N 
ATOM      6  C   UNL d   1      25.166 -14.809  -3.575  0.00  0.00     0.272 C 
ATOM      7  O   UNL d   1      24.198 -14.058  -3.419  0.00  0.00    -0.266 OA
ATOM      8  H   UNL d   1      26.112 -16.555  -3.050  0.00  0.00     0.163 HD
BRANCH   6   9
ATOM      9  C   UNL d   1      26.295 -14.475  -4.495  0.00  0.00     0.145 A 
ATOM     10  C   UNL d   1      26.794 -13.188  -4.853  0.00  0.00     0.058 A 
ATOM     11  C   UNL d   1      27.853 -13.409  -5.704  0.00  0.00     0.112 A 
ATOM     12  N   UNL d   1      27.942 -14.761  -5.837  0.00  0.00    -0.289 N 
ATOM     13  N   UNL d   1      27.018 -15.429  -5.124  0.00  0.00    -0.170 NA
ATOM     14  H   UNL d   1      28.611 -15.291  -6.391  0.00  0.00     0.188 HD
ENDBRANCH   6   9
ENDBRANCH   1   5
BRANCH   1  15
ATOM     15  C   UNL d   1      24.124 -17.845  -1.623  0.00  0.00     0.148 C 
BRANCH  15  16
ATOM     16  N   UNL d   1      22.709 -18.148  -1.402  0.00  0.00    -0.354 N 
ATOM     17  C   UNL d   1      22.332 -19.242  -0.642  0.00  0.00     0.272 C 
ATOM     18  O   UNL d   1      23.163 -20.017  -0.166  0.00  0.00    -0.266 OA
ATOM     19  H   UNL d   1      21.983 -17.491  -1.669  0.00  0.00     0.162 HD
BRANCH  17  20
ATOM     20  C   UNL d   1      20.891 -19.394  -0.348  0.00  0.00     0.145 A 
ATOM     21  C   UNL d   1      20.347 -19.662   0.940  0.00  0.00     0.058 A 
ATOM     22  C   UNL d   1      18.995 -19.803   0.759  0.00  0.00     0.112 A 
ATOM     23  N   UNL d   1      18.787 -19.648  -0.578  0.00  0.00    -0.289 N 
ATOM     24  N   UNL d   1      19.905 -19.325  -1.270  0.00  0.00    -0.170 NA
ATOM     25  H   UNL d   1      17.906 -19.734  -1.078  0.00  0.00     0.188 HD
ENDBRANCH  17  20
ENDBRANCH  15  16
ENDBRANCH   1  15
TORSDOF 6
ENDMDL
MODEL 6
REMARK VINA RESULT:   -29.712      2.198      7.273
REMARK INTER + INTRA:         -32.378
REMARK INTER:                 -31.502
REMARK INTRA:                  -0.876
REMARK CONF_INDEPENDENT:        1.790
REMARK UNBOUND:                -0.876
REMARK  6 active torsions:
REMARK  status: ('A' for Active; 'I' for Inactive)
REMARK       I    between atoms: C_2  and  N_3 
REMARK    1  A    between atoms: C_2  and  C_17 
REMARK    2  A    between atoms: N_3  and  C_4 
REMARK    3  A    between atoms: C_5  and  C_4 
REMARK    4  A    between atoms: C_5  and  C_14 
REMARK    5  A    between atoms: C_5  and  N_6 
REMARK       I    between atoms: N_6  and  C_7 
REMARK    6  A    between atoms: C_7  and  C_9 
ROOT
ATOM      1  C   UNL d   1      24.030 -17.084  -0.416  0.00  0.00     0.106 C 
ENDROOT
BRANCH   1   2
ATOM      2  C   UNL d   1      24.279 -16.682  -1.861  0.00  0.00     0.010 A 
ATOM      3  C   UNL d   1      24.374 -15.195  -2.097  0.00  0.00     0.007 A 
ATOM      4  C   UNL d   1      25.526 -16.070  -2.484  0.00  0.00     0.007 A 
ENDBRANCH   1   2
BRANCH   1   5
ATOM      5  N   UNL d   1      22.621 -17.570  -0.349  0.00  0.00    -0.349 N 
ATOM      6  C   UNL d   1      22.156 -18.696  -1.024  0.00  0.00     0.272 C 
ATOM      7  O   UNL d   1      22.773 -19.180  -1.978  0.00  0.00    -0.266 OA
ATOM      8  H   UNL d   1      22.071 -17.257   0.438  0.00  0.00     0.163 HD
BRANCH   6   9
ATOM      9  C   UNL d   1      20.881 -19.286  -0.516  0.00  0.00     0.145 A 
ATOM     10  C   UNL d   1      20.624 -19.872   0.759  0.00  0.00     0.058 A 
ATOM     11  C   UNL d   1      19.299 -20.243   0.751  0.00  0.00     0.112 A 
ATOM     12  N   UNL d   1      18.827 -19.899  -0.479  0.00  0.00    -0.289 N 
ATOM     13  N   UNL d   1      19.756 -19.324  -1.263  0.00  0.00    -0.170 NA
ATOM     14  H   UNL d   1      17.886 -20.022  -0.844  0.00  0.00     0.188 HD
ENDBRANCH   6   9
ENDBRANCH   1   5
BRANCH   1  15
ATOM     15  C   UNL d   1      25.017 -18.202   0.011  0.00  0.00     0.148 C 
BRANCH  15  16
ATOM     16  N   UNL d   1      26.384 -18.077  -0.495  0.00  0.00    -0.354 N 
ATOM     17  C   UNL d   1      27.163 -16.980  -0.164  0.00  0.00     0.272 C 
ATOM     18  O   UNL d   1      26.722 -16.058   0.524  0.00  0.00    -0.266 OA
ATOM     19  H   UNL d   1      26.842 -18.849  -0.969  0.00  0.00     0.162 HD
BRANCH  17  20
ATOM     20  C   UNL d   1      28.576 -17.001  -0.597  0.00  0.00     0.145 A 
ATOM     21  C   UNL d   1      29.684 -16.651   0.226  0.00  0.00     0.058 A 
ATOM     22  C   UNL d   1      30.793 -16.731  -0.577  0.00  0.00     0.112 A 
ATOM     23  N   UNL d   1      30.329 -17.085  -1.808  0.00  0.00    -0.289 N 
ATOM     24  N   UNL d   1      28.997 -17.329  -1.838  0.00  0.00    -0.170 NA
ATOM     25  H   UNL d   1      30.868 -17.191  -2.662  0.00  0.00     0.188 HD
ENDBRANCH  17  20
ENDBRANCH  15  16
ENDBRANCH   1  15
TORSDOF 6
ENDMDL
MODEL 7
REMARK VINA RESULT:   -29.547      1.950      2.105
REMARK INTER + INTRA:         -32.498
REMARK INTER:                 -31.337
REMARK INTRA:                  -1.161
REMARK CONF_INDEPENDENT:        1.790
REMARK UNBOUND:                -1.161
REMARK  6 active torsions:
REMARK  status: ('A' for Active; 'I' for Inactive)
REMARK       I    between atoms: C_2  and  N_3 
REMARK    1  A    between atoms: C_2  and  C_17 
REMARK    2  A    between atoms: N_3  and  C_4 
REMARK    3  A    between atoms: C_5  and  C_4 
REMARK    4  A    between atoms: C_5  and  C_14 
REMARK    5  A    between atoms: C_5  and  N_6 
REMARK       I    between atoms: N_6  and  C_7 
REMARK    6  A    between atoms: C_7  and  C_9 
ROOT
ATOM      1  C   UNL d   1      24.735 -16.694  -0.219  0.00  0.00     0.106 C 
ENDROOT
BRANCH   1   2
ATOM      2  C   UNL d   1      25.646 -17.911  -0.229  0.00  0.00     0.010 A 
ATOM      3  C   UNL d   1      27.119 -17.597  -0.323  0.00  0.00     0.007 A 
ATOM      4  C   UNL d   1      26.616 -18.392   0.841  0.00  0.00     0.007 A 
ENDBRANCH   1   2
BRANCH   1   5
ATOM      5  N   UNL d   1      25.606 -15.511  -0.476  0.00  0.00    -0.349 N 
ATOM      6  C   UNL d   1      25.863 -14.997  -1.745  0.00  0.00     0.272 C 
ATOM      7  O   UNL d   1      25.669 -15.665  -2.765  0.00  0.00    -0.266 OA
ATOM      8  H   UNL d   1      25.764 -14.888   0.304  0.00  0.00     0.163 HD
BRANCH   6   9
ATOM      9  C   UNL d   1      26.371 -13.593  -1.794  0.00  0.00     0.145 A 
ATOM     10  C   UNL d   1      26.578 -12.766  -2.938  0.00  0.00     0.058 A 
ATOM     11  C   UNL d   1      27.030 -11.557  -2.461  0.00  0.00     0.112 A 
ATOM     12  N   UNL d   1      27.092 -11.695  -1.107  0.00  0.00    -0.289 N 
ATOM     13  N   UNL d   1      26.704 -12.908  -0.677  0.00  0.00    -0.170 NA
ATOM     14  H   UNL d   1      27.383 -11.001  -0.422  0.00  0.00     0.188 HD
ENDBRANCH   6   9
ENDBRANCH   1   5
BRANCH   1  15
ATOM     15  C   UNL d   1      23.649 -16.826  -1.319  0.00  0.00     0.148 C 
BRANCH  15  16
ATOM     16  N   UNL d   1      22.365 -17.380  -0.890  0.00  0.00    -0.354 N 
ATOM     17  C   UNL d   1      22.017 -18.684  -1.205  0.00  0.00     0.272 C 
ATOM     18  O   UNL d   1      22.749 -19.401  -1.889  0.00  0.00    -0.266 OA
ATOM     19  H   UNL d   1      21.771 -16.884  -0.232  0.00  0.00     0.162 HD
BRANCH  17  20
ATOM     20  C   UNL d   1      20.770 -19.211  -0.611  0.00  0.00     0.145 A 
ATOM     21  C   UNL d   1      20.647 -19.704   0.718  0.00  0.00     0.058 A 
ATOM     22  C   UNL d   1      19.359 -20.162   0.836  0.00  0.00     0.112 A 
ATOM     23  N   UNL d   1      18.787 -19.960  -0.384  0.00  0.00    -0.289 N 
ATOM     24  N   UNL d   1      19.592 -19.317  -1.263  0.00  0.00    -0.170 NA
ATOM     25  H   UNL d   1      17.850 -20.223  -0.675  0.00  0.00     0.188 HD
ENDBRANCH  17  20
ENDBRANCH  15  16
ENDBRANCH   1  15
TORSDOF 6
ENDMDL
MODEL 8
REMARK VINA RESULT:   -29.477      2.332      3.407
REMARK INTER + INTRA:         -32.474
REMARK INTER:                 -31.266
REMARK INTRA:                  -1.207
REMARK CONF_INDEPENDENT:        1.790
REMARK UNBOUND:                -1.207
REMARK  6 active torsions:
REMARK  status: ('A' for Active; 'I' for Inactive)
REMARK       I    between atoms: C_2  and  N_3 
REMARK    1  A    between atoms: C_2  and  C_17 
REMARK    2  A    between atoms: N_3  and  C_4 
REMARK    3  A    between atoms: C_5  and  C_4 
REMARK    4  A    between atoms: C_5  and  C_14 
REMARK    5  A    between atoms: C_5  and  N_6 
REMARK       I    between atoms: N_6  and  C_7 
REMARK    6  A    between atoms: C_7  and  C_9 
ROOT
ATOM      1  C   UNL d   1      25.068 -17.757  -0.960  0.00  0.00     0.106 C 
ENDROOT
BRANCH   1   2
ATOM      2  C   UNL d   1      24.295 -16.494  -0.617  0.00  0.00     0.010 A 
ATOM      3  C   UNL d   1      24.041 -15.572  -1.784  0.00  0.00     0.007 A 
ATOM      4  C   UNL d   1      22.876 -16.103  -1.007  0.00  0.00     0.007 A 
ENDBRANCH   1   2
BRANCH   1   5
ATOM      5  N   UNL d   1      26.509 -17.446  -0.731  0.00  0.00    -0.349 N 
ATOM      6  C   UNL d   1      27.228 -16.511  -1.472  0.00  0.00     0.272 C 
ATOM      7  O   UNL d   1      26.834 -16.115  -2.573  0.00  0.00    -0.266 OA
ATOM      8  H   UNL d   1      26.887 -17.693   0.173  0.00  0.00     0.163 HD
BRANCH   6   9
ATOM      9  C   UNL d   1      28.490 -16.010  -0.848  0.00  0.00     0.145 A 
ATOM     10  C   UNL d   1      29.601 -15.379  -1.482  0.00  0.00     0.058 A 
ATOM     11  C   UNL d   1      30.498 -15.083  -0.481  0.00  0.00     0.112 A 
ATOM     12  N   UNL d   1      29.930 -15.539   0.669  0.00  0.00    -0.289 N 
ATOM     13  N   UNL d   1      28.724 -16.103   0.480  0.00  0.00    -0.170 NA
ATOM     14  H   UNL d   1      30.307 -15.492   1.613  0.00  0.00     0.188 HD
ENDBRANCH   6   9
ENDBRANCH   1   5
BRANCH   1  15
ATOM     15  C   UNL d   1      24.610 -18.931  -0.055  0.00  0.00     0.148 C 
BRANCH  15  16
ATOM     16  N   UNL d   1      23.175 -19.008   0.218  0.00  0.00    -0.354 N 
ATOM     17  C   UNL d   1      22.271 -19.229  -0.809  0.00  0.00     0.272 C 
ATOM     18  O   UNL d   1      22.636 -19.323  -1.981  0.00  0.00    -0.266 OA
ATOM     19  H   UNL d   1      22.822 -19.051   1.169  0.00  0.00     0.162 HD
BRANCH  17  20
ATOM     20  C   UNL d   1      20.857 -19.435  -0.429  0.00  0.00     0.145 A 
ATOM     21  C   UNL d   1      20.411 -19.824   0.866  0.00  0.00     0.058 A 
ATOM     22  C   UNL d   1      19.052 -19.977   0.770  0.00  0.00     0.112 A 
ATOM     23  N   UNL d   1      18.746 -19.712  -0.531  0.00  0.00    -0.289 N 
ATOM     24  N   UNL d   1      19.807 -19.308  -1.269  0.00  0.00    -0.170 NA
ATOM     25  H   UNL d   1      17.834 -19.774  -0.973  0.00  0.00     0.188 HD
ENDBRANCH  17  20
ENDBRANCH  15  16
ENDBRANCH   1  15
TORSDOF 6
ENDMDL
MODEL 9
REMARK VINA RESULT:   -28.733      2.443      3.661
REMARK INTER + INTRA:         -31.697
REMARK INTER:                 -30.523
REMARK INTRA:                  -1.174
REMARK CONF_INDEPENDENT:        1.790
REMARK UNBOUND:                -1.174
REMARK  6 active torsions:
REMARK  status: ('A' for Active; 'I' for Inactive)
REMARK       I    between atoms: C_2  and  N_3 
REMARK    1  A    between atoms: C_2  and  C_17 
REMARK    2  A    between atoms: N_3  and  C_4 
REMARK    3  A    between atoms: C_5  and  C_4 
REMARK    4  A    between atoms: C_5  and  C_14 
REMARK    5  A    between atoms: C_5  and  N_6 
REMARK       I    between atoms: N_6  and  C_7 
REMARK    6  A    between atoms: C_7  and  C_9 
ROOT
ATOM      1  C   UNL d   1      25.405 -17.817  -0.884  0.00  0.00     0.106 C 
ENDROOT
BRANCH   1   2
ATOM      2  C   UNL d   1      24.679 -17.052  -1.979  0.00  0.00     0.010 A 
ATOM      3  C   UNL d   1      24.488 -15.581  -1.703  0.00  0.00     0.007 A 
ATOM      4  C   UNL d   1      25.222 -16.002  -2.938  0.00  0.00     0.007 A 
ENDBRANCH   1   2
BRANCH   1   5
ATOM      5  N   UNL d   1      26.718 -17.135  -0.692  0.00  0.00    -0.349 N 
ATOM      6  C   UNL d   1      27.883 -17.791  -0.302  0.00  0.00     0.272 C 
ATOM      7  O   UNL d   1      27.853 -18.905   0.230  0.00  0.00    -0.266 OA
ATOM      8  H   UNL d   1      26.834 -16.241  -1.147  0.00  0.00     0.163 HD
BRANCH   6   9
ATOM      9  C   UNL d   1      29.165 -17.074  -0.581  0.00  0.00     0.145 A 
ATOM     10  C   UNL d   1      30.493 -17.475  -0.250  0.00  0.00     0.058 A 
ATOM     11  C   UNL d   1      31.324 -16.493  -0.740  0.00  0.00     0.112 A 
ATOM     12  N   UNL d   1      30.503 -15.567  -1.309  0.00  0.00    -0.289 N 
ATOM     13  N   UNL d   1      29.200 -15.888  -1.227  0.00  0.00    -0.170 NA
ATOM     14  H   UNL d   1      30.767 -14.702  -1.774  0.00  0.00     0.188 HD
ENDBRANCH   6   9
ENDBRANCH   1   5
BRANCH   1  15
ATOM     15  C   UNL d   1      24.578 -17.796   0.428  0.00  0.00     0.148 C 
BRANCH  15  16
ATOM     16  N   UNL d   1      23.322 -18.547   0.406  0.00  0.00    -0.354 N 
ATOM     17  C   UNL d   1      22.159 -17.964  -0.068  0.00  0.00     0.272 C 
ATOM     18  O   UNL d   1      22.130 -16.791  -0.443  0.00  0.00    -0.266 OA
ATOM     19  H   UNL d   1      23.303 -19.545   0.593  0.00  0.00     0.162 HD
BRANCH  17  20
ATOM     20  C   UNL d   1      20.970 -18.834  -0.190  0.00  0.00     0.145 A 
ATOM     21  C   UNL d   1      20.799 -20.076   0.484  0.00  0.00     0.058 A 
ATOM     22  C   UNL d   1      19.608 -20.590   0.038  0.00  0.00     0.112 A 
ATOM     23  N   UNL d   1      19.139 -19.689  -0.870  0.00  0.00    -0.289 N 
ATOM     24  N   UNL d   1      19.904 -18.576  -0.979  0.00  0.00    -0.170 NA
ATOM     25  H   UNL d   1      18.300 -19.767  -1.436  0.00  0.00     0.188 HD
ENDBRANCH  17  20
ENDBRANCH  15  16
ENDBRANCH   1  15
TORSDOF 6
ENDMDL
