MODEL 1
REMARK VINA RESULT:   -28.318      0.000      0.000
REMARK INTER + INTRA:         -31.046
REMARK INTER:                 -30.107
REMARK INTRA:                  -0.939
REMARK CONF_INDEPENDENT:        1.790
REMARK UNBOUND:                -0.939
REMARK  6 active torsions:
REMARK  status: ('A' for Active; 'I' for Inactive)
REMARK    1  A    between atoms: C_2  and  C_23 
REMARK    2  A    between atoms: N_3  and  N_4 
REMARK       I    between atoms: N_4  and  C_5 
REMARK    3  A    between atoms: C_5  and  C_7 
REMARK    4  A    between atoms: C_10  and  N_11 
REMARK       I    between atoms: N_11  and  C_12 
REMARK    5  A    between atoms: C_12  and  C_14 
REMARK    6  A    between atoms: C_26  and  N_27 
ROOT
ATOM      1  C   UNL d   1      28.460 -13.785   1.249  0.00  0.00     0.033 A 
ATOM      2  C   UNL d   1      29.540 -14.660   1.043  0.00  0.00     0.019 A 
ATOM      3  C   UNL d   1      30.833 -14.330   1.514  0.00  0.00     0.030 A 
ATOM      4  C   UNL d   1      31.069 -13.100   2.148  0.00  0.00     0.035 A 
ATOM      5  C   UNL d   1      29.977 -12.253   2.345  0.00  0.00     0.030 A 
ATOM      6  C   UNL d   1      28.692 -12.584   1.911  0.00  0.00     0.019 A 
ENDROOT
BRANCH   1   7
ATOM      7  C   UNL d   1      27.058 -14.169   0.895  0.00  0.00     0.271 C 
ATOM      8  N   UNL d   1      26.914 -15.401   0.262  0.00  0.00    -0.243 N 
ATOM      9  H   UNL d   1      27.723 -16.000   0.183  0.00  0.00     0.192 HD
ATOM     10  O   UNL d   1      26.150 -13.381   1.163  0.00  0.00    -0.266 OA
BRANCH   8  11
ATOM     11  N   UNL d   1      25.681 -15.852  -0.147  0.00  0.00    -0.176 NA
ATOM     12  C   UNL d   1      25.341 -17.104   0.011  0.00  0.00     0.061 C 
ATOM     13  C   UNL d   1      26.230 -18.185   0.601  0.00  0.00     0.073 C 
BRANCH  12  14
ATOM     14  C   UNL d   1      23.945 -17.533  -0.384  0.00  0.00    -0.010 A 
ATOM     15  C   UNL d   1      22.969 -16.588  -0.717  0.00  0.00     0.015 A 
ATOM     16  C   UNL d   1      21.629 -16.980  -0.895  0.00  0.00     0.024 A 
ATOM     17  C   UNL d   1      21.253 -18.327  -0.851  0.00  0.00     0.005 A 
ATOM     18  C   UNL d   1      22.232 -19.265  -0.520  0.00  0.00     0.024 A 
ATOM     19  C   UNL d   1      23.566 -18.880  -0.308  0.00  0.00     0.015 A 
BRANCH  17  20
ATOM     20  N   UNL d   1      19.905 -18.695  -0.895  0.00  0.00    -0.303 NA
ATOM     21  H   UNL d   1      19.272 -17.981  -1.244  0.00  0.00     0.124 HD
ATOM     22  H   UNL d   1      19.713 -19.613  -1.284  0.00  0.00     0.124 HD
ENDBRANCH  17  20
ENDBRANCH  12  14
ENDBRANCH   8  11
ENDBRANCH   1   7
BRANCH   4  23
ATOM     23  N   UNL d   1      32.383 -12.735   2.551  0.00  0.00    -0.323 N 
ATOM     24  C   UNL d   1      32.708 -11.994   3.686  0.00  0.00     0.256 C 
ATOM     25  O   UNL d   1      31.931 -11.639   4.572  0.00  0.00    -0.267 OA
ATOM     26  H   UNL d   1      33.135 -13.002   1.927  0.00  0.00     0.169 HD
BRANCH  24  27
ATOM     27  C   UNL d   1      34.118 -11.547   3.866  0.00  0.00     0.038 A 
ATOM     28  C   UNL d   1      34.719 -11.816   5.112  0.00  0.00     0.017 A 
ATOM     29  C   UNL d   1      35.961 -11.268   5.440  0.00  0.00     0.001 A 
ATOM     30  C   UNL d   1      36.634 -10.483   4.511  0.00  0.00     0.001 A 
ATOM     31  C   UNL d   1      36.043 -10.201   3.278  0.00  0.00     0.007 A 
ATOM     32  C   UNL d   1      34.777 -10.716   2.943  0.00  0.00    -0.046 A 
ATOM     33  C   UNL d   1      34.159 -10.318   1.638  0.00  0.00     0.049 C 
ENDBRANCH  24  27
ENDBRANCH   4  23
TORSDOF 6
ENDMDL
MODEL 2
REMARK VINA RESULT:   -28.290      1.396      1.530
REMARK INTER + INTRA:         -30.946
REMARK INTER:                 -30.080
REMARK INTRA:                  -0.866
REMARK CONF_INDEPENDENT:        1.790
REMARK UNBOUND:                -0.866
REMARK  6 active torsions:
REMARK  status: ('A' for Active; 'I' for Inactive)
REMARK    1  A    between atoms: C_2  and  C_23 
REMARK    2  A    between atoms: N_3  and  N_4 
REMARK       I    between atoms: N_4  and  C_5 
REMARK    3  A    between atoms: C_5  and  C_7 
REMARK    4  A    between atoms: C_10  and  N_11 
REMARK       I    between atoms: N_11  and  C_12 
REMARK    5  A    between atoms: C_12  and  C_14 
REMARK    6  A    between atoms: C_26  and  N_27 
ROOT
ATOM      1  C   UNL d   1      29.358 -15.372   0.270  0.00  0.00     0.033 A 
ATOM      2  C   UNL d   1      30.596 -15.992   0.031  0.00  0.00     0.019 A 
ATOM      3  C   UNL d   1      31.763 -15.551   0.698  0.00  0.00     0.030 A 
ATOM      4  C   UNL d   1      31.713 -14.451   1.571  0.00  0.00     0.035 A 
ATOM      5  C   UNL d   1      30.469 -13.857   1.795  0.00  0.00     0.030 A 
ATOM      6  C   UNL d   1      29.308 -14.307   1.163  0.00  0.00     0.019 A 
ENDROOT
BRANCH   1   7
ATOM      7  C   UNL d   1      28.086 -15.907  -0.306  0.00  0.00     0.271 C 
ATOM      8  N   UNL d   1      26.916 -15.447   0.291  0.00  0.00    -0.243 N 
ATOM      9  H   UNL d   1      26.983 -14.713   0.981  0.00  0.00     0.192 HD
ATOM     10  O   UNL d   1      28.158 -16.715  -1.234  0.00  0.00    -0.266 OA
BRANCH   8  11
ATOM     11  N   UNL d   1      25.681 -15.892  -0.123  0.00  0.00    -0.176 NA
ATOM     12  C   UNL d   1      25.345 -17.148   0.009  0.00  0.00     0.061 C 
ATOM     13  C   UNL d   1      26.238 -18.239   0.574  0.00  0.00     0.073 C 
BRANCH  12  14
ATOM     14  C   UNL d   1      23.949 -17.571  -0.389  0.00  0.00    -0.010 A 
ATOM     15  C   UNL d   1      22.977 -16.622  -0.724  0.00  0.00     0.015 A 
ATOM     16  C   UNL d   1      21.636 -17.009  -0.905  0.00  0.00     0.024 A 
ATOM     17  C   UNL d   1      21.255 -18.354  -0.863  0.00  0.00     0.005 A 
ATOM     18  C   UNL d   1      22.229 -19.296  -0.532  0.00  0.00     0.024 A 
ATOM     19  C   UNL d   1      23.564 -18.916  -0.316  0.00  0.00     0.015 A 
BRANCH  17  20
ATOM     20  N   UNL d   1      19.905 -18.717  -0.911  0.00  0.00    -0.303 NA
ATOM     21  H   UNL d   1      19.570 -19.249  -0.113  0.00  0.00     0.124 HD
ATOM     22  H   UNL d   1      19.263 -17.981  -1.189  0.00  0.00     0.124 HD
ENDBRANCH  17  20
ENDBRANCH  12  14
ENDBRANCH   8  11
ENDBRANCH   1   7
BRANCH   4  23
ATOM     23  N   UNL d   1      32.900 -13.958   2.180  0.00  0.00    -0.323 N 
ATOM     24  C   UNL d   1      33.030 -12.730   2.827  0.00  0.00     0.256 C 
ATOM     25  O   UNL d   1      32.123 -11.935   3.072  0.00  0.00    -0.267 OA
ATOM     26  H   UNL d   1      33.726 -14.537   2.090  0.00  0.00     0.169 HD
BRANCH  24  27
ATOM     27  C   UNL d   1      34.388 -12.290   3.254  0.00  0.00     0.038 A 
ATOM     28  C   UNL d   1      34.512 -11.782   4.562  0.00  0.00     0.017 A 
ATOM     29  C   UNL d   1      35.695 -11.170   4.982  0.00  0.00     0.001 A 
ATOM     30  C   UNL d   1      36.780 -11.099   4.115  0.00  0.00     0.001 A 
ATOM     31  C   UNL d   1      36.664 -11.590   2.814  0.00  0.00     0.007 A 
ATOM     32  C   UNL d   1      35.468 -12.179   2.362  0.00  0.00    -0.046 A 
ATOM     33  C   UNL d   1      35.377 -12.617   0.932  0.00  0.00     0.049 C 
ENDBRANCH  24  27
ENDBRANCH   4  23
TORSDOF 6
ENDMDL
MODEL 3
REMARK VINA RESULT:   -28.271      6.503      7.597
REMARK INTER + INTRA:         -30.908
REMARK INTER:                 -30.061
REMARK INTRA:                  -0.847
REMARK CONF_INDEPENDENT:        1.790
REMARK UNBOUND:                -0.847
REMARK  6 active torsions:
REMARK  status: ('A' for Active; 'I' for Inactive)
REMARK    1  A    between atoms: C_2  and  C_23 
REMARK    2  A    between atoms: N_3  and  N_4 
REMARK       I    between atoms: N_4  and  C_5 
REMARK    3  A    between atoms: C_5  and  C_7 
REMARK    4  A    between atoms: C_10  and  N_11 
REMARK       I    between atoms: N_11  and  C_12 
REMARK    5  A    between atoms: C_12  and  C_14 
REMARK    6  A    between atoms: C_26  and  N_27 
ROOT
ATOM      1  C   UNL d   1      28.337 -14.888  -4.824  0.00  0.00     0.033 A 
ATOM      2  C   UNL d   1      29.215 -14.581  -3.771  0.00  0.00     0.019 A 
ATOM      3  C   UNL d   1      30.457 -13.953  -4.029  0.00  0.00     0.030 A 
ATOM      4  C   UNL d   1      30.855 -13.675  -5.347  0.00  0.00     0.035 A 
ATOM      5  C   UNL d   1      29.961 -13.985  -6.373  0.00  0.00     0.030 A 
ATOM      6  C   UNL d   1      28.720 -14.577  -6.124  0.00  0.00     0.019 A 
ENDROOT
BRANCH   1   7
ATOM      7  C   UNL d   1      26.960 -15.415  -4.571  0.00  0.00     0.271 C 
ATOM      8  N   UNL d   1      26.681 -15.758  -3.251  0.00  0.00    -0.243 N 
ATOM      9  H   UNL d   1      27.361 -15.531  -2.540  0.00  0.00     0.192 HD
ATOM     10  O   UNL d   1      26.191 -15.526  -5.528  0.00  0.00    -0.266 OA
BRANCH   8  11
ATOM     11  N   UNL d   1      25.462 -16.288  -2.895  0.00  0.00    -0.176 NA
ATOM     12  C   UNL d   1      25.278 -16.803  -1.708  0.00  0.00     0.061 C 
ATOM     13  C   UNL d   1      26.341 -16.916  -0.628  0.00  0.00     0.073 C 
BRANCH  12  14
ATOM     14  C   UNL d   1      23.899 -17.301  -1.339  0.00  0.00    -0.010 A 
ATOM     15  C   UNL d   1      23.599 -18.668  -1.359  0.00  0.00     0.015 A 
ATOM     16  C   UNL d   1      22.271 -19.107  -1.202  0.00  0.00     0.024 A 
ATOM     17  C   UNL d   1      21.236 -18.210  -0.917  0.00  0.00     0.005 A 
ATOM     18  C   UNL d   1      21.543 -16.850  -0.895  0.00  0.00     0.024 A 
ATOM     19  C   UNL d   1      22.860 -16.397  -1.084  0.00  0.00     0.015 A 
BRANCH  17  20
ATOM     20  N   UNL d   1      19.905 -18.638  -0.895  0.00  0.00    -0.303 NA
ATOM     21  H   UNL d   1      19.220 -17.939  -1.168  0.00  0.00     0.124 HD
ATOM     22  H   UNL d   1      19.729 -19.545  -1.316  0.00  0.00     0.124 HD
ENDBRANCH  17  20
ENDBRANCH  12  14
ENDBRANCH   8  11
ENDBRANCH   1   7
BRANCH   4  23
ATOM     23  N   UNL d   1      32.136 -13.117  -5.612  0.00  0.00    -0.323 N 
ATOM     24  C   UNL d   1      32.719 -12.986  -6.872  0.00  0.00     0.256 C 
ATOM     25  O   UNL d   1      32.182 -13.223  -7.953  0.00  0.00    -0.267 OA
ATOM     26  H   UNL d   1      32.680 -12.836  -4.805  0.00  0.00     0.169 HD
BRANCH  24  27
ATOM     27  C   UNL d   1      34.140 -12.543  -6.957  0.00  0.00     0.038 A 
ATOM     28  C   UNL d   1      34.380 -11.156  -6.911  0.00  0.00     0.017 A 
ATOM     29  C   UNL d   1      35.651 -10.641  -7.177  0.00  0.00     0.001 A 
ATOM     30  C   UNL d   1      36.703 -11.509  -7.447  0.00  0.00     0.001 A 
ATOM     31  C   UNL d   1      36.473 -12.885  -7.505  0.00  0.00     0.007 A 
ATOM     32  C   UNL d   1      35.192 -13.419  -7.274  0.00  0.00    -0.046 A 
ATOM     33  C   UNL d   1      34.990 -14.897  -7.426  0.00  0.00     0.049 C 
ENDBRANCH  24  27
ENDBRANCH   4  23
TORSDOF 6
ENDMDL
MODEL 4
REMARK VINA RESULT:   -28.270      1.390      1.712
REMARK INTER + INTRA:         -30.913
REMARK INTER:                 -30.060
REMARK INTRA:                  -0.852
REMARK CONF_INDEPENDENT:        1.790
REMARK UNBOUND:                -0.852
REMARK  6 active torsions:
REMARK  status: ('A' for Active; 'I' for Inactive)
REMARK    1  A    between atoms: C_2  and  C_23 
REMARK    2  A    between atoms: N_3  and  N_4 
REMARK       I    between atoms: N_4  and  C_5 
REMARK    3  A    between atoms: C_5  and  C_7 
REMARK    4  A    between atoms: C_10  and  N_11 
REMARK       I    between atoms: N_11  and  C_12 
REMARK    5  A    between atoms: C_12  and  C_14 
REMARK    6  A    between atoms: C_26  and  N_27 
ROOT
ATOM      1  C   UNL d   1      29.229 -15.270   0.673  0.00  0.00     0.033 A 
ATOM      2  C   UNL d   1      30.503 -15.782   0.381  0.00  0.00     0.019 A 
ATOM      3  C   UNL d   1      31.637 -15.351   1.110  0.00  0.00     0.030 A 
ATOM      4  C   UNL d   1      31.514 -14.365   2.102  0.00  0.00     0.035 A 
ATOM      5  C   UNL d   1      30.235 -13.877   2.376  0.00  0.00     0.030 A 
ATOM      6  C   UNL d   1      29.107 -14.320   1.682  0.00  0.00     0.019 A 
ENDROOT
BRANCH   1   7
ATOM      7  C   UNL d   1      27.995 -15.812   0.023  0.00  0.00     0.271 C 
ATOM      8  N   UNL d   1      26.791 -15.416   0.597  0.00  0.00    -0.243 N 
ATOM      9  H   UNL d   1      26.810 -14.716   1.325  0.00  0.00     0.192 HD
ATOM     10  O   UNL d   1      28.126 -16.568  -0.941  0.00  0.00    -0.266 OA
BRANCH   8  11
ATOM     11  N   UNL d   1      25.586 -15.874   0.115  0.00  0.00    -0.176 NA
ATOM     12  C   UNL d   1      25.266 -17.137   0.210  0.00  0.00     0.061 C 
ATOM     13  C   UNL d   1      26.148 -18.224   0.800  0.00  0.00     0.073 C 
BRANCH  12  14
ATOM     14  C   UNL d   1      23.899 -17.577  -0.265  0.00  0.00    -0.010 A 
ATOM     15  C   UNL d   1      22.931 -16.639  -0.640  0.00  0.00     0.015 A 
ATOM     16  C   UNL d   1      21.607 -17.044  -0.895  0.00  0.00     0.024 A 
ATOM     17  C   UNL d   1      21.246 -18.395  -0.887  0.00  0.00     0.005 A 
ATOM     18  C   UNL d   1      22.216 -19.326  -0.516  0.00  0.00     0.024 A 
ATOM     19  C   UNL d   1      23.532 -18.929  -0.227  0.00  0.00     0.015 A 
BRANCH  17  20
ATOM     20  N   UNL d   1      19.906 -18.778  -1.009  0.00  0.00    -0.303 NA
ATOM     21  H   UNL d   1      19.329 -18.163  -1.576  0.00  0.00     0.124 HD
ATOM     22  H   UNL d   1      19.747 -19.760  -1.210  0.00  0.00     0.124 HD
ENDBRANCH  17  20
ENDBRANCH  12  14
ENDBRANCH   8  11
ENDBRANCH   1   7
BRANCH   4  23
ATOM     23  N   UNL d   1      32.665 -13.874   2.779  0.00  0.00    -0.323 N 
ATOM     24  C   UNL d   1      32.824 -12.581   3.276  0.00  0.00     0.256 C 
ATOM     25  O   UNL d   1      31.965 -11.702   3.310  0.00  0.00    -0.267 OA
ATOM     26  H   UNL d   1      33.445 -14.514   2.861  0.00  0.00     0.169 HD
BRANCH  24  27
ATOM     27  C   UNL d   1      34.160 -12.179   3.801  0.00  0.00     0.038 A 
ATOM     28  C   UNL d   1      35.289 -12.694   3.136  0.00  0.00     0.017 A 
ATOM     29  C   UNL d   1      36.570 -12.531   3.669  0.00  0.00     0.001 A 
ATOM     30  C   UNL d   1      36.739 -11.815   4.848  0.00  0.00     0.001 A 
ATOM     31  C   UNL d   1      35.626 -11.310   5.522  0.00  0.00     0.007 A 
ATOM     32  C   UNL d   1      34.325 -11.494   5.017  0.00  0.00    -0.046 A 
ATOM     33  C   UNL d   1      33.163 -10.996   5.823  0.00  0.00     0.049 C 
ENDBRANCH  24  27
ENDBRANCH   4  23
TORSDOF 6
ENDMDL
MODEL 5
REMARK VINA RESULT:   -28.213      6.096      7.293
REMARK INTER + INTRA:         -30.895
REMARK INTER:                 -30.003
REMARK INTRA:                  -0.892
REMARK CONF_INDEPENDENT:        1.790
REMARK UNBOUND:                -0.892
REMARK  6 active torsions:
REMARK  status: ('A' for Active; 'I' for Inactive)
REMARK    1  A    between atoms: C_2  and  C_23 
REMARK    2  A    between atoms: N_3  and  N_4 
REMARK       I    between atoms: N_4  and  C_5 
REMARK    3  A    between atoms: C_5  and  C_7 
REMARK    4  A    between atoms: C_10  and  N_11 
REMARK       I    between atoms: N_11  and  C_12 
REMARK    5  A    between atoms: C_12  and  C_14 
REMARK    6  A    between atoms: C_26  and  N_27 
ROOT
ATOM      1  C   UNL d   1      28.311 -14.671  -4.673  0.00  0.00     0.033 A 
ATOM      2  C   UNL d   1      28.931 -13.863  -3.706  0.00  0.00     0.019 A 
ATOM      3  C   UNL d   1      30.149 -13.202  -3.992  0.00  0.00     0.030 A 
ATOM      4  C   UNL d   1      30.786 -13.386  -5.230  0.00  0.00     0.035 A 
ATOM      5  C   UNL d   1      30.145 -14.190  -6.175  0.00  0.00     0.030 A 
ATOM      6  C   UNL d   1      28.927 -14.820  -5.911  0.00  0.00     0.019 A 
ENDROOT
BRANCH   1   7
ATOM      7  C   UNL d   1      26.954 -15.261  -4.453  0.00  0.00     0.271 C 
ATOM      8  N   UNL d   1      26.586 -15.442  -3.123  0.00  0.00    -0.243 N 
ATOM      9  H   UNL d   1      27.187 -15.071  -2.401  0.00  0.00     0.192 HD
ATOM     10  O   UNL d   1      26.278 -15.558  -5.439  0.00  0.00    -0.266 OA
BRANCH   8  11
ATOM     11  N   UNL d   1      25.378 -16.009  -2.788  0.00  0.00    -0.176 NA
ATOM     12  C   UNL d   1      25.225 -16.631  -1.649  0.00  0.00     0.061 C 
ATOM     13  C   UNL d   1      26.313 -16.836  -0.609  0.00  0.00     0.073 C 
BRANCH  12  14
ATOM     14  C   UNL d   1      23.857 -17.170  -1.295  0.00  0.00    -0.010 A 
ATOM     15  C   UNL d   1      23.602 -18.545  -1.300  0.00  0.00     0.015 A 
ATOM     16  C   UNL d   1      22.286 -19.026  -1.158  0.00  0.00     0.024 A 
ATOM     17  C   UNL d   1      21.218 -18.159  -0.902  0.00  0.00     0.005 A 
ATOM     18  C   UNL d   1      21.480 -16.789  -0.896  0.00  0.00     0.024 A 
ATOM     19  C   UNL d   1      22.784 -16.297  -1.069  0.00  0.00     0.015 A 
BRANCH  17  20
ATOM     20  N   UNL d   1      19.901 -18.630  -0.896  0.00  0.00    -0.303 NA
ATOM     21  H   UNL d   1      19.223 -18.028  -1.355  0.00  0.00     0.124 HD
ATOM     22  H   UNL d   1      19.784 -19.609  -1.138  0.00  0.00     0.124 HD
ENDBRANCH  17  20
ENDBRANCH  12  14
ENDBRANCH   8  11
ENDBRANCH   1   7
BRANCH   4  23
ATOM     23  N   UNL d   1      32.049 -12.786  -5.489  0.00  0.00    -0.323 N 
ATOM     24  C   UNL d   1      32.320 -11.872  -6.507  0.00  0.00     0.256 C 
ATOM     25  O   UNL d   1      31.497 -11.357  -7.263  0.00  0.00    -0.267 OA
ATOM     26  H   UNL d   1      32.819 -13.091  -4.907  0.00  0.00     0.169 HD
BRANCH  24  27
ATOM     27  C   UNL d   1      33.736 -11.476  -6.751  0.00  0.00     0.038 A 
ATOM     28  C   UNL d   1      34.210 -11.583  -8.072  0.00  0.00     0.017 A 
ATOM     29  C   UNL d   1      35.567 -11.422  -8.361  0.00  0.00     0.001 A 
ATOM     30  C   UNL d   1      36.456 -11.108  -7.339  0.00  0.00     0.001 A 
ATOM     31  C   UNL d   1      35.998 -11.010  -6.024  0.00  0.00     0.007 A 
ATOM     32  C   UNL d   1      34.640 -11.204  -5.709  0.00  0.00    -0.046 A 
ATOM     33  C   UNL d   1      34.220 -11.163  -4.271  0.00  0.00     0.049 C 
ENDBRANCH  24  27
ENDBRANCH   4  23
TORSDOF 6
ENDMDL
MODEL 6
REMARK VINA RESULT:   -28.193      5.703      6.649
REMARK INTER + INTRA:         -30.882
REMARK INTER:                 -29.983
REMARK INTRA:                  -0.900
REMARK CONF_INDEPENDENT:        1.790
REMARK UNBOUND:                -0.900
REMARK  6 active torsions:
REMARK  status: ('A' for Active; 'I' for Inactive)
REMARK    1  A    between atoms: C_2  and  C_23 
REMARK    2  A    between atoms: N_3  and  N_4 
REMARK       I    between atoms: N_4  and  C_5 
REMARK    3  A    between atoms: C_5  and  C_7 
REMARK    4  A    between atoms: C_10  and  N_11 
REMARK       I    between atoms: N_11  and  C_12 
REMARK    5  A    between atoms: C_12  and  C_14 
REMARK    6  A    between atoms: C_26  and  N_27 
ROOT
ATOM      1  C   UNL d   1      28.315 -14.682  -4.678  0.00  0.00     0.033 A 
ATOM      2  C   UNL d   1      28.943 -13.886  -3.707  0.00  0.00     0.019 A 
ATOM      3  C   UNL d   1      30.164 -13.229  -3.993  0.00  0.00     0.030 A 
ATOM      4  C   UNL d   1      30.793 -13.404  -5.236  0.00  0.00     0.035 A 
ATOM      5  C   UNL d   1      30.144 -14.196  -6.186  0.00  0.00     0.030 A 
ATOM      6  C   UNL d   1      28.924 -14.823  -5.921  0.00  0.00     0.019 A 
ENDROOT
BRANCH   1   7
ATOM      7  C   UNL d   1      26.956 -15.267  -4.457  0.00  0.00     0.271 C 
ATOM      8  N   UNL d   1      26.593 -15.457  -3.127  0.00  0.00    -0.243 N 
ATOM      9  H   UNL d   1      27.199 -15.094  -2.405  0.00  0.00     0.192 HD
ATOM     10  O   UNL d   1      26.274 -15.553  -5.443  0.00  0.00    -0.266 OA
BRANCH   8  11
ATOM     11  N   UNL d   1      25.384 -16.021  -2.791  0.00  0.00    -0.176 NA
ATOM     12  C   UNL d   1      25.231 -16.648  -1.655  0.00  0.00     0.061 C 
ATOM     13  C   UNL d   1      26.322 -16.862  -0.619  0.00  0.00     0.073 C 
BRANCH  12  14
ATOM     14  C   UNL d   1      23.862 -17.183  -1.299  0.00  0.00    -0.010 A 
ATOM     15  C   UNL d   1      23.604 -18.558  -1.300  0.00  0.00     0.015 A 
ATOM     16  C   UNL d   1      22.288 -19.035  -1.157  0.00  0.00     0.024 A 
ATOM     17  C   UNL d   1      21.222 -18.166  -0.904  0.00  0.00     0.005 A 
ATOM     18  C   UNL d   1      21.486 -16.796  -0.901  0.00  0.00     0.024 A 
ATOM     19  C   UNL d   1      22.791 -16.307  -1.076  0.00  0.00     0.015 A 
BRANCH  17  20
ATOM     20  N   UNL d   1      19.904 -18.634  -0.896  0.00  0.00    -0.303 NA
ATOM     21  H   UNL d   1      19.227 -18.032  -1.356  0.00  0.00     0.124 HD
ATOM     22  H   UNL d   1      19.785 -19.613  -1.137  0.00  0.00     0.124 HD
ENDBRANCH  17  20
ENDBRANCH  12  14
ENDBRANCH   8  11
ENDBRANCH   1   7
BRANCH   4  23
ATOM     23  N   UNL d   1      32.058 -12.808  -5.496  0.00  0.00    -0.323 N 
ATOM     24  C   UNL d   1      33.281 -13.248  -4.991  0.00  0.00     0.256 C 
ATOM     25  O   UNL d   1      33.476 -14.275  -4.342  0.00  0.00    -0.267 OA
ATOM     26  H   UNL d   1      32.052 -11.967  -6.059  0.00  0.00     0.169 HD
BRANCH  24  27
ATOM     27  C   UNL d   1      34.490 -12.405  -5.216  0.00  0.00     0.038 A 
ATOM     28  C   UNL d   1      35.259 -12.076  -4.083  0.00  0.00     0.017 A 
ATOM     29  C   UNL d   1      36.290 -11.139  -4.167  0.00  0.00     0.001 A 
ATOM     30  C   UNL d   1      36.592 -10.555  -5.392  0.00  0.00     0.001 A 
ATOM     31  C   UNL d   1      35.830 -10.865  -6.518  0.00  0.00     0.007 A 
ATOM     32  C   UNL d   1      34.764 -11.782  -6.446  0.00  0.00    -0.046 A 
ATOM     33  C   UNL d   1      33.932 -12.019  -7.669  0.00  0.00     0.049 C 
ENDBRANCH  24  27
ENDBRANCH   4  23
TORSDOF 6
ENDMDL
MODEL 7
REMARK VINA RESULT:   -27.210      3.640      4.189
REMARK INTER + INTRA:         -29.981
REMARK INTER:                 -29.000
REMARK INTRA:                  -0.981
REMARK CONF_INDEPENDENT:        1.790
REMARK UNBOUND:                -0.981
REMARK  6 active torsions:
REMARK  status: ('A' for Active; 'I' for Inactive)
REMARK    1  A    between atoms: C_2  and  C_23 
REMARK    2  A    between atoms: N_3  and  N_4 
REMARK       I    between atoms: N_4  and  C_5 
REMARK    3  A    between atoms: C_5  and  C_7 
REMARK    4  A    between atoms: C_10  and  N_11 
REMARK       I    between atoms: N_11  and  C_12 
REMARK    5  A    between atoms: C_12  and  C_14 
REMARK    6  A    between atoms: C_26  and  N_27 
ROOT
ATOM      1  C   UNL d   1      28.676 -14.667  -2.817  0.00  0.00     0.033 A 
ATOM      2  C   UNL d   1      29.820 -15.449  -2.589  0.00  0.00     0.019 A 
ATOM      3  C   UNL d   1      31.082 -14.840  -2.397  0.00  0.00     0.030 A 
ATOM      4  C   UNL d   1      31.221 -13.445  -2.485  0.00  0.00     0.035 A 
ATOM      5  C   UNL d   1      30.067 -12.691  -2.707  0.00  0.00     0.030 A 
ATOM      6  C   UNL d   1      28.813 -13.283  -2.866  0.00  0.00     0.019 A 
ENDROOT
BRANCH   1   7
ATOM      7  C   UNL d   1      27.308 -15.271  -2.876  0.00  0.00     0.271 C 
ATOM      8  N   UNL d   1      26.682 -15.461  -1.648  0.00  0.00    -0.243 N 
ATOM      9  H   UNL d   1      27.122 -15.087  -0.819  0.00  0.00     0.192 HD
ATOM     10  O   UNL d   1      26.848 -15.570  -3.979  0.00  0.00    -0.266 OA
BRANCH   8  11
ATOM     11  N   UNL d   1      25.437 -16.041  -1.564  0.00  0.00    -0.176 NA
ATOM     12  C   UNL d   1      25.213 -17.027  -0.737  0.00  0.00     0.061 C 
ATOM     13  C   UNL d   1      26.252 -17.661   0.172  0.00  0.00     0.073 C 
BRANCH  12  14
ATOM     14  C   UNL d   1      23.809 -17.578  -0.627  0.00  0.00    -0.010 A 
ATOM     15  C   UNL d   1      23.587 -18.945  -0.428  0.00  0.00     0.015 A 
ATOM     16  C   UNL d   1      22.286 -19.475  -0.519  0.00  0.00     0.024 A 
ATOM     17  C   UNL d   1      21.173 -18.647  -0.701  0.00  0.00     0.005 A 
ATOM     18  C   UNL d   1      21.402 -17.284  -0.895  0.00  0.00     0.024 A 
ATOM     19  C   UNL d   1      22.700 -16.749  -0.840  0.00  0.00     0.015 A 
BRANCH  17  20
ATOM     20  N   UNL d   1      19.905 -19.192  -0.923  0.00  0.00    -0.303 NA
ATOM     21  H   UNL d   1      19.337 -18.704  -1.610  0.00  0.00     0.124 HD
ATOM     22  H   UNL d   1      19.875 -20.200  -1.034  0.00  0.00     0.124 HD
ENDBRANCH  17  20
ENDBRANCH  12  14
ENDBRANCH   8  11
ENDBRANCH   1   7
BRANCH   4  23
ATOM     23  N   UNL d   1      32.503 -12.838  -2.372  0.00  0.00    -0.323 N 
ATOM     24  C   UNL d   1      32.836 -11.803  -1.500  0.00  0.00     0.256 C 
ATOM     25  O   UNL d   1      32.118 -11.330  -0.620  0.00  0.00    -0.267 OA
ATOM     26  H   UNL d   1      33.213 -13.164  -3.016  0.00  0.00     0.169 HD
BRANCH  24  27
ATOM     27  C   UNL d   1      34.175 -11.162  -1.633  0.00  0.00     0.038 A 
ATOM     28  C   UNL d   1      35.022 -11.212  -0.508  0.00  0.00     0.017 A 
ATOM     29  C   UNL d   1      36.208 -10.477  -0.473  0.00  0.00     0.001 A 
ATOM     30  C   UNL d   1      36.583  -9.721  -1.578  0.00  0.00     0.001 A 
ATOM     31  C   UNL d   1      35.747  -9.655  -2.693  0.00  0.00     0.007 A 
ATOM     32  C   UNL d   1      34.530 -10.362  -2.733  0.00  0.00    -0.046 A 
ATOM     33  C   UNL d   1      33.637 -10.193  -3.925  0.00  0.00     0.049 C 
ENDBRANCH  24  27
ENDBRANCH   4  23
TORSDOF 6
ENDMDL
MODEL 8
REMARK VINA RESULT:   -27.158      2.260      3.361
REMARK INTER + INTRA:         -29.969
REMARK INTER:                 -28.948
REMARK INTRA:                  -1.021
REMARK CONF_INDEPENDENT:        1.790
REMARK UNBOUND:                -1.021
REMARK  6 active torsions:
REMARK  status: ('A' for Active; 'I' for Inactive)
REMARK    1  A    between atoms: C_2  and  C_23 
REMARK    2  A    between atoms: N_3  and  N_4 
REMARK       I    between atoms: N_4  and  C_5 
REMARK    3  A    between atoms: C_5  and  C_7 
REMARK    4  A    between atoms: C_10  and  N_11 
REMARK       I    between atoms: N_11  and  C_12 
REMARK    5  A    between atoms: C_12  and  C_14 
REMARK    6  A    between atoms: C_26  and  N_27 
ROOT
ATOM      1  C   UNL d   1      28.657 -14.180  -0.280  0.00  0.00     0.033 A 
ATOM      2  C   UNL d   1      29.468 -13.901   0.832  0.00  0.00     0.019 A 
ATOM      3  C   UNL d   1      30.722 -13.267   0.668  0.00  0.00     0.030 A 
ATOM      4  C   UNL d   1      31.201 -12.954  -0.614  0.00  0.00     0.035 A 
ATOM      5  C   UNL d   1      30.372 -13.237  -1.702  0.00  0.00     0.030 A 
ATOM      6  C   UNL d   1      29.119 -13.834  -1.546  0.00  0.00     0.019 A 
ENDROOT
BRANCH   1   7
ATOM      7  C   UNL d   1      27.268 -14.713  -0.127  0.00  0.00     0.271 C 
ATOM      8  N   UNL d   1      26.822 -15.534  -1.158  0.00  0.00    -0.243 N 
ATOM      9  H   UNL d   1      27.480 -15.810  -1.873  0.00  0.00     0.192 HD
ATOM     10  O   UNL d   1      26.621 -14.382   0.869  0.00  0.00    -0.266 OA
BRANCH   8  11
ATOM     11  N   UNL d   1      25.550 -16.058  -1.153  0.00  0.00    -0.176 NA
ATOM     12  C   UNL d   1      25.270 -17.126  -0.454  0.00  0.00     0.061 C 
ATOM     13  C   UNL d   1      26.267 -17.916   0.376  0.00  0.00     0.073 C 
BRANCH  12  14
ATOM     14  C   UNL d   1      23.840 -17.617  -0.419  0.00  0.00    -0.010 A 
ATOM     15  C   UNL d   1      23.546 -18.958  -0.152  0.00  0.00     0.015 A 
ATOM     16  C   UNL d   1      22.235 -19.445  -0.311  0.00  0.00     0.024 A 
ATOM     17  C   UNL d   1      21.175 -18.591  -0.633  0.00  0.00     0.005 A 
ATOM     18  C   UNL d   1      21.474 -17.253  -0.895  0.00  0.00     0.024 A 
ATOM     19  C   UNL d   1      22.785 -16.764  -0.772  0.00  0.00     0.015 A 
BRANCH  17  20
ATOM     20  N   UNL d   1      19.905 -19.102  -0.919  0.00  0.00    -0.303 NA
ATOM     21  H   UNL d   1      19.387 -18.602  -1.636  0.00  0.00     0.124 HD
ATOM     22  H   UNL d   1      19.853 -20.110  -1.028  0.00  0.00     0.124 HD
ENDBRANCH  17  20
ENDBRANCH  12  14
ENDBRANCH   8  11
ENDBRANCH   1   7
BRANCH   4  23
ATOM     23  N   UNL d   1      32.495 -12.390  -0.785  0.00  0.00    -0.323 N 
ATOM     24  C   UNL d   1      32.936 -11.189  -0.230  0.00  0.00     0.256 C 
ATOM     25  O   UNL d   1      32.326 -10.491   0.578  0.00  0.00    -0.267 OA
ATOM     26  H   UNL d   1      33.125 -12.888  -1.401  0.00  0.00     0.169 HD
BRANCH  24  27
ATOM     27  C   UNL d   1      34.261 -10.653  -0.653  0.00  0.00     0.038 A 
ATOM     28  C   UNL d   1      34.278  -9.807  -1.779  0.00  0.00     0.017 A 
ATOM     29  C   UNL d   1      35.486  -9.416  -2.361  0.00  0.00     0.001 A 
ATOM     30  C   UNL d   1      36.688  -9.829  -1.798  0.00  0.00     0.001 A 
ATOM     31  C   UNL d   1      36.682 -10.676  -0.689  0.00  0.00     0.007 A 
ATOM     32  C   UNL d   1      35.475 -11.109  -0.109  0.00  0.00    -0.046 A 
ATOM     33  C   UNL d   1      35.530 -12.078   1.032  0.00  0.00     0.049 C 
ENDBRANCH  24  27
ENDBRANCH   4  23
TORSDOF 6
ENDMDL
