MODEL 1
REMARK VINA RESULT:   -31.188      0.000      0.000
REMARK INTER + INTRA:         -34.050
REMARK INTER:                 -32.978
REMARK INTRA:                  -1.072
REMARK CONF_INDEPENDENT:        1.790
REMARK UNBOUND:                -1.072
REMARK  6 active torsions:
REMARK  status: ('A' for Active; 'I' for Inactive)
REMARK    1  A    between atoms: C_2  and  C_3 
REMARK       I    between atoms: C_2  and  N_22 
REMARK    2  A    between atoms: C_3  and  S_4 
REMARK    3  A    between atoms: S_4  and  C_5 
REMARK    4  A    between atoms: C_7  and  C_8 
REMARK    5  A    between atoms: C_14  and  C_15 
REMARK    6  A    between atoms: N_22  and  C_23 
ROOT
ATOM      1  C   UNL d   1      28.203 -14.085   0.853  0.00  0.00     0.168 A 
ATOM      2  N   UNL d   1      27.829 -12.825   0.901  0.00  0.00    -0.222 NA
ATOM      3  C   UNL d   1      28.000 -12.443   2.220  0.00  0.00     0.097 A 
ATOM      4  C   UNL d   1      28.461 -13.501   2.995  0.00  0.00     0.074 A 
ATOM      5  N   UNL d   1      28.532 -14.554   2.101  0.00  0.00    -0.333 N 
ATOM      6  H   UNL d   1      28.742 -15.514   2.327  0.00  0.00     0.168 HD
ENDROOT
BRANCH   1   7
ATOM      7  S   UNL d   1      28.146 -15.153  -0.529  0.00  0.00    -0.083 SA
BRANCH   7   8
ATOM      8  C   UNL d   1      26.447 -15.897  -0.458  0.00  0.00     0.185 C 
BRANCH   8   9
ATOM      9  C   UNL d   1      26.390 -17.395  -0.726  0.00  0.00     0.231 C 
ATOM     10  O   UNL d   1      27.436 -18.071  -0.729  0.00  0.00    -0.272 OA
ATOM     11  N   UNL d   1      25.210 -18.132  -0.840  0.00  0.00    -0.333 N 
ATOM     12  H   UNL d   1      25.579 -19.073  -0.649  0.00  0.00     0.168 HD
BRANCH  11  13
ATOM     13  C   UNL d   1      23.738 -18.200  -0.833  0.00  0.00     0.002 C 
ATOM     14  C   UNL d   1      23.430 -18.957   0.247  0.00  0.00     0.052 C 
ATOM     15  C   UNL d   1      22.377 -18.451   0.977  0.00  0.00     0.054 C 
ATOM     16  C   UNL d   1      21.291 -18.884   0.368  0.00  0.00     0.023 C 
ATOM     17  N   UNL d   1      20.778 -20.132   0.618  0.00  0.00    -0.318 N 
ATOM     18  C   UNL d   1      21.018 -18.330  -0.847  0.00  0.00     0.095 C 
ATOM     19  C   UNL d   1      19.726 -20.303  -0.191  0.00  0.00     0.299 C 
ATOM     20  H   UNL d   1      21.057 -20.686   1.412  0.00  0.00     0.169 HD
ATOM     21  O   UNL d   1      18.778 -21.089   0.105  0.00  0.00    -0.254 OA
ATOM     22  N   UNL d   1      19.879 -19.326  -1.270  0.00  0.00    -0.226 NA
ATOM     23  H   UNL d   1      18.917 -19.002  -1.435  0.00  0.00     0.133 HD
ATOM     24  C   UNL d   1      22.426 -17.759  -1.409  0.00  0.00     0.075 C 
ENDBRANCH  11  13
ENDBRANCH   8   9
ENDBRANCH   7   8
ENDBRANCH   1   7
BRANCH   3  25
ATOM     25  C   UNL d   1      27.790 -11.097   2.740  0.00  0.00    -0.005 A 
ATOM     26  C   UNL d   1      28.762 -10.534   3.582  0.00  0.00     0.014 A 
ATOM     27  C   UNL d   1      28.553  -9.296   4.191  0.00  0.00     0.001 A 
ATOM     28  C   UNL d   1      27.405  -8.567   3.900  0.00  0.00     0.000 A 
ATOM     29  C   UNL d   1      26.427  -9.114   3.068  0.00  0.00     0.001 A 
ATOM     30  C   UNL d   1      26.610 -10.384   2.499  0.00  0.00     0.014 A 
ENDBRANCH   3  25
BRANCH   4  31
ATOM     31  C   UNL d   1      28.715 -13.586   4.435  0.00  0.00    -0.007 A 
ATOM     32  C   UNL d   1      27.856 -13.017   5.383  0.00  0.00     0.014 A 
ATOM     33  C   UNL d   1      28.127 -13.150   6.752  0.00  0.00     0.001 A 
ATOM     34  C   UNL d   1      29.204 -13.924   7.187  0.00  0.00     0.000 A 
ATOM     35  C   UNL d   1      30.047 -14.516   6.253  0.00  0.00     0.001 A 
ATOM     36  C   UNL d   1      29.810 -14.337   4.889  0.00  0.00     0.014 A 
ENDBRANCH   4  31
TORSDOF 6
ENDMDL
MODEL 2
REMARK VINA RESULT:   -30.762      0.466      3.197
REMARK INTER + INTRA:         -33.637
REMARK INTER:                 -32.552
REMARK INTRA:                  -1.085
REMARK CONF_INDEPENDENT:        1.790
REMARK UNBOUND:                -1.085
REMARK  6 active torsions:
REMARK  status: ('A' for Active; 'I' for Inactive)
REMARK    1  A    between atoms: C_2  and  C_3 
REMARK       I    between atoms: C_2  and  N_22 
REMARK    2  A    between atoms: C_3  and  S_4 
REMARK    3  A    between atoms: S_4  and  C_5 
REMARK    4  A    between atoms: C_7  and  C_8 
REMARK    5  A    between atoms: C_14  and  C_15 
REMARK    6  A    between atoms: N_22  and  C_23 
ROOT
ATOM      1  C   UNL d   1      27.838 -14.109   0.415  0.00  0.00     0.168 A 
ATOM      2  N   UNL d   1      28.255 -14.612   1.557  0.00  0.00    -0.222 NA
ATOM      3  C   UNL d   1      28.207 -13.564   2.457  0.00  0.00     0.097 A 
ATOM      4  C   UNL d   1      27.779 -12.392   1.844  0.00  0.00     0.074 A 
ATOM      5  N   UNL d   1      27.599 -12.761   0.524  0.00  0.00    -0.333 N 
ATOM      6  H   UNL d   1      27.377 -12.144  -0.243  0.00  0.00     0.168 HD
ENDROOT
BRANCH   1   7
ATOM      7  S   UNL d   1      27.744 -14.923  -1.128  0.00  0.00    -0.083 SA
BRANCH   7   8
ATOM      8  C   UNL d   1      26.063 -15.710  -1.125  0.00  0.00     0.185 C 
BRANCH   8   9
ATOM      9  C   UNL d   1      26.061 -17.222  -0.943  0.00  0.00     0.231 C 
ATOM     10  O   UNL d   1      27.131 -17.831  -0.753  0.00  0.00    -0.272 OA
ATOM     11  N   UNL d   1      24.909 -18.002  -0.832  0.00  0.00    -0.333 N 
ATOM     12  H   UNL d   1      25.310 -18.832  -0.376  0.00  0.00     0.168 HD
BRANCH  11  13
ATOM     13  C   UNL d   1      23.440 -18.118  -0.799  0.00  0.00     0.002 C 
ATOM     14  C   UNL d   1      23.183 -18.980   0.214  0.00  0.00     0.052 C 
ATOM     15  C   UNL d   1      22.134 -18.576   1.010  0.00  0.00     0.054 C 
ATOM     16  C   UNL d   1      21.046 -18.987   0.388  0.00  0.00     0.023 C 
ATOM     17  N   UNL d   1      20.578 -20.269   0.534  0.00  0.00    -0.318 N 
ATOM     18  C   UNL d   1      20.726 -18.334  -0.765  0.00  0.00     0.095 C 
ATOM     19  C   UNL d   1      19.512 -20.400  -0.264  0.00  0.00     0.299 C 
ATOM     20  H   UNL d   1      20.893 -20.883   1.269  0.00  0.00     0.169 HD
ATOM     21  O   UNL d   1      18.596 -21.240  -0.019  0.00  0.00    -0.254 OA
ATOM     22  N   UNL d   1      19.608 -19.324  -1.252  0.00  0.00    -0.226 NA
ATOM     23  H   UNL d   1      18.632 -19.019  -1.365  0.00  0.00     0.133 HD
ATOM     24  C   UNL d   1      22.101 -17.670  -1.303  0.00  0.00     0.075 C 
ENDBRANCH  11  13
ENDBRANCH   8   9
ENDBRANCH   7   8
ENDBRANCH   1   7
BRANCH   3  25
ATOM     25  C   UNL d   1      28.504 -13.664   3.882  0.00  0.00    -0.005 A 
ATOM     26  C   UNL d   1      29.578 -14.465   4.299  0.00  0.00     0.014 A 
ATOM     27  C   UNL d   1      29.830 -14.678   5.654  0.00  0.00     0.001 A 
ATOM     28  C   UNL d   1      29.063 -14.024   6.612  0.00  0.00     0.000 A 
ATOM     29  C   UNL d   1      27.989 -13.227   6.214  0.00  0.00     0.001 A 
ATOM     30  C   UNL d   1      27.698 -13.056   4.852  0.00  0.00     0.014 A 
ENDBRANCH   3  25
BRANCH   4  31
ATOM     31  C   UNL d   1      27.643 -11.034   2.377  0.00  0.00    -0.007 A 
ATOM     32  C   UNL d   1      26.501 -10.254   2.160  0.00  0.00     0.014 A 
ATOM     33  C   UNL d   1      26.405  -8.971   2.716  0.00  0.00     0.001 A 
ATOM     34  C   UNL d   1      27.405  -8.492   3.564  0.00  0.00     0.000 A 
ATOM     35  C   UNL d   1      28.531  -9.270   3.808  0.00  0.00     0.001 A 
ATOM     36  C   UNL d   1      28.652 -10.525   3.209  0.00  0.00     0.014 A 
ENDBRANCH   4  31
TORSDOF 6
ENDMDL
MODEL 3
REMARK VINA RESULT:   -30.646      5.387      8.026
REMARK INTER + INTRA:         -33.643
REMARK INTER:                 -32.436
REMARK INTRA:                  -1.207
REMARK CONF_INDEPENDENT:        1.790
REMARK UNBOUND:                -1.207
REMARK  6 active torsions:
REMARK  status: ('A' for Active; 'I' for Inactive)
REMARK    1  A    between atoms: C_2  and  C_3 
REMARK       I    between atoms: C_2  and  N_22 
REMARK    2  A    between atoms: C_3  and  S_4 
REMARK    3  A    between atoms: S_4  and  C_5 
REMARK    4  A    between atoms: C_7  and  C_8 
REMARK    5  A    between atoms: C_14  and  C_15 
REMARK    6  A    between atoms: N_22  and  C_23 
ROOT
ATOM      1  C   UNL d   1      25.901 -14.058  -3.702  0.00  0.00     0.168 A 
ATOM      2  N   UNL d   1      27.036 -14.524  -4.175  0.00  0.00    -0.222 NA
ATOM      3  C   UNL d   1      27.503 -13.546  -5.034  0.00  0.00     0.097 A 
ATOM      4  C   UNL d   1      26.619 -12.476  -5.107  0.00  0.00     0.074 A 
ATOM      5  N   UNL d   1      25.577 -12.857  -4.281  0.00  0.00    -0.333 N 
ATOM      6  H   UNL d   1      24.705 -12.364  -4.157  0.00  0.00     0.168 HD
ENDROOT
BRANCH   1   7
ATOM      7  S   UNL d   1      24.793 -14.869  -2.620  0.00  0.00    -0.083 SA
BRANCH   7   8
ATOM      8  C   UNL d   1      25.879 -15.520  -1.263  0.00  0.00     0.185 C 
BRANCH   8   9
ATOM      9  C   UNL d   1      25.931 -17.038  -1.152  0.00  0.00     0.231 C 
ATOM     10  O   UNL d   1      27.027 -17.622  -1.062  0.00  0.00    -0.272 OA
ATOM     11  N   UNL d   1      24.811 -17.856  -0.999  0.00  0.00    -0.333 N 
ATOM     12  H   UNL d   1      25.265 -18.693  -0.610  0.00  0.00     0.168 HD
BRANCH  11  13
ATOM     13  C   UNL d   1      23.351 -18.019  -0.873  0.00  0.00     0.002 C 
ATOM     14  C   UNL d   1      23.187 -18.920   0.125  0.00  0.00     0.052 C 
ATOM     15  C   UNL d   1      22.183 -18.575   1.003  0.00  0.00     0.054 C 
ATOM     16  C   UNL d   1      21.068 -18.998   0.440  0.00  0.00     0.023 C 
ATOM     17  N   UNL d   1      20.647 -20.298   0.573  0.00  0.00    -0.318 N 
ATOM     18  C   UNL d   1      20.653 -18.318  -0.665  0.00  0.00     0.095 C 
ATOM     19  C   UNL d   1      19.534 -20.435  -0.156  0.00  0.00     0.299 C 
ATOM     20  H   UNL d   1      21.029 -20.926   1.263  0.00  0.00     0.169 HD
ATOM     21  O   UNL d   1      18.660 -21.310   0.119  0.00  0.00    -0.254 OA
ATOM     22  N   UNL d   1      19.533 -19.325  -1.111  0.00  0.00    -0.226 NA
ATOM     23  H   UNL d   1      18.543 -19.046  -1.148  0.00  0.00     0.133 HD
ATOM     24  C   UNL d   1      21.969 -17.595  -1.270  0.00  0.00     0.075 C 
ENDBRANCH  11  13
ENDBRANCH   8   9
ENDBRANCH   7   8
ENDBRANCH   1   7
BRANCH   3  25
ATOM     25  C   UNL d   1      28.780 -13.583  -5.737  0.00  0.00    -0.005 A 
ATOM     26  C   UNL d   1      29.626 -12.465  -5.670  0.00  0.00     0.014 A 
ATOM     27  C   UNL d   1      30.805 -12.411  -6.414  0.00  0.00     0.001 A 
ATOM     28  C   UNL d   1      31.196 -13.511  -7.171  0.00  0.00     0.000 A 
ATOM     29  C   UNL d   1      30.365 -14.629  -7.251  0.00  0.00     0.001 A 
ATOM     30  C   UNL d   1      29.151 -14.662  -6.548  0.00  0.00     0.014 A 
ENDBRANCH   3  25
BRANCH   4  31
ATOM     31  C   UNL d   1      26.658 -11.263  -5.929  0.00  0.00    -0.007 A 
ATOM     32  C   UNL d   1      27.031 -11.283  -7.277  0.00  0.00     0.014 A 
ATOM     33  C   UNL d   1      27.025 -10.100  -8.030  0.00  0.00     0.001 A 
ATOM     34  C   UNL d   1      26.562  -8.910  -7.469  0.00  0.00     0.000 A 
ATOM     35  C   UNL d   1      26.164  -8.885  -6.137  0.00  0.00     0.001 A 
ATOM     36  C   UNL d   1      26.223 -10.051  -5.372  0.00  0.00     0.014 A 
ENDBRANCH   4  31
TORSDOF 6
ENDMDL
MODEL 4
REMARK VINA RESULT:   -30.573      5.575      8.486
REMARK INTER + INTRA:         -33.473
REMARK INTER:                 -32.363
REMARK INTRA:                  -1.110
REMARK CONF_INDEPENDENT:        1.790
REMARK UNBOUND:                -1.110
REMARK  6 active torsions:
REMARK  status: ('A' for Active; 'I' for Inactive)
REMARK    1  A    between atoms: C_2  and  C_3 
REMARK       I    between atoms: C_2  and  N_22 
REMARK    2  A    between atoms: C_3  and  S_4 
REMARK    3  A    between atoms: S_4  and  C_5 
REMARK    4  A    between atoms: C_7  and  C_8 
REMARK    5  A    between atoms: C_14  and  C_15 
REMARK    6  A    between atoms: N_22  and  C_23 
ROOT
ATOM      1  C   UNL d   1      26.809 -14.881  -4.310  0.00  0.00     0.168 A 
ATOM      2  N   UNL d   1      27.849 -15.581  -4.708  0.00  0.00    -0.222 NA
ATOM      3  C   UNL d   1      28.541 -14.749  -5.570  0.00  0.00     0.097 A 
ATOM      4  C   UNL d   1      27.893 -13.528  -5.720  0.00  0.00     0.074 A 
ATOM      5  N   UNL d   1      26.759 -13.662  -4.940  0.00  0.00    -0.333 N 
ATOM      6  H   UNL d   1      25.998 -13.003  -4.877  0.00  0.00     0.168 HD
ENDROOT
BRANCH   1   7
ATOM      7  S   UNL d   1      25.513 -15.414  -3.265  0.00  0.00    -0.083 SA
BRANCH   7   8
ATOM      8  C   UNL d   1      26.335 -15.684  -1.624  0.00  0.00     0.185 C 
BRANCH   8   9
ATOM      9  C   UNL d   1      26.350 -17.128  -1.141  0.00  0.00     0.231 C 
ATOM     10  O   UNL d   1      27.427 -17.673  -0.831  0.00  0.00    -0.272 OA
ATOM     11  N   UNL d   1      25.207 -17.884  -0.876  0.00  0.00    -0.333 N 
ATOM     12  H   UNL d   1      25.617 -18.600  -0.262  0.00  0.00     0.168 HD
BRANCH  11  13
ATOM     13  C   UNL d   1      23.740 -18.010  -0.823  0.00  0.00     0.002 C 
ATOM     14  C   UNL d   1      23.506 -18.928   0.146  0.00  0.00     0.052 C 
ATOM     15  C   UNL d   1      22.470 -18.575   0.983  0.00  0.00     0.054 C 
ATOM     16  C   UNL d   1      21.373 -18.956   0.359  0.00  0.00     0.023 C 
ATOM     17  N   UNL d   1      20.913 -20.246   0.442  0.00  0.00    -0.318 N 
ATOM     18  C   UNL d   1      21.028 -18.241  -0.749  0.00  0.00     0.095 C 
ATOM     19  C   UNL d   1      19.832 -20.338  -0.341  0.00  0.00     0.299 C 
ATOM     20  H   UNL d   1      21.245 -20.899   1.135  0.00  0.00     0.169 HD
ATOM     21  O   UNL d   1      18.924 -21.195  -0.127  0.00  0.00    -0.254 OA
ATOM     22  N   UNL d   1      19.905 -19.208  -1.269  0.00  0.00    -0.226 NA
ATOM     23  H   UNL d   1      18.926 -18.902  -1.347  0.00  0.00     0.133 HD
ATOM     24  C   UNL d   1      22.390 -17.541  -1.275  0.00  0.00     0.075 C 
ENDBRANCH  11  13
ENDBRANCH   8   9
ENDBRANCH   7   8
ENDBRANCH   1   7
BRANCH   3  25
ATOM     25  C   UNL d   1      29.816 -15.065  -6.202  0.00  0.00    -0.005 A 
ATOM     26  C   UNL d   1      30.765 -14.044  -6.368  0.00  0.00     0.014 A 
ATOM     27  C   UNL d   1      31.952 -14.274  -7.065  0.00  0.00     0.001 A 
ATOM     28  C   UNL d   1      32.243 -15.551  -7.533  0.00  0.00     0.000 A 
ATOM     29  C   UNL d   1      31.309 -16.577  -7.379  0.00  0.00     0.001 A 
ATOM     30  C   UNL d   1      30.090 -16.333  -6.728  0.00  0.00     0.014 A 
ENDBRANCH   3  25
BRANCH   4  31
ATOM     31  C   UNL d   1      28.212 -12.380  -6.573  0.00  0.00    -0.007 A 
ATOM     32  C   UNL d   1      28.474 -12.513  -7.941  0.00  0.00     0.014 A 
ATOM     33  C   UNL d   1      28.746 -11.380  -8.722  0.00  0.00     0.001 A 
ATOM     34  C   UNL d   1      28.669 -10.104  -8.164  0.00  0.00     0.000 A 
ATOM     35  C   UNL d   1      28.382  -9.959  -6.811  0.00  0.00     0.001 A 
ATOM     36  C   UNL d   1      28.168 -11.091  -6.022  0.00  0.00     0.014 A 
ENDBRANCH   4  31
TORSDOF 6
ENDMDL
MODEL 5
REMARK VINA RESULT:   -30.564      5.222      7.197
REMARK INTER + INTRA:         -33.549
REMARK INTER:                 -32.354
REMARK INTRA:                  -1.196
REMARK CONF_INDEPENDENT:        1.790
REMARK UNBOUND:                -1.196
REMARK  6 active torsions:
REMARK  status: ('A' for Active; 'I' for Inactive)
REMARK    1  A    between atoms: C_2  and  C_3 
REMARK       I    between atoms: C_2  and  N_22 
REMARK    2  A    between atoms: C_3  and  S_4 
REMARK    3  A    between atoms: S_4  and  C_5 
REMARK    4  A    between atoms: C_7  and  C_8 
REMARK    5  A    between atoms: C_14  and  C_15 
REMARK    6  A    between atoms: N_22  and  C_23 
ROOT
ATOM      1  C   UNL d   1      25.586 -14.078  -3.548  0.00  0.00     0.168 A 
ATOM      2  N   UNL d   1      25.195 -12.822  -3.526  0.00  0.00    -0.222 NA
ATOM      3  C   UNL d   1      26.052 -12.157  -4.383  0.00  0.00     0.097 A 
ATOM      4  C   UNL d   1      27.002 -13.021  -4.916  0.00  0.00     0.074 A 
ATOM      5  N   UNL d   1      26.709 -14.234  -4.322  0.00  0.00    -0.333 N 
ATOM      6  H   UNL d   1      27.250 -15.082  -4.401  0.00  0.00     0.168 HD
ENDROOT
BRANCH   1   7
ATOM      7  S   UNL d   1      24.941 -15.403  -2.608  0.00  0.00    -0.083 SA
BRANCH   7   8
ATOM      8  C   UNL d   1      26.357 -15.922  -1.527  0.00  0.00     0.185 C 
BRANCH   8   9
ATOM      9  C   UNL d   1      26.319 -17.375  -1.071  0.00  0.00     0.231 C 
ATOM     10  O   UNL d   1      27.372 -17.958  -0.749  0.00  0.00    -0.272 OA
ATOM     11  N   UNL d   1      25.149 -18.100  -0.842  0.00  0.00    -0.333 N 
ATOM     12  H   UNL d   1      25.525 -18.839  -0.234  0.00  0.00     0.168 HD
BRANCH  11  13
ATOM     13  C   UNL d   1      23.678 -18.183  -0.820  0.00  0.00     0.002 C 
ATOM     14  C   UNL d   1      23.392 -19.004   0.219  0.00  0.00     0.052 C 
ATOM     15  C   UNL d   1      22.345 -18.551   0.991  0.00  0.00     0.054 C 
ATOM     16  C   UNL d   1      21.255 -18.958   0.372  0.00  0.00     0.023 C 
ATOM     17  N   UNL d   1      20.756 -20.223   0.556  0.00  0.00    -0.318 N 
ATOM     18  C   UNL d   1      20.960 -18.336  -0.805  0.00  0.00     0.095 C 
ATOM     19  C   UNL d   1      19.694 -20.357  -0.248  0.00  0.00     0.299 C 
ATOM     20  H   UNL d   1      21.050 -20.820   1.313  0.00  0.00     0.169 HD
ATOM     21  O   UNL d   1      18.757 -21.167   0.015  0.00  0.00    -0.254 OA
ATOM     22  N   UNL d   1      19.824 -19.317  -1.270  0.00  0.00    -0.226 NA
ATOM     23  H   UNL d   1      18.856 -18.993  -1.402  0.00  0.00     0.133 HD
ATOM     24  C   UNL d   1      22.354 -17.721  -1.351  0.00  0.00     0.075 C 
ENDBRANCH  11  13
ENDBRANCH   8   9
ENDBRANCH   7   8
ENDBRANCH   1   7
BRANCH   3  25
ATOM     25  C   UNL d   1      25.955 -10.747  -4.745  0.00  0.00    -0.005 A 
ATOM     26  C   UNL d   1      26.035  -9.778  -3.732  0.00  0.00     0.014 A 
ATOM     27  C   UNL d   1      25.838  -8.426  -4.016  0.00  0.00     0.001 A 
ATOM     28  C   UNL d   1      25.641  -8.017  -5.330  0.00  0.00     0.000 A 
ATOM     29  C   UNL d   1      25.555  -8.968  -6.348  0.00  0.00     0.001 A 
ATOM     30  C   UNL d   1      25.697 -10.333  -6.057  0.00  0.00     0.014 A 
ENDBRANCH   3  25
BRANCH   4  31
ATOM     31  C   UNL d   1      28.139 -12.756  -5.802  0.00  0.00    -0.007 A 
ATOM     32  C   UNL d   1      28.506 -13.630  -6.831  0.00  0.00     0.014 A 
ATOM     33  C   UNL d   1      29.584 -13.318  -7.672  0.00  0.00     0.001 A 
ATOM     34  C   UNL d   1      30.243 -12.095  -7.550  0.00  0.00     0.000 A 
ATOM     35  C   UNL d   1      29.867 -11.207  -6.549  0.00  0.00     0.001 A 
ATOM     36  C   UNL d   1      28.831 -11.542  -5.675  0.00  0.00     0.014 A 
ENDBRANCH   4  31
TORSDOF 6
ENDMDL
MODEL 6
REMARK VINA RESULT:   -30.329      4.915      7.192
REMARK INTER + INTRA:         -33.364
REMARK INTER:                 -32.119
REMARK INTRA:                  -1.245
REMARK CONF_INDEPENDENT:        1.790
REMARK UNBOUND:                -1.245
REMARK  6 active torsions:
REMARK  status: ('A' for Active; 'I' for Inactive)
REMARK    1  A    between atoms: C_2  and  C_3 
REMARK       I    between atoms: C_2  and  N_22 
REMARK    2  A    between atoms: C_3  and  S_4 
REMARK    3  A    between atoms: S_4  and  C_5 
REMARK    4  A    between atoms: C_7  and  C_8 
REMARK    5  A    between atoms: C_14  and  C_15 
REMARK    6  A    between atoms: N_22  and  C_23 
ROOT
ATOM      1  C   UNL d   1      25.599 -13.941  -3.347  0.00  0.00     0.168 A 
ATOM      2  N   UNL d   1      26.094 -13.905  -4.566  0.00  0.00    -0.222 NA
ATOM      3  C   UNL d   1      26.424 -12.580  -4.786  0.00  0.00     0.097 A 
ATOM      4  C   UNL d   1      26.097 -11.790  -3.690  0.00  0.00     0.074 A 
ATOM      5  N   UNL d   1      25.523 -12.683  -2.804  0.00  0.00    -0.333 N 
ATOM      6  H   UNL d   1      25.079 -12.451  -1.928  0.00  0.00     0.168 HD
ENDROOT
BRANCH   1   7
ATOM      7  S   UNL d   1      24.931 -15.328  -2.519  0.00  0.00    -0.083 SA
BRANCH   7   8
ATOM      8  C   UNL d   1      26.298 -15.886  -1.394  0.00  0.00     0.185 C 
BRANCH   8   9
ATOM      9  C   UNL d   1      26.263 -17.362  -1.022  0.00  0.00     0.231 C 
ATOM     10  O   UNL d   1      27.318 -17.961  -0.739  0.00  0.00    -0.272 OA
ATOM     11  N   UNL d   1      25.095 -18.101  -0.833  0.00  0.00    -0.333 N 
ATOM     12  H   UNL d   1      25.473 -18.874  -0.269  0.00  0.00     0.168 HD
BRANCH  11  13
ATOM     13  C   UNL d   1      23.624 -18.187  -0.811  0.00  0.00     0.002 C 
ATOM     14  C   UNL d   1      23.340 -19.018   0.220  0.00  0.00     0.052 C 
ATOM     15  C   UNL d   1      22.292 -18.574   0.997  0.00  0.00     0.054 C 
ATOM     16  C   UNL d   1      21.202 -18.978   0.375  0.00  0.00     0.023 C 
ATOM     17  N   UNL d   1      20.706 -20.246   0.547  0.00  0.00    -0.318 N 
ATOM     18  C   UNL d   1      20.906 -18.347  -0.796  0.00  0.00     0.095 C 
ATOM     19  C   UNL d   1      19.645 -20.375  -0.257  0.00  0.00     0.299 C 
ATOM     20  H   UNL d   1      21.003 -20.849   1.299  0.00  0.00     0.169 HD
ATOM     21  O   UNL d   1      18.709 -21.189  -0.001  0.00  0.00    -0.254 OA
ATOM     22  N   UNL d   1      19.772 -19.325  -1.270  0.00  0.00    -0.226 NA
ATOM     23  H   UNL d   1      18.803 -19.002  -1.399  0.00  0.00     0.133 HD
ATOM     24  C   UNL d   1      22.299 -17.724  -1.337  0.00  0.00     0.075 C 
ENDBRANCH  11  13
ENDBRANCH   8   9
ENDBRANCH   7   8
ENDBRANCH   1   7
BRANCH   3  25
ATOM     25  C   UNL d   1      27.085 -12.065  -5.980  0.00  0.00    -0.005 A 
ATOM     26  C   UNL d   1      26.337 -11.316  -6.902  0.00  0.00     0.014 A 
ATOM     27  C   UNL d   1      26.898 -10.897  -8.109  0.00  0.00     0.001 A 
ATOM     28  C   UNL d   1      28.240 -11.150  -8.372  0.00  0.00     0.000 A 
ATOM     29  C   UNL d   1      28.997 -11.896  -7.467  0.00  0.00     0.001 A 
ATOM     30  C   UNL d   1      28.419 -12.367  -6.279  0.00  0.00     0.014 A 
ENDBRANCH   3  25
BRANCH   4  31
ATOM     31  C   UNL d   1      26.197 -10.341  -3.498  0.00  0.00    -0.007 A 
ATOM     32  C   UNL d   1      27.206  -9.755  -2.725  0.00  0.00     0.014 A 
ATOM     33  C   UNL d   1      27.278  -8.361  -2.595  0.00  0.00     0.001 A 
ATOM     34  C   UNL d   1      26.400  -7.540  -3.304  0.00  0.00     0.000 A 
ATOM     35  C   UNL d   1      25.411  -8.112  -4.096  0.00  0.00     0.001 A 
ATOM     36  C   UNL d   1      25.304  -9.501  -4.181  0.00  0.00     0.014 A 
ENDBRANCH   4  31
TORSDOF 6
ENDMDL
MODEL 7
REMARK VINA RESULT:   -29.934      5.250      7.512
REMARK INTER + INTRA:         -33.682
REMARK INTER:                 -31.724
REMARK INTRA:                  -1.958
REMARK CONF_INDEPENDENT:        1.790
REMARK UNBOUND:                -1.958
REMARK  6 active torsions:
REMARK  status: ('A' for Active; 'I' for Inactive)
REMARK    1  A    between atoms: C_2  and  C_3 
REMARK       I    between atoms: C_2  and  N_22 
REMARK    2  A    between atoms: C_3  and  S_4 
REMARK    3  A    between atoms: S_4  and  C_5 
REMARK    4  A    between atoms: C_7  and  C_8 
REMARK    5  A    between atoms: C_14  and  C_15 
REMARK    6  A    between atoms: N_22  and  C_23 
ROOT
ATOM      1  C   UNL d   1      27.716 -15.782  -3.691  0.00  0.00     0.168 A 
ATOM      2  N   UNL d   1      28.254 -15.660  -4.886  0.00  0.00    -0.222 NA
ATOM      3  C   UNL d   1      29.517 -16.213  -4.775  0.00  0.00     0.097 A 
ATOM      4  C   UNL d   1      29.763 -16.653  -3.479  0.00  0.00     0.074 A 
ATOM      5  N   UNL d   1      28.609 -16.317  -2.796  0.00  0.00    -0.333 N 
ATOM      6  H   UNL d   1      28.459 -16.402  -1.802  0.00  0.00     0.168 HD
ENDROOT
BRANCH   1   7
ATOM      7  S   UNL d   1      26.151 -15.202  -3.172  0.00  0.00    -0.083 SA
BRANCH   7   8
ATOM      8  C   UNL d   1      26.094 -15.607  -1.362  0.00  0.00     0.185 C 
BRANCH   8   9
ATOM      9  C   UNL d   1      26.117 -17.094  -1.034  0.00  0.00     0.231 C 
ATOM     10  O   UNL d   1      27.196 -17.663  -0.785  0.00  0.00    -0.272 OA
ATOM     11  N   UNL d   1      24.978 -17.878  -0.848  0.00  0.00    -0.333 N 
ATOM     12  H   UNL d   1      25.393 -18.653  -0.313  0.00  0.00     0.168 HD
BRANCH  11  13
ATOM     13  C   UNL d   1      23.511 -18.016  -0.804  0.00  0.00     0.002 C 
ATOM     14  C   UNL d   1      23.277 -18.927   0.171  0.00  0.00     0.052 C 
ATOM     15  C   UNL d   1      22.232 -18.575   0.996  0.00  0.00     0.054 C 
ATOM     16  C   UNL d   1      21.143 -18.971   0.368  0.00  0.00     0.023 C 
ATOM     17  N   UNL d   1      20.693 -20.264   0.459  0.00  0.00    -0.318 N 
ATOM     18  C   UNL d   1      20.801 -18.270  -0.750  0.00  0.00     0.095 C 
ATOM     19  C   UNL d   1      19.620 -20.373  -0.332  0.00  0.00     0.299 C 
ATOM     20  H   UNL d   1      21.025 -20.908   1.161  0.00  0.00     0.169 HD
ATOM     21  O   UNL d   1      18.717 -21.235  -0.117  0.00  0.00    -0.254 OA
ATOM     22  N   UNL d   1      19.690 -19.251  -1.270  0.00  0.00    -0.226 NA
ATOM     23  H   UNL d   1      18.709 -18.953  -1.358  0.00  0.00     0.133 HD
ATOM     24  C   UNL d   1      22.161 -17.563  -1.272  0.00  0.00     0.075 C 
ENDBRANCH  11  13
ENDBRANCH   8   9
ENDBRANCH   7   8
ENDBRANCH   1   7
BRANCH   3  25
ATOM     25  C   UNL d   1      30.462 -16.377  -5.873  0.00  0.00    -0.005 A 
ATOM     26  C   UNL d   1      31.009 -15.234  -6.478  0.00  0.00     0.014 A 
ATOM     27  C   UNL d   1      31.830 -15.341  -7.600  0.00  0.00     0.001 A 
ATOM     28  C   UNL d   1      32.184 -16.596  -8.083  0.00  0.00     0.000 A 
ATOM     29  C   UNL d   1      31.647 -17.742  -7.495  0.00  0.00     0.001 A 
ATOM     30  C   UNL d   1      30.775 -17.636  -6.401  0.00  0.00     0.014 A 
ENDBRANCH   3  25
BRANCH   4  31
ATOM     31  C   UNL d   1      30.970 -17.232  -2.884  0.00  0.00    -0.007 A 
ATOM     32  C   UNL d   1      32.257 -16.858  -3.286  0.00  0.00     0.014 A 
ATOM     33  C   UNL d   1      33.383 -17.419  -2.665  0.00  0.00     0.001 A 
ATOM     34  C   UNL d   1      33.232 -18.286  -1.583  0.00  0.00     0.000 A 
ATOM     35  C   UNL d   1      31.957 -18.642  -1.158  0.00  0.00     0.001 A 
ATOM     36  C   UNL d   1      30.837 -18.128  -1.812  0.00  0.00     0.014 A 
ENDBRANCH   4  31
TORSDOF 6
ENDMDL
MODEL 8
REMARK VINA RESULT:   -29.803      5.103      7.638
REMARK INTER + INTRA:         -33.558
REMARK INTER:                 -31.593
REMARK INTRA:                  -1.966
REMARK CONF_INDEPENDENT:        1.790
REMARK UNBOUND:                -1.966
REMARK  6 active torsions:
REMARK  status: ('A' for Active; 'I' for Inactive)
REMARK    1  A    between atoms: C_2  and  C_3 
REMARK       I    between atoms: C_2  and  N_22 
REMARK    2  A    between atoms: C_3  and  S_4 
REMARK    3  A    between atoms: S_4  and  C_5 
REMARK    4  A    between atoms: C_7  and  C_8 
REMARK    5  A    between atoms: C_14  and  C_15 
REMARK    6  A    between atoms: N_22  and  C_23 
ROOT
ATOM      1  C   UNL d   1      26.990 -14.813  -3.827  0.00  0.00     0.168 A 
ATOM      2  N   UNL d   1      27.441 -13.929  -4.692  0.00  0.00    -0.222 NA
ATOM      3  C   UNL d   1      28.582 -14.495  -5.230  0.00  0.00     0.097 A 
ATOM      4  C   UNL d   1      28.848 -15.735  -4.660  0.00  0.00     0.074 A 
ATOM      5  N   UNL d   1      27.838 -15.888  -3.728  0.00  0.00    -0.333 N 
ATOM      6  H   UNL d   1      27.758 -16.635  -3.054  0.00  0.00     0.168 HD
ENDROOT
BRANCH   1   7
ATOM      7  S   UNL d   1      25.611 -14.646  -2.766  0.00  0.00    -0.083 SA
BRANCH   7   8
ATOM      8  C   UNL d   1      26.178 -15.393  -1.165  0.00  0.00     0.185 C 
BRANCH   8   9
ATOM      9  C   UNL d   1      26.241 -16.915  -1.151  0.00  0.00     0.231 C 
ATOM     10  O   UNL d   1      27.343 -17.495  -1.115  0.00  0.00    -0.272 OA
ATOM     11  N   UNL d   1      25.129 -17.750  -1.035  0.00  0.00    -0.333 N 
ATOM     12  H   UNL d   1      25.595 -18.606  -0.707  0.00  0.00     0.168 HD
BRANCH  11  13
ATOM     13  C   UNL d   1      23.673 -17.932  -0.899  0.00  0.00     0.002 C 
ATOM     14  C   UNL d   1      23.529 -18.847   0.090  0.00  0.00     0.052 C 
ATOM     15  C   UNL d   1      22.528 -18.524   0.980  0.00  0.00     0.054 C 
ATOM     16  C   UNL d   1      21.414 -18.955   0.422  0.00  0.00     0.023 C 
ATOM     17  N   UNL d   1      21.009 -20.261   0.543  0.00  0.00    -0.318 N 
ATOM     18  C   UNL d   1      20.981 -18.267  -0.672  0.00  0.00     0.095 C 
ATOM     19  C   UNL d   1      19.892 -20.403  -0.179  0.00  0.00     0.299 C 
ATOM     20  H   UNL d   1      21.404 -20.892   1.222  0.00  0.00     0.169 HD
ATOM     21  O   UNL d   1      19.031 -21.292   0.093  0.00  0.00    -0.254 OA
ATOM     22  N   UNL d   1      19.869 -19.282  -1.120  0.00  0.00    -0.226 NA
ATOM     23  H   UNL d   1      18.876 -19.015  -1.146  0.00  0.00     0.133 HD
ATOM     24  C   UNL d   1      22.283 -17.521  -1.280  0.00  0.00     0.075 C 
ENDBRANCH  11  13
ENDBRANCH   8   9
ENDBRANCH   7   8
ENDBRANCH   1   7
BRANCH   3  25
ATOM     25  C   UNL d   1      29.386 -13.913  -6.299  0.00  0.00    -0.005 A 
ATOM     26  C   UNL d   1      30.771 -13.779  -6.114  0.00  0.00     0.014 A 
ATOM     27  C   UNL d   1      31.562 -13.130  -7.062  0.00  0.00     0.001 A 
ATOM     28  C   UNL d   1      30.991 -12.679  -8.248  0.00  0.00     0.000 A 
ATOM     29  C   UNL d   1      29.615 -12.802  -8.446  0.00  0.00     0.001 A 
ATOM     30  C   UNL d   1      28.808 -13.404  -7.468  0.00  0.00     0.014 A 
ENDBRANCH   3  25
BRANCH   4  31
ATOM     31  C   UNL d   1      29.970 -16.655  -4.863  0.00  0.00    -0.007 A 
ATOM     32  C   UNL d   1      30.408 -17.032  -6.137  0.00  0.00     0.014 A 
ATOM     33  C   UNL d   1      31.507 -17.893  -6.280  0.00  0.00     0.001 A 
ATOM     34  C   UNL d   1      32.227 -18.310  -5.161  0.00  0.00     0.000 A 
ATOM     35  C   UNL d   1      31.816 -17.917  -3.892  0.00  0.00     0.001 A 
ATOM     36  C   UNL d   1      30.689 -17.107  -3.746  0.00  0.00     0.014 A 
ENDBRANCH   4  31
TORSDOF 6
ENDMDL
MODEL 9
REMARK VINA RESULT:   -29.356      4.053      6.107
REMARK INTER + INTRA:         -33.037
REMARK INTER:                 -31.146
REMARK INTRA:                  -1.891
REMARK CONF_INDEPENDENT:        1.790
REMARK UNBOUND:                -1.891
REMARK  6 active torsions:
REMARK  status: ('A' for Active; 'I' for Inactive)
REMARK    1  A    between atoms: C_2  and  C_3 
REMARK       I    between atoms: C_2  and  N_22 
REMARK    2  A    between atoms: C_3  and  S_4 
REMARK    3  A    between atoms: S_4  and  C_5 
REMARK    4  A    between atoms: C_7  and  C_8 
REMARK    5  A    between atoms: C_14  and  C_15 
REMARK    6  A    between atoms: N_22  and  C_23 
ROOT
ATOM      1  C   UNL d   1      27.617 -14.813  -0.444  0.00  0.00     0.168 A 
ATOM      2  N   UNL d   1      27.067 -13.672  -0.802  0.00  0.00    -0.222 NA
ATOM      3  C   UNL d   1      27.374 -13.524  -2.142  0.00  0.00     0.097 A 
ATOM      4  C   UNL d   1      28.150 -14.582  -2.602  0.00  0.00     0.074 A 
ATOM      5  N   UNL d   1      28.331 -15.366  -1.477  0.00  0.00    -0.333 N 
ATOM      6  H   UNL d   1      28.924 -16.180  -1.407  0.00  0.00     0.168 HD
ENDROOT
BRANCH   1   7
ATOM      7  S   UNL d   1      27.643 -15.517   1.155  0.00  0.00    -0.083 SA
BRANCH   7   8
ATOM      8  C   UNL d   1      26.668 -17.086   0.976  0.00  0.00     0.185 C 
BRANCH   8   9
ATOM      9  C   UNL d   1      26.459 -17.554  -0.458  0.00  0.00     0.231 C 
ATOM     10  O   UNL d   1      27.440 -17.802  -1.184  0.00  0.00    -0.272 OA
ATOM     11  N   UNL d   1      25.218 -17.871  -1.012  0.00  0.00    -0.333 N 
ATOM     12  H   UNL d   1      25.529 -18.456  -1.798  0.00  0.00     0.168 HD
BRANCH  11  13
ATOM     13  C   UNL d   1      23.755 -18.000  -0.886  0.00  0.00     0.002 C 
ATOM     14  C   UNL d   1      23.571 -18.922   0.089  0.00  0.00     0.052 C 
ATOM     15  C   UNL d   1      22.577 -18.574   0.977  0.00  0.00     0.054 C 
ATOM     16  C   UNL d   1      21.451 -18.955   0.407  0.00  0.00     0.023 C 
ATOM     17  N   UNL d   1      20.997 -20.246   0.508  0.00  0.00    -0.318 N 
ATOM     18  C   UNL d   1      21.051 -18.237  -0.681  0.00  0.00     0.095 C 
ATOM     19  C   UNL d   1      19.880 -20.338  -0.222  0.00  0.00     0.299 C 
ATOM     20  H   UNL d   1      21.364 -20.901   1.181  0.00  0.00     0.169 HD
ATOM     21  O   UNL d   1      18.985 -21.197   0.033  0.00  0.00    -0.254 OA
ATOM     22  N   UNL d   1      19.905 -19.204  -1.148  0.00  0.00    -0.226 NA
ATOM     23  H   UNL d   1      18.923 -18.899  -1.176  0.00  0.00     0.133 HD
ATOM     24  C   UNL d   1      22.384 -17.532  -1.270  0.00  0.00     0.075 C 
ENDBRANCH  11  13
ENDBRANCH   8   9
ENDBRANCH   7   8
ENDBRANCH   1   7
BRANCH   3  25
ATOM     25  C   UNL d   1      26.907 -12.440  -2.998  0.00  0.00    -0.005 A 
ATOM     26  C   UNL d   1      27.196 -11.114  -2.637  0.00  0.00     0.014 A 
ATOM     27  C   UNL d   1      26.676 -10.043  -3.364  0.00  0.00     0.001 A 
ATOM     28  C   UNL d   1      25.929 -10.284  -4.512  0.00  0.00     0.000 A 
ATOM     29  C   UNL d   1      25.629 -11.596  -4.883  0.00  0.00     0.001 A 
ATOM     30  C   UNL d   1      26.103 -12.674  -4.120  0.00  0.00     0.014 A 
ENDBRANCH   3  25
BRANCH   4  31
ATOM     31  C   UNL d   1      28.762 -14.815  -3.912  0.00  0.00    -0.007 A 
ATOM     32  C   UNL d   1      30.127 -15.081  -4.066  0.00  0.00     0.014 A 
ATOM     33  C   UNL d   1      30.661 -15.327  -5.339  0.00  0.00     0.001 A 
ATOM     34  C   UNL d   1      29.824 -15.398  -6.453  0.00  0.00     0.000 A 
ATOM     35  C   UNL d   1      28.462 -15.163  -6.307  0.00  0.00     0.001 A 
ATOM     36  C   UNL d   1      27.939 -14.862  -5.048  0.00  0.00     0.014 A 
ENDBRANCH   4  31
TORSDOF 6
ENDMDL
