MODEL 1
REMARK VINA RESULT:    -8.608      0.000      0.000
REMARK INTER + INTRA:         -12.381
REMARK INTER:                 -10.696
REMARK INTRA:                  -1.685
REMARK CONF_INDEPENDENT:        2.088
REMARK UNBOUND:                -1.685
REMARK  7 active torsions:
REMARK  status: ('A' for Active; 'I' for Inactive)
REMARK    1  A    between atoms: C_2  and  O_3 
REMARK    2  A    between atoms: C_2  and  C_14 
REMARK    3  A    between atoms: O_3  and  C_4 
REMARK       I    between atoms: C_14  and  N_16 
REMARK    4  A    between atoms: N_16  and  N_17 
REMARK       I    between atoms: N_17  and  C_18 
REMARK       I    between atoms: C_18  and  N_20 
REMARK    5  A    between atoms: N_20  and  C_21 
REMARK    6  A    between atoms: C_21  and  C_22 
REMARK    7  A    between atoms: C_22  and  N_23 
ROOT
ATOM      1  C   UNL d   1      25.660 -17.050  -1.392  0.00  0.00     0.265 C 
ATOM      2  O   UNL d   1      26.861 -16.941  -1.121  0.00  0.00    -0.269 OA
ATOM      3  N   UNL d   1      25.132 -16.330  -2.456  0.00  0.00    -0.264 N 
ATOM      4  H   UNL d   1      24.150 -16.354  -2.720  0.00  0.00     0.190 HD
ENDROOT
BRANCH   3   5
ATOM      5  N   UNL d   1      25.990 -15.435  -3.193  0.00  0.00    -0.249 N 
ATOM      6  C   UNL d   1      25.447 -14.362  -3.873  0.00  0.00     0.334 C 
ATOM      7  O   UNL d   1      24.237 -14.130  -3.904  0.00  0.00    -0.246 OA
ATOM      8  N   UNL d   1      26.361 -13.561  -4.537  0.00  0.00    -0.340 N 
ATOM      9  H   UNL d   1      27.344 -13.786  -4.463  0.00  0.00     0.164 HD
ATOM     10  H   UNL d   1      26.985 -15.644  -3.133  0.00  0.00     0.192 HD
BRANCH   8  11
ATOM     11  C   UNL d   1      25.911 -12.383  -5.291  0.00  0.00     0.144 C 
BRANCH  11  12
ATOM     12  C   UNL d   1      26.780 -11.116  -5.153  0.00  0.00     0.149 C 
BRANCH  12  13
ATOM     13  N   UNL d   1      26.009  -9.904  -4.773  0.00  0.00    -0.350 N 
ATOM     14  C   UNL d   1      25.331  -9.055  -5.647  0.00  0.00     0.108 A 
ATOM     15  C   UNL d   1      24.746  -8.079  -4.888  0.00  0.00     0.106 A 
ATOM     16  N   UNL d   1      25.070  -8.365  -3.584  0.00  0.00    -0.361 N 
ATOM     17  C   UNL d   1      25.821  -9.470  -3.514  0.00  0.00     0.182 A 
ATOM     18  H   UNL d   1      24.783  -7.817  -2.775  0.00  0.00     0.166 HD
ENDBRANCH  12  13
ENDBRANCH  11  12
ENDBRANCH   8  11
ENDBRANCH   3   5
BRANCH   1  19
ATOM     19  C   UNL d   1      24.695 -18.032  -0.618  0.00  0.00     0.218 C 
ATOM     20  C   UNL d   1      25.497 -18.575   0.579  0.00  0.00     0.050 C 
BRANCH  19  21
ATOM     21  O   UNL d   1      23.456 -17.376  -0.251  0.00  0.00    -0.337 OA
BRANCH  21  22
ATOM     22  C   UNL d   1      22.305 -18.137  -0.240  0.00  0.00     0.070 C 
ATOM     23  C   UNL d   1      21.696 -18.615  -1.399  0.00  0.00     0.037 C 
ATOM     24  C   UNL d   1      20.496 -19.321  -1.370  0.00  0.00     0.015 C 
ATOM     25  C   UNL d   1      19.964 -19.739  -0.159  0.00  0.00    -0.026 A 
ATOM     26  C   UNL d   1      18.814 -20.539  -0.148  0.00  0.00     0.012 A 
ATOM     27  C   UNL d   1      20.626 -19.391   1.041  0.00  0.00    -0.023 A 
ATOM     28  C   UNL d   1      18.307 -21.020   1.053  0.00  0.00     0.001 A 
ATOM     29  C   UNL d   1      18.945 -20.695   2.247  0.00  0.00     0.001 A 
ATOM     30  C   UNL d   1      20.091 -19.887   2.244  0.00  0.00     0.012 A 
ATOM     31  C   UNL d   1      21.789 -18.575   0.985  0.00  0.00     0.049 C 
ENDBRANCH  21  22
ENDBRANCH  19  21
ENDBRANCH   1  19
TORSDOF 7
ENDMDL
MODEL 2
REMARK VINA RESULT:    -8.607      7.406      9.823
REMARK INTER + INTRA:         -11.986
REMARK INTER:                 -10.695
REMARK INTRA:                  -1.291
REMARK CONF_INDEPENDENT:        2.088
REMARK UNBOUND:                -1.291
REMARK  7 active torsions:
REMARK  status: ('A' for Active; 'I' for Inactive)
REMARK    1  A    between atoms: C_2  and  O_3 
REMARK    2  A    between atoms: C_2  and  C_14 
REMARK    3  A    between atoms: O_3  and  C_4 
REMARK       I    between atoms: C_14  and  N_16 
REMARK    4  A    between atoms: N_16  and  N_17 
REMARK       I    between atoms: N_17  and  C_18 
REMARK       I    between atoms: C_18  and  N_20 
REMARK    5  A    between atoms: N_20  and  C_21 
REMARK    6  A    between atoms: C_21  and  C_22 
REMARK    7  A    between atoms: C_22  and  N_23 
ROOT
ATOM      1  C   UNL d   1      27.424 -13.878   2.337  0.00  0.00     0.265 C 
ATOM      2  O   UNL d   1      26.656 -13.379   3.166  0.00  0.00    -0.269 OA
ATOM      3  N   UNL d   1      28.353 -14.825   2.748  0.00  0.00    -0.264 N 
ATOM      4  H   UNL d   1      29.029 -15.260   2.124  0.00  0.00     0.190 HD
ENDROOT
BRANCH   3   5
ATOM      5  N   UNL d   1      28.430 -15.171   4.146  0.00  0.00    -0.249 N 
ATOM      6  C   UNL d   1      28.686 -14.191   5.085  0.00  0.00     0.334 C 
ATOM      7  O   UNL d   1      28.878 -13.011   4.789  0.00  0.00    -0.246 OA
ATOM      8  N   UNL d   1      28.727 -14.629   6.399  0.00  0.00    -0.340 N 
ATOM      9  H   UNL d   1      28.545 -15.606   6.588  0.00  0.00     0.164 HD
ATOM     10  H   UNL d   1      28.251 -16.150   4.360  0.00  0.00     0.192 HD
BRANCH   8  11
ATOM     11  C   UNL d   1      28.984 -13.683   7.494  0.00  0.00     0.144 C 
BRANCH  11  12
ATOM     12  C   UNL d   1      29.509 -14.294   8.809  0.00  0.00     0.149 C 
BRANCH  12  13
ATOM     13  N   UNL d   1      29.078 -13.555  10.023  0.00  0.00    -0.350 N 
ATOM     14  C   UNL d   1      28.309 -14.069  11.068  0.00  0.00     0.108 A 
ATOM     15  C   UNL d   1      28.154 -13.066  11.984  0.00  0.00     0.106 A 
ATOM     16  N   UNL d   1      28.836 -11.983  11.484  0.00  0.00    -0.361 N 
ATOM     17  C   UNL d   1      29.401 -12.281  10.309  0.00  0.00     0.182 A 
ATOM     18  H   UNL d   1      28.907 -11.074  11.938  0.00  0.00     0.166 HD
ENDBRANCH  12  13
ENDBRANCH  11  12
ENDBRANCH   8  11
ENDBRANCH   3   5
BRANCH   1  19
ATOM     19  C   UNL d   1      27.356 -13.537   0.795  0.00  0.00     0.218 C 
ATOM     20  C   UNL d   1      28.258 -12.306   0.585  0.00  0.00     0.050 C 
BRANCH  19  21
ATOM     21  O   UNL d   1      27.719 -14.681  -0.017  0.00  0.00    -0.337 OA
BRANCH  21  22
ATOM     22  C   UNL d   1      26.839 -15.743  -0.061  0.00  0.00     0.070 C 
ATOM     23  C   UNL d   1      27.149 -17.010   0.429  0.00  0.00     0.037 C 
ATOM     24  C   UNL d   1      26.273 -18.086   0.311  0.00  0.00     0.015 C 
ATOM     25  C   UNL d   1      24.975 -17.880  -0.131  0.00  0.00    -0.026 A 
ATOM     26  C   UNL d   1      24.071 -18.951  -0.145  0.00  0.00     0.012 A 
ATOM     27  C   UNL d   1      24.574 -16.579  -0.511  0.00  0.00    -0.023 A 
ATOM     28  C   UNL d   1      22.749 -18.746  -0.523  0.00  0.00     0.001 A 
ATOM     29  C   UNL d   1      22.330 -17.472  -0.895  0.00  0.00     0.001 A 
ATOM     30  C   UNL d   1      23.232 -16.399  -0.893  0.00  0.00     0.012 A 
ATOM     31  C   UNL d   1      25.524 -15.521  -0.485  0.00  0.00     0.049 C 
ENDBRANCH  21  22
ENDBRANCH  19  21
ENDBRANCH   1  19
TORSDOF 7
ENDMDL
MODEL 3
REMARK VINA RESULT:    -8.082      2.006      2.837
REMARK INTER + INTRA:         -11.864
REMARK INTER:                 -10.170
REMARK INTRA:                  -1.694
REMARK CONF_INDEPENDENT:        2.088
REMARK UNBOUND:                -1.694
REMARK  7 active torsions:
REMARK  status: ('A' for Active; 'I' for Inactive)
REMARK    1  A    between atoms: C_2  and  O_3 
REMARK    2  A    between atoms: C_2  and  C_14 
REMARK    3  A    between atoms: O_3  and  C_4 
REMARK       I    between atoms: C_14  and  N_16 
REMARK    4  A    between atoms: N_16  and  N_17 
REMARK       I    between atoms: N_17  and  C_18 
REMARK       I    between atoms: C_18  and  N_20 
REMARK    5  A    between atoms: N_20  and  C_21 
REMARK    6  A    between atoms: C_21  and  C_22 
REMARK    7  A    between atoms: C_22  and  N_23 
ROOT
ATOM      1  C   UNL d   1      24.175 -15.992  -1.820  0.00  0.00     0.265 C 
ATOM      2  O   UNL d   1      23.112 -15.387  -1.645  0.00  0.00    -0.269 OA
ATOM      3  N   UNL d   1      25.172 -15.415  -2.596  0.00  0.00    -0.264 N 
ATOM      4  H   UNL d   1      26.061 -15.866  -2.800  0.00  0.00     0.190 HD
ENDROOT
BRANCH   3   5
ATOM      5  N   UNL d   1      24.924 -14.138  -3.218  0.00  0.00    -0.249 N 
ATOM      6  C   UNL d   1      25.954 -13.466  -3.849  0.00  0.00     0.334 C 
ATOM      7  O   UNL d   1      27.107 -13.897  -3.895  0.00  0.00    -0.246 OA
ATOM      8  N   UNL d   1      25.604 -12.255  -4.424  0.00  0.00    -0.340 N 
ATOM      9  H   UNL d   1      24.639 -11.958  -4.373  0.00  0.00     0.164 HD
ATOM     10  H   UNL d   1      23.959 -13.817  -3.179  0.00  0.00     0.192 HD
BRANCH   8  11
ATOM     11  C   UNL d   1      26.608 -11.448  -5.132  0.00  0.00     0.144 C 
BRANCH  11  12
ATOM     12  C   UNL d   1      26.322 -11.163  -6.621  0.00  0.00     0.149 C 
BRANCH  12  13
ATOM     13  N   UNL d   1      27.343 -11.725  -7.541  0.00  0.00    -0.350 N 
ATOM     14  C   UNL d   1      27.655 -11.246  -8.813  0.00  0.00     0.108 A 
ATOM     15  C   UNL d   1      28.654 -12.038  -9.308  0.00  0.00     0.106 A 
ATOM     16  N   UNL d   1      28.930 -12.961  -8.328  0.00  0.00    -0.361 N 
ATOM     17  C   UNL d   1      28.148 -12.766  -7.260  0.00  0.00     0.182 A 
ATOM     18  H   UNL d   1      29.631 -13.696  -8.397  0.00  0.00     0.166 HD
ENDBRANCH  12  13
ENDBRANCH  11  12
ENDBRANCH   8  11
ENDBRANCH   3   5
BRANCH   1  19
ATOM     19  C   UNL d   1      24.488 -17.384  -1.140  0.00  0.00     0.218 C 
ATOM     20  C   UNL d   1      26.008 -17.414  -0.894  0.00  0.00     0.050 C 
BRANCH  19  21
ATOM     21  O   UNL d   1      23.691 -17.581   0.054  0.00  0.00    -0.337 OA
BRANCH  21  22
ATOM     22  C   UNL d   1      22.491 -18.249  -0.077  0.00  0.00     0.070 C 
ATOM     23  C   UNL d   1      22.008 -18.716  -1.299  0.00  0.00     0.037 C 
ATOM     24  C   UNL d   1      20.762 -19.325  -1.420  0.00  0.00     0.015 C 
ATOM     25  C   UNL d   1      20.038 -19.660  -0.285  0.00  0.00    -0.026 A 
ATOM     26  C   UNL d   1      18.836 -20.367  -0.415  0.00  0.00     0.012 A 
ATOM     27  C   UNL d   1      20.557 -19.325   0.987  0.00  0.00    -0.023 A 
ATOM     28  C   UNL d   1      18.133 -20.767   0.716  0.00  0.00     0.001 A 
ATOM     29  C   UNL d   1      18.628 -20.454   1.979  0.00  0.00     0.001 A 
ATOM     30  C   UNL d   1      19.825 -19.738   2.115  0.00  0.00     0.012 A 
ATOM     31  C   UNL d   1      21.780 -18.605   1.074  0.00  0.00     0.049 C 
ENDBRANCH  21  22
ENDBRANCH  19  21
ENDBRANCH   1  19
TORSDOF 7
ENDMDL
MODEL 4
REMARK VINA RESULT:    -7.736      3.395      9.588
REMARK INTER + INTRA:         -11.871
REMARK INTER:                  -9.824
REMARK INTRA:                  -2.046
REMARK CONF_INDEPENDENT:        2.088
REMARK UNBOUND:                -2.046
REMARK  7 active torsions:
REMARK  status: ('A' for Active; 'I' for Inactive)
REMARK    1  A    between atoms: C_2  and  O_3 
REMARK    2  A    between atoms: C_2  and  C_14 
REMARK    3  A    between atoms: O_3  and  C_4 
REMARK       I    between atoms: C_14  and  N_16 
REMARK    4  A    between atoms: N_16  and  N_17 
REMARK       I    between atoms: N_17  and  C_18 
REMARK       I    between atoms: C_18  and  N_20 
REMARK    5  A    between atoms: N_20  and  C_21 
REMARK    6  A    between atoms: C_21  and  C_22 
REMARK    7  A    between atoms: C_22  and  N_23 
ROOT
ATOM      1  C   UNL d   1      26.452 -17.728   0.413  0.00  0.00     0.265 C 
ATOM      2  O   UNL d   1      26.739 -18.901   0.675  0.00  0.00    -0.269 OA
ATOM      3  N   UNL d   1      25.131 -17.390   0.148  0.00  0.00    -0.264 N 
ATOM      4  H   UNL d   1      24.827 -16.450  -0.096  0.00  0.00     0.190 HD
ENDROOT
BRANCH   3   5
ATOM      5  N   UNL d   1      24.130 -18.428   0.140  0.00  0.00    -0.249 N 
ATOM      6  C   UNL d   1      22.976 -18.268  -0.603  0.00  0.00     0.334 C 
ATOM      7  O   UNL d   1      22.737 -17.255  -1.261  0.00  0.00    -0.246 OA
ATOM      8  N   UNL d   1      22.088 -19.330  -0.550  0.00  0.00    -0.340 N 
ATOM      9  H   UNL d   1      22.342 -20.146  -0.009  0.00  0.00     0.164 HD
ATOM     10  H   UNL d   1      24.364 -19.259   0.679  0.00  0.00     0.192 HD
BRANCH   8  11
ATOM     11  C   UNL d   1      20.827 -19.286  -1.303  0.00  0.00     0.144 C 
BRANCH  11  12
ATOM     12  C   UNL d   1      19.587 -18.806  -0.521  0.00  0.00     0.149 C 
BRANCH  12  13
ATOM     13  N   UNL d   1      18.978 -19.857   0.334  0.00  0.00    -0.350 N 
ATOM     14  C   UNL d   1      19.133 -19.985   1.714  0.00  0.00     0.108 A 
ATOM     15  C   UNL d   1      18.397 -21.071   2.103  0.00  0.00     0.106 A 
ATOM     16  N   UNL d   1      17.809 -21.562   0.962  0.00  0.00    -0.361 N 
ATOM     17  C   UNL d   1      18.150 -20.825  -0.101  0.00  0.00     0.182 A 
ATOM     18  H   UNL d   1      17.198 -22.375   0.921  0.00  0.00     0.166 HD
ENDBRANCH  12  13
ENDBRANCH  11  12
ENDBRANCH   8  11
ENDBRANCH   3   5
BRANCH   1  19
ATOM     19  C   UNL d   1      27.518 -16.562   0.429  0.00  0.00     0.218 C 
ATOM     20  C   UNL d   1      28.500 -16.858  -0.720  0.00  0.00     0.050 C 
BRANCH  19  21
ATOM     21  O   UNL d   1      26.883 -15.262   0.345  0.00  0.00    -0.337 OA
BRANCH  21  22
ATOM     22  C   UNL d   1      26.573 -14.779  -0.910  0.00  0.00     0.070 C 
ATOM     23  C   UNL d   1      25.779 -15.476  -1.820  0.00  0.00     0.037 C 
ATOM     24  C   UNL d   1      25.536 -15.002  -3.107  0.00  0.00     0.015 C 
ATOM     25  C   UNL d   1      25.923 -13.718  -3.460  0.00  0.00    -0.026 A 
ATOM     26  C   UNL d   1      25.581 -13.215  -4.722  0.00  0.00     0.012 A 
ATOM     27  C   UNL d   1      26.615 -12.923  -2.518  0.00  0.00    -0.023 A 
ATOM     28  C   UNL d   1      25.905 -11.908  -5.066  0.00  0.00     0.001 A 
ATOM     29  C   UNL d   1      26.580 -11.104  -4.152  0.00  0.00     0.001 A 
ATOM     30  C   UNL d   1      26.936 -11.605  -2.892  0.00  0.00     0.012 A 
ATOM     31  C   UNL d   1      26.947 -13.474  -1.250  0.00  0.00     0.049 C 
ENDBRANCH  21  22
ENDBRANCH  19  21
ENDBRANCH   1  19
TORSDOF 7
ENDMDL
MODEL 5
REMARK VINA RESULT:    -7.561      3.064      5.361
REMARK INTER + INTRA:         -11.426
REMARK INTER:                  -9.649
REMARK INTRA:                  -1.777
REMARK CONF_INDEPENDENT:        2.088
REMARK UNBOUND:                -1.777
REMARK  7 active torsions:
REMARK  status: ('A' for Active; 'I' for Inactive)
REMARK    1  A    between atoms: C_2  and  O_3 
REMARK    2  A    between atoms: C_2  and  C_14 
REMARK    3  A    between atoms: O_3  and  C_4 
REMARK       I    between atoms: C_14  and  N_16 
REMARK    4  A    between atoms: N_16  and  N_17 
REMARK       I    between atoms: N_17  and  C_18 
REMARK       I    between atoms: C_18  and  N_20 
REMARK    5  A    between atoms: N_20  and  C_21 
REMARK    6  A    between atoms: C_21  and  C_22 
REMARK    7  A    between atoms: C_22  and  N_23 
ROOT
ATOM      1  C   UNL d   1      26.328 -14.156  -4.868  0.00  0.00     0.265 C 
ATOM      2  O   UNL d   1      25.145 -14.497  -4.979  0.00  0.00    -0.269 OA
ATOM      3  N   UNL d   1      26.677 -12.825  -5.054  0.00  0.00    -0.264 N 
ATOM      4  H   UNL d   1      27.632 -12.479  -5.000  0.00  0.00     0.190 HD
ENDROOT
BRANCH   3   5
ATOM      5  N   UNL d   1      25.654 -11.876  -5.417  0.00  0.00    -0.249 N 
ATOM      6  C   UNL d   1      25.999 -10.576  -5.735  0.00  0.00     0.334 C 
ATOM      7  O   UNL d   1      27.160 -10.164  -5.705  0.00  0.00    -0.246 OA
ATOM      8  N   UNL d   1      24.941  -9.752  -6.081  0.00  0.00    -0.340 N 
ATOM      9  H   UNL d   1      24.010 -10.147  -6.107  0.00  0.00     0.164 HD
ATOM     10  H   UNL d   1      24.708 -12.251  -5.449  0.00  0.00     0.192 HD
BRANCH   8  11
ATOM     11  C   UNL d   1      25.177  -8.349  -6.447  0.00  0.00     0.144 C 
BRANCH  11  12
ATOM     12  C   UNL d   1      24.607  -7.291  -5.480  0.00  0.00     0.149 C 
BRANCH  12  13
ATOM     13  N   UNL d   1      23.257  -6.802  -5.862  0.00  0.00    -0.350 N 
ATOM     14  C   UNL d   1      22.902  -6.246  -7.091  0.00  0.00     0.108 A 
ATOM     15  C   UNL d   1      21.569  -5.947  -7.027  0.00  0.00     0.106 A 
ATOM     16  N   UNL d   1      21.149  -6.337  -5.778  0.00  0.00    -0.361 N 
ATOM     17  C   UNL d   1      22.163  -6.861  -5.081  0.00  0.00     0.182 A 
ATOM     18  H   UNL d   1      20.200  -6.243  -5.423  0.00  0.00     0.166 HD
ENDBRANCH  12  13
ENDBRANCH  11  12
ENDBRANCH   8  11
ENDBRANCH   3   5
BRANCH   1  19
ATOM     19  C   UNL d   1      27.473 -15.164  -4.455  0.00  0.00     0.218 C 
ATOM     20  C   UNL d   1      28.659 -14.882  -5.396  0.00  0.00     0.050 C 
BRANCH  19  21
ATOM     21  O   UNL d   1      27.795 -15.050  -3.047  0.00  0.00    -0.337 OA
BRANCH  21  22
ATOM     22  C   UNL d   1      27.108 -15.856  -2.162  0.00  0.00     0.070 C 
ATOM     23  C   UNL d   1      27.728 -16.553  -1.127  0.00  0.00     0.037 C 
ATOM     24  C   UNL d   1      27.027 -17.417  -0.289  0.00  0.00     0.015 C 
ATOM     25  C   UNL d   1      25.641 -17.461  -0.339  0.00  0.00    -0.026 A 
ATOM     26  C   UNL d   1      24.940 -18.253   0.579  0.00  0.00     0.012 A 
ATOM     27  C   UNL d   1      24.959 -16.663  -1.287  0.00  0.00    -0.023 A 
ATOM     28  C   UNL d   1      23.551 -18.257   0.583  0.00  0.00     0.001 A 
ATOM     29  C   UNL d   1      22.858 -17.475  -0.336  0.00  0.00     0.001 A 
ATOM     30  C   UNL d   1      23.553 -16.688  -1.265  0.00  0.00     0.012 A 
ATOM     31  C   UNL d   1      25.709 -15.876  -2.204  0.00  0.00     0.049 C 
ENDBRANCH  21  22
ENDBRANCH  19  21
ENDBRANCH   1  19
TORSDOF 7
ENDMDL
MODEL 6
REMARK VINA RESULT:    -7.531      7.551     10.154
REMARK INTER + INTRA:         -11.429
REMARK INTER:                  -9.619
REMARK INTRA:                  -1.810
REMARK CONF_INDEPENDENT:        2.088
REMARK UNBOUND:                -1.810
REMARK  7 active torsions:
REMARK  status: ('A' for Active; 'I' for Inactive)
REMARK    1  A    between atoms: C_2  and  O_3 
REMARK    2  A    between atoms: C_2  and  C_14 
REMARK    3  A    between atoms: O_3  and  C_4 
REMARK       I    between atoms: C_14  and  N_16 
REMARK    4  A    between atoms: N_16  and  N_17 
REMARK       I    between atoms: N_17  and  C_18 
REMARK       I    between atoms: C_18  and  N_20 
REMARK    5  A    between atoms: N_20  and  C_21 
REMARK    6  A    between atoms: C_21  and  C_22 
REMARK    7  A    between atoms: C_22  and  N_23 
ROOT
ATOM      1  C   UNL d   1      30.783 -14.355   1.491  0.00  0.00     0.265 C 
ATOM      2  O   UNL d   1      31.641 -13.471   1.586  0.00  0.00    -0.269 OA
ATOM      3  N   UNL d   1      30.156 -14.825   2.638  0.00  0.00    -0.264 N 
ATOM      4  H   UNL d   1      29.458 -15.565   2.636  0.00  0.00     0.190 HD
ENDROOT
BRANCH   3   5
ATOM      5  N   UNL d   1      30.555 -14.301   3.921  0.00  0.00    -0.249 N 
ATOM      6  C   UNL d   1      29.664 -14.310   4.977  0.00  0.00     0.334 C 
ATOM      7  O   UNL d   1      28.512 -14.733   4.879  0.00  0.00    -0.246 OA
ATOM      8  N   UNL d   1      30.154 -13.794   6.166  0.00  0.00    -0.340 N 
ATOM      9  H   UNL d   1      31.114 -13.477   6.196  0.00  0.00     0.164 HD
ATOM     10  H   UNL d   1      31.518 -13.974   3.974  0.00  0.00     0.192 HD
BRANCH   8  11
ATOM     11  C   UNL d   1      29.308 -13.755   7.367  0.00  0.00     0.144 C 
BRANCH  11  12
ATOM     12  C   UNL d   1      30.008 -14.085   8.701  0.00  0.00     0.149 C 
BRANCH  12  13
ATOM     13  N   UNL d   1      29.210 -13.717   9.899  0.00  0.00    -0.350 N 
ATOM     14  C   UNL d   1      29.265 -12.502  10.581  0.00  0.00     0.108 A 
ATOM     15  C   UNL d   1      28.363 -12.575  11.607  0.00  0.00     0.106 A 
ATOM     16  N   UNL d   1      27.780 -13.816  11.515  0.00  0.00    -0.361 N 
ATOM     17  C   UNL d   1      28.282 -14.499  10.480  0.00  0.00     0.182 A 
ATOM     18  H   UNL d   1      27.065 -14.175  12.144  0.00  0.00     0.166 HD
ENDBRANCH  12  13
ENDBRANCH  11  12
ENDBRANCH   8  11
ENDBRANCH   3   5
BRANCH   1  19
ATOM     19  C   UNL d   1      30.308 -14.940   0.103  0.00  0.00     0.218 C 
ATOM     20  C   UNL d   1      31.573 -15.073  -0.766  0.00  0.00     0.050 C 
BRANCH  19  21
ATOM     21  O   UNL d   1      29.575 -16.178   0.273  0.00  0.00    -0.337 OA
BRANCH  21  22
ATOM     22  C   UNL d   1      28.244 -16.192  -0.091  0.00  0.00     0.070 C 
ATOM     23  C   UNL d   1      27.677 -15.244  -0.942  0.00  0.00     0.037 C 
ATOM     24  C   UNL d   1      26.316 -15.234  -1.240  0.00  0.00     0.015 C 
ATOM     25  C   UNL d   1      25.511 -16.293  -0.847  0.00  0.00    -0.026 A 
ATOM     26  C   UNL d   1      24.168 -16.325  -1.243  0.00  0.00     0.012 A 
ATOM     27  C   UNL d   1      26.077 -17.349  -0.095  0.00  0.00    -0.023 A 
ATOM     28  C   UNL d   1      23.365 -17.410  -0.912  0.00  0.00     0.001 A 
ATOM     29  C   UNL d   1      23.903 -18.464  -0.179  0.00  0.00     0.001 A 
ATOM     30  C   UNL d   1      25.244 -18.434   0.230  0.00  0.00     0.012 A 
ATOM     31  C   UNL d   1      27.445 -17.275   0.289  0.00  0.00     0.049 C 
ENDBRANCH  21  22
ENDBRANCH  19  21
ENDBRANCH   1  19
TORSDOF 7
ENDMDL
MODEL 7
REMARK VINA RESULT:    -7.422      5.226      9.082
REMARK INTER + INTRA:         -11.748
REMARK INTER:                  -9.510
REMARK INTRA:                  -2.238
REMARK CONF_INDEPENDENT:        2.088
REMARK UNBOUND:                -2.238
REMARK  7 active torsions:
REMARK  status: ('A' for Active; 'I' for Inactive)
REMARK    1  A    between atoms: C_2  and  O_3 
REMARK    2  A    between atoms: C_2  and  C_14 
REMARK    3  A    between atoms: O_3  and  C_4 
REMARK       I    between atoms: C_14  and  N_16 
REMARK    4  A    between atoms: N_16  and  N_17 
REMARK       I    between atoms: N_17  and  C_18 
REMARK       I    between atoms: C_18  and  N_20 
REMARK    5  A    between atoms: N_20  and  C_21 
REMARK    6  A    between atoms: C_21  and  C_22 
REMARK    7  A    between atoms: C_22  and  N_23 
ROOT
ATOM      1  C   UNL d   1      26.183 -17.120  -0.126  0.00  0.00     0.265 C 
ATOM      2  O   UNL d   1      26.810 -18.097   0.296  0.00  0.00    -0.269 OA
ATOM      3  N   UNL d   1      26.566 -15.842   0.261  0.00  0.00    -0.264 N 
ATOM      4  H   UNL d   1      26.082 -14.996  -0.029  0.00  0.00     0.190 HD
ENDROOT
BRANCH   3   5
ATOM      5  N   UNL d   1      27.662 -15.689   1.185  0.00  0.00    -0.249 N 
ATOM      6  C   UNL d   1      27.855 -14.484   1.833  0.00  0.00     0.334 C 
ATOM      7  O   UNL d   1      27.138 -13.499   1.647  0.00  0.00    -0.246 OA
ATOM      8  N   UNL d   1      28.929 -14.449   2.708  0.00  0.00    -0.340 N 
ATOM      9  H   UNL d   1      29.474 -15.291   2.836  0.00  0.00     0.164 HD
ATOM     10  H   UNL d   1      28.226 -16.524   1.330  0.00  0.00     0.192 HD
BRANCH   8  11
ATOM     11  C   UNL d   1      29.236 -13.227   3.464  0.00  0.00     0.144 C 
BRANCH  11  12
ATOM     12  C   UNL d   1      28.165 -12.768   4.475  0.00  0.00     0.149 C 
BRANCH  12  13
ATOM     13  N   UNL d   1      28.447 -13.188   5.872  0.00  0.00    -0.350 N 
ATOM     14  C   UNL d   1      28.298 -12.398   7.013  0.00  0.00     0.108 A 
ATOM     15  C   UNL d   1      28.650 -13.171   8.085  0.00  0.00     0.106 A 
ATOM     16  N   UNL d   1      28.987 -14.401   7.576  0.00  0.00    -0.361 N 
ATOM     17  C   UNL d   1      28.855 -14.415   6.244  0.00  0.00     0.182 A 
ATOM     18  H   UNL d   1      29.297 -15.199   8.127  0.00  0.00     0.166 HD
ENDBRANCH  12  13
ENDBRANCH  11  12
ENDBRANCH   8  11
ENDBRANCH   3   5
BRANCH   1  19
ATOM     19  C   UNL d   1      24.989 -17.249  -1.152  0.00  0.00     0.218 C 
ATOM     20  C   UNL d   1      23.935 -18.149  -0.480  0.00  0.00     0.050 C 
BRANCH  19  21
ATOM     21  O   UNL d   1      24.488 -15.948  -1.548  0.00  0.00    -0.337 OA
BRANCH  21  22
ATOM     22  C   UNL d   1      25.117 -15.309  -2.598  0.00  0.00     0.070 C 
ATOM     23  C   UNL d   1      24.659 -14.112  -3.145  0.00  0.00     0.037 C 
ATOM     24  C   UNL d   1      25.267 -13.521  -4.250  0.00  0.00     0.015 C 
ATOM     25  C   UNL d   1      26.476 -14.010  -4.723  0.00  0.00    -0.026 A 
ATOM     26  C   UNL d   1      27.131 -13.344  -5.766  0.00  0.00     0.012 A 
ATOM     27  C   UNL d   1      27.048 -15.147  -4.107  0.00  0.00    -0.023 A 
ATOM     28  C   UNL d   1      28.373 -13.784  -6.208  0.00  0.00     0.001 A 
ATOM     29  C   UNL d   1      28.960 -14.897  -5.611  0.00  0.00     0.001 A 
ATOM     30  C   UNL d   1      28.304 -15.575  -4.574  0.00  0.00     0.012 A 
ATOM     31  C   UNL d   1      26.348 -15.796  -3.053  0.00  0.00     0.049 C 
ENDBRANCH  21  22
ENDBRANCH  19  21
ENDBRANCH   1  19
TORSDOF 7
ENDMDL
MODEL 8
REMARK VINA RESULT:    -7.233      4.602      8.620
REMARK INTER + INTRA:         -11.804
REMARK INTER:                  -9.321
REMARK INTRA:                  -2.483
REMARK CONF_INDEPENDENT:        2.088
REMARK UNBOUND:                -2.483
REMARK  7 active torsions:
REMARK  status: ('A' for Active; 'I' for Inactive)
REMARK    1  A    between atoms: C_2  and  O_3 
REMARK    2  A    between atoms: C_2  and  C_14 
REMARK    3  A    between atoms: O_3  and  C_4 
REMARK       I    between atoms: C_14  and  N_16 
REMARK    4  A    between atoms: N_16  and  N_17 
REMARK       I    between atoms: N_17  and  C_18 
REMARK       I    between atoms: C_18  and  N_20 
REMARK    5  A    between atoms: N_20  and  C_21 
REMARK    6  A    between atoms: C_21  and  C_22 
REMARK    7  A    between atoms: C_22  and  N_23 
ROOT
ATOM      1  C   UNL d   1      26.318 -17.271  -0.165  0.00  0.00     0.265 C 
ATOM      2  O   UNL d   1      26.861 -18.298   0.257  0.00  0.00    -0.269 OA
ATOM      3  N   UNL d   1      26.925 -16.040   0.045  0.00  0.00    -0.264 N 
ATOM      4  H   UNL d   1      26.524 -15.154  -0.255  0.00  0.00     0.190 HD
ENDROOT
BRANCH   3   5
ATOM      5  N   UNL d   1      28.157 -15.984   0.792  0.00  0.00    -0.249 N 
ATOM      6  C   UNL d   1      28.748 -14.764   1.059  0.00  0.00     0.334 C 
ATOM      7  O   UNL d   1      28.282 -13.693   0.668  0.00  0.00    -0.246 OA
ATOM      8  N   UNL d   1      29.921 -14.824   1.794  0.00  0.00    -0.340 N 
ATOM      9  H   UNL d   1      30.250 -15.729   2.105  0.00  0.00     0.164 HD
ATOM     10  H   UNL d   1      28.508 -16.884   1.115  0.00  0.00     0.192 HD
BRANCH   8  11
ATOM     11  C   UNL d   1      30.642 -13.595   2.150  0.00  0.00     0.144 C 
BRANCH  11  12
ATOM     12  C   UNL d   1      30.524 -13.141   3.620  0.00  0.00     0.149 C 
BRANCH  12  13
ATOM     13  N   UNL d   1      29.453 -13.840   4.374  0.00  0.00    -0.350 N 
ATOM     14  C   UNL d   1      28.081 -13.621   4.246  0.00  0.00     0.108 A 
ATOM     15  C   UNL d   1      27.454 -14.480   5.106  0.00  0.00     0.106 A 
ATOM     16  N   UNL d   1      28.450 -15.200   5.720  0.00  0.00    -0.361 N 
ATOM     17  C   UNL d   1      29.653 -14.823   5.271  0.00  0.00     0.182 A 
ATOM     18  H   UNL d   1      28.304 -15.923   6.421  0.00  0.00     0.166 HD
ENDBRANCH  12  13
ENDBRANCH  11  12
ENDBRANCH   8  11
ENDBRANCH   3   5
BRANCH   1  19
ATOM     19  C   UNL d   1      24.978 -17.295  -1.002  0.00  0.00     0.218 C 
ATOM     20  C   UNL d   1      23.958 -18.089  -0.164  0.00  0.00     0.050 C 
BRANCH  19  21
ATOM     21  O   UNL d   1      24.545 -15.956  -1.347  0.00  0.00    -0.337 OA
BRANCH  21  22
ATOM     22  C   UNL d   1      25.135 -15.351  -2.438  0.00  0.00     0.070 C 
ATOM     23  C   UNL d   1      24.614 -14.213  -3.052  0.00  0.00     0.037 C 
ATOM     24  C   UNL d   1      25.186 -13.659  -4.195  0.00  0.00     0.015 C 
ATOM     25  C   UNL d   1      26.415 -14.115  -4.648  0.00  0.00    -0.026 A 
ATOM     26  C   UNL d   1      27.030 -13.481  -5.735  0.00  0.00     0.012 A 
ATOM     27  C   UNL d   1      27.047 -15.183  -3.970  0.00  0.00    -0.023 A 
ATOM     28  C   UNL d   1      28.290 -13.885  -6.160  0.00  0.00     0.001 A 
ATOM     29  C   UNL d   1      28.935 -14.929  -5.503  0.00  0.00     0.001 A 
ATOM     30  C   UNL d   1      28.320 -15.575  -4.422  0.00  0.00     0.012 A 
ATOM     31  C   UNL d   1      26.386 -15.802  -2.874  0.00  0.00     0.049 C 
ENDBRANCH  21  22
ENDBRANCH  19  21
ENDBRANCH   1  19
TORSDOF 7
ENDMDL
MODEL 9
REMARK VINA RESULT:    -6.872      4.424      8.679
REMARK INTER + INTRA:         -11.516
REMARK INTER:                  -8.960
REMARK INTRA:                  -2.556
REMARK CONF_INDEPENDENT:        2.088
REMARK UNBOUND:                -2.556
REMARK  7 active torsions:
REMARK  status: ('A' for Active; 'I' for Inactive)
REMARK    1  A    between atoms: C_2  and  O_3 
REMARK    2  A    between atoms: C_2  and  C_14 
REMARK    3  A    between atoms: O_3  and  C_4 
REMARK       I    between atoms: C_14  and  N_16 
REMARK    4  A    between atoms: N_16  and  N_17 
REMARK       I    between atoms: N_17  and  C_18 
REMARK       I    between atoms: C_18  and  N_20 
REMARK    5  A    between atoms: N_20  and  C_21 
REMARK    6  A    between atoms: C_21  and  C_22 
REMARK    7  A    between atoms: C_22  and  N_23 
ROOT
ATOM      1  C   UNL d   1      26.284 -17.155  -0.300  0.00  0.00     0.265 C 
ATOM      2  O   UNL d   1      26.758 -18.192   0.175  0.00  0.00    -0.269 OA
ATOM      3  N   UNL d   1      26.948 -15.950  -0.111  0.00  0.00    -0.264 N 
ATOM      4  H   UNL d   1      26.604 -15.056  -0.454  0.00  0.00     0.190 HD
ENDROOT
BRANCH   3   5
ATOM      5  N   UNL d   1      28.157 -15.931   0.675  0.00  0.00    -0.249 N 
ATOM      6  C   UNL d   1      28.778 -14.730   0.959  0.00  0.00     0.334 C 
ATOM      7  O   UNL d   1      28.358 -13.645   0.551  0.00  0.00    -0.246 OA
ATOM      8  N   UNL d   1      29.924 -14.825   1.731  0.00  0.00    -0.340 N 
ATOM      9  H   UNL d   1      30.213 -15.739   2.054  0.00  0.00     0.164 HD
ATOM     10  H   UNL d   1      28.468 -16.840   1.011  0.00  0.00     0.192 HD
BRANCH   8  11
ATOM     11  C   UNL d   1      30.672 -13.618   2.108  0.00  0.00     0.144 C 
BRANCH  11  12
ATOM     12  C   UNL d   1      30.215 -12.914   3.402  0.00  0.00     0.149 C 
BRANCH  12  13
ATOM     13  N   UNL d   1      29.284 -13.727   4.225  0.00  0.00    -0.350 N 
ATOM     14  C   UNL d   1      27.892 -13.639   4.217  0.00  0.00     0.108 A 
ATOM     15  C   UNL d   1      27.425 -14.569   5.105  0.00  0.00     0.106 A 
ATOM     16  N   UNL d   1      28.534 -15.200   5.615  0.00  0.00    -0.361 N 
ATOM     17  C   UNL d   1      29.652 -14.701   5.077  0.00  0.00     0.182 A 
ATOM     18  H   UNL d   1      28.517 -15.946   6.308  0.00  0.00     0.166 HD
ENDBRANCH  12  13
ENDBRANCH  11  12
ENDBRANCH   8  11
ENDBRANCH   3   5
BRANCH   1  19
ATOM     19  C   UNL d   1      24.972 -17.139  -1.180  0.00  0.00     0.218 C 
ATOM     20  C   UNL d   1      23.910 -17.926  -0.389  0.00  0.00     0.050 C 
BRANCH  19  21
ATOM     21  O   UNL d   1      24.576 -15.787  -1.517  0.00  0.00    -0.337 OA
BRANCH  21  22
ATOM     22  C   UNL d   1      25.247 -15.158  -2.547  0.00  0.00     0.070 C 
ATOM     23  C   UNL d   1      25.904 -15.851  -3.563  0.00  0.00     0.037 C 
ATOM     24  C   UNL d   1      26.635 -15.199  -4.553  0.00  0.00     0.015 C 
ATOM     25  C   UNL d   1      26.570 -13.818  -4.669  0.00  0.00    -0.026 A 
ATOM     26  C   UNL d   1      27.223 -13.182  -5.733  0.00  0.00     0.012 A 
ATOM     27  C   UNL d   1      25.801 -13.083  -3.738  0.00  0.00    -0.023 A 
ATOM     28  C   UNL d   1      27.114 -11.807  -5.900  0.00  0.00     0.001 A 
ATOM     29  C   UNL d   1      26.356 -11.063  -4.999  0.00  0.00     0.001 A 
ATOM     30  C   UNL d   1      25.709 -11.692  -3.927  0.00  0.00     0.012 A 
ATOM     31  C   UNL d   1      25.156 -13.768  -2.671  0.00  0.00     0.049 C 
ENDBRANCH  21  22
ENDBRANCH  19  21
ENDBRANCH   1  19
TORSDOF 7
ENDMDL
