MODEL 1
REMARK VINA RESULT:    -8.738      0.000      0.000
REMARK INTER + INTRA:         -11.039
REMARK INTER:                 -10.230
REMARK INTRA:                  -0.809
REMARK CONF_INDEPENDENT:        1.492
REMARK UNBOUND:                -0.809
REMARK  5 active torsions:
REMARK  status: ('A' for Active; 'I' for Inactive)
REMARK       I    between atoms: C_2  and  N_3 
REMARK    1  A    between atoms: C_2  and  C_13 
REMARK    2  A    between atoms: N_3  and  N_4 
REMARK    3  A    between atoms: C_5  and  C_6 
REMARK    4  A    between atoms: C_16  and  O_17 
REMARK    5  A    between atoms: C_19  and  O_20 
ROOT
ATOM      1  O   UNL d   1      21.278 -17.575  -0.970  0.00  0.00    -0.266 OA
ATOM      2  C   UNL d   1      21.534 -18.614  -0.353  0.00  0.00     0.274 C 
ATOM      3  N   UNL d   1      22.819 -19.120  -0.150  0.00  0.00    -0.243 N 
ATOM      4  H   UNL d   1      22.948 -19.985   0.367  0.00  0.00     0.192 HD
ENDROOT
BRANCH   2   5
ATOM      5  C   UNL d   1      20.380 -19.426   0.155  0.00  0.00     0.067 A 
ATOM      6  C   UNL d   1      20.333 -19.727   1.532  0.00  0.00     0.022 A 
ATOM      7  C   UNL d   1      19.262 -20.448   2.083  0.00  0.00     0.037 A 
ATOM      8  C   UNL d   1      18.249 -20.901   1.247  0.00  0.00     0.068 A 
ATOM      9  C   UNL d   1      18.307 -20.669  -0.125  0.00  0.00     0.074 A 
ATOM     10  C   UNL d   1      19.367 -19.927  -0.668  0.00  0.00     0.084 A 
BRANCH   8  11
ATOM     11  O   UNL d   1      17.166 -21.576   1.730  0.00  0.00    -0.361 OA
ATOM     12  H   UNL d   1      16.889 -22.252   1.089  0.00  0.00     0.217 HD
ENDBRANCH   8  11
BRANCH  10  13
ATOM     13  O   UNL d   1      19.407 -19.700  -2.017  0.00  0.00    -0.360 OA
ATOM     14  H   UNL d   1      20.002 -18.950  -2.191  0.00  0.00     0.217 HD
ENDBRANCH  10  13
ENDBRANCH   2   5
BRANCH   3  15
ATOM     15  N   UNL d   1      23.916 -18.418  -0.618  0.00  0.00    -0.183 NA
ATOM     16  C   UNL d   1      23.951 -17.141  -0.401  0.00  0.00     0.150 C 
BRANCH  16  17
ATOM     17  C   UNL d   1      25.090 -16.293  -0.860  0.00  0.00    -0.015 A 
ATOM     18  C   UNL d   1      26.301 -16.274  -0.158  0.00  0.00     0.013 A 
ATOM     19  C   UNL d   1      27.383 -15.522  -0.638  0.00  0.00     0.003 A 
ATOM     20  C   UNL d   1      27.250 -14.764  -1.802  0.00  0.00     0.024 A 
ATOM     21  C   UNL d   1      26.034 -14.763  -2.482  0.00  0.00     0.034 A 
ATOM     22 CL   UNL d   1      25.861 -13.797  -3.900  0.00  0.00    -0.084 Cl
ATOM     23  C   UNL d   1      24.957 -15.535  -2.030  0.00  0.00     0.036 A 
ENDBRANCH  16  17
ENDBRANCH   3  15
TORSDOF 5
ENDMDL
MODEL 2
REMARK VINA RESULT:    -8.226      1.368      1.724
REMARK INTER + INTRA:         -10.631
REMARK INTER:                  -9.718
REMARK INTRA:                  -0.914
REMARK CONF_INDEPENDENT:        1.492
REMARK UNBOUND:                -0.914
REMARK  5 active torsions:
REMARK  status: ('A' for Active; 'I' for Inactive)
REMARK       I    between atoms: C_2  and  N_3 
REMARK    1  A    between atoms: C_2  and  C_13 
REMARK    2  A    between atoms: N_3  and  N_4 
REMARK    3  A    between atoms: C_5  and  C_6 
REMARK    4  A    between atoms: C_16  and  O_17 
REMARK    5  A    between atoms: C_19  and  O_20 
ROOT
ATOM      1  O   UNL d   1      21.418 -17.447  -0.935  0.00  0.00    -0.266 OA
ATOM      2  C   UNL d   1      21.669 -18.327  -0.107  0.00  0.00     0.274 C 
ATOM      3  N   UNL d   1      22.936 -18.578   0.425  0.00  0.00    -0.243 N 
ATOM      4  H   UNL d   1      23.063 -19.325   1.101  0.00  0.00     0.192 HD
ENDROOT
BRANCH   2   5
ATOM      5  C   UNL d   1      20.551 -19.235   0.308  0.00  0.00     0.067 A 
ATOM      6  C   UNL d   1      20.369 -19.483   1.684  0.00  0.00     0.022 A 
ATOM      7  C   UNL d   1      19.318 -20.291   2.146  0.00  0.00     0.037 A 
ATOM      8  C   UNL d   1      18.463 -20.882   1.224  0.00  0.00     0.068 A 
ATOM      9  C   UNL d   1      18.662 -20.702  -0.143  0.00  0.00     0.074 A 
ATOM     10  C   UNL d   1      19.699 -19.874  -0.599  0.00  0.00     0.084 A 
BRANCH   8  11
ATOM     11  O   UNL d   1      17.403 -21.648   1.614  0.00  0.00    -0.361 OA
ATOM     12  H   UNL d   1      17.018 -22.093   0.840  0.00  0.00     0.217 HD
ENDBRANCH   8  11
BRANCH  10  13
ATOM     13  O   UNL d   1      19.877 -19.699  -1.944  0.00  0.00    -0.360 OA
ATOM     14  H   UNL d   1      20.288 -18.830  -2.095  0.00  0.00     0.217 HD
ENDBRANCH  10  13
ENDBRANCH   2   5
BRANCH   3  15
ATOM     15  N   UNL d   1      24.006 -17.781   0.057  0.00  0.00    -0.183 NA
ATOM     16  C   UNL d   1      24.259 -17.659  -1.209  0.00  0.00     0.150 C 
BRANCH  16  17
ATOM     17  C   UNL d   1      25.385 -16.820  -1.711  0.00  0.00    -0.015 A 
ATOM     18  C   UNL d   1      25.155 -15.763  -2.599  0.00  0.00     0.013 A 
ATOM     19  C   UNL d   1      26.216 -14.943  -3.011  0.00  0.00     0.003 A 
ATOM     20  C   UNL d   1      27.513 -15.195  -2.562  0.00  0.00     0.024 A 
ATOM     21  C   UNL d   1      27.743 -16.266  -1.700  0.00  0.00     0.034 A 
ATOM     22 CL   UNL d   1      29.351 -16.596  -1.176  0.00  0.00    -0.084 Cl
ATOM     23  C   UNL d   1      26.687 -17.071  -1.257  0.00  0.00     0.036 A 
ENDBRANCH  16  17
ENDBRANCH   3  15
TORSDOF 5
ENDMDL
MODEL 3
REMARK VINA RESULT:    -7.001      5.514      9.933
REMARK INTER + INTRA:          -9.398
REMARK INTER:                  -8.493
REMARK INTRA:                  -0.905
REMARK CONF_INDEPENDENT:        1.492
REMARK UNBOUND:                -0.905
REMARK  5 active torsions:
REMARK  status: ('A' for Active; 'I' for Inactive)
REMARK       I    between atoms: C_2  and  N_3 
REMARK    1  A    between atoms: C_2  and  C_13 
REMARK    2  A    between atoms: N_3  and  N_4 
REMARK    3  A    between atoms: C_5  and  C_6 
REMARK    4  A    between atoms: C_16  and  O_17 
REMARK    5  A    between atoms: C_19  and  O_20 
ROOT
ATOM      1  O   UNL d   1      27.069 -15.258  -5.395  0.00  0.00    -0.266 OA
ATOM      2  C   UNL d   1      26.613 -14.160  -5.060  0.00  0.00     0.274 C 
ATOM      3  N   UNL d   1      25.635 -13.971  -4.082  0.00  0.00    -0.243 N 
ATOM      4  H   UNL d   1      25.308 -13.035  -3.866  0.00  0.00     0.192 HD
ENDROOT
BRANCH   2   5
ATOM      5  C   UNL d   1      27.094 -12.950  -5.803  0.00  0.00     0.067 A 
ATOM      6  C   UNL d   1      28.159 -13.107  -6.714  0.00  0.00     0.022 A 
ATOM      7  C   UNL d   1      28.633 -12.025  -7.473  0.00  0.00     0.037 A 
ATOM      8  C   UNL d   1      28.063 -10.771  -7.295  0.00  0.00     0.068 A 
ATOM      9  C   UNL d   1      27.052 -10.580  -6.355  0.00  0.00     0.074 A 
ATOM     10  C   UNL d   1      26.565 -11.668  -5.616  0.00  0.00     0.084 A 
BRANCH   8  11
ATOM     11  O   UNL d   1      28.457  -9.690  -8.029  0.00  0.00    -0.361 OA
ATOM     12  H   UNL d   1      28.866  -9.990  -8.859  0.00  0.00     0.217 HD
ENDBRANCH   8  11
BRANCH  10  13
ATOM     13  O   UNL d   1      25.567 -11.468  -4.702  0.00  0.00    -0.360 OA
ATOM     14  H   UNL d   1      24.780 -11.131  -5.167  0.00  0.00     0.217 HD
ENDBRANCH  10  13
ENDBRANCH   2   5
BRANCH   3  15
ATOM     15  N   UNL d   1      25.143 -15.060  -3.383  0.00  0.00    -0.183 NA
ATOM     16  C   UNL d   1      25.683 -15.333  -2.236  0.00  0.00     0.150 C 
BRANCH  16  17
ATOM     17  C   UNL d   1      25.224 -16.480  -1.401  0.00  0.00    -0.015 A 
ATOM     18  C   UNL d   1      26.095 -17.113  -0.506  0.00  0.00     0.013 A 
ATOM     19  C   UNL d   1      25.631 -18.148   0.318  0.00  0.00     0.003 A 
ATOM     20  C   UNL d   1      24.305 -18.575   0.230  0.00  0.00     0.024 A 
ATOM     21  C   UNL d   1      23.448 -17.962  -0.682  0.00  0.00     0.034 A 
ATOM     22 CL   UNL d   1      21.821 -18.515  -0.814  0.00  0.00    -0.084 Cl
ATOM     23  C   UNL d   1      23.893 -16.906  -1.487  0.00  0.00     0.036 A 
ENDBRANCH  16  17
ENDBRANCH   3  15
TORSDOF 5
ENDMDL
MODEL 4
REMARK VINA RESULT:    -6.952     12.433     14.100
REMARK INTER + INTRA:          -9.300
REMARK INTER:                  -8.443
REMARK INTRA:                  -0.857
REMARK CONF_INDEPENDENT:        1.492
REMARK UNBOUND:                -0.857
REMARK  5 active torsions:
REMARK  status: ('A' for Active; 'I' for Inactive)
REMARK       I    between atoms: C_2  and  N_3 
REMARK    1  A    between atoms: C_2  and  C_13 
REMARK    2  A    between atoms: N_3  and  N_4 
REMARK    3  A    between atoms: C_5  and  C_6 
REMARK    4  A    between atoms: C_16  and  O_17 
REMARK    5  A    between atoms: C_19  and  O_20 
ROOT
ATOM      1  O   UNL d   1      30.780 -21.212   6.916  0.00  0.00    -0.266 OA
ATOM      2  C   UNL d   1      31.489 -21.606   5.985  0.00  0.00     0.274 C 
ATOM      3  N   UNL d   1      32.847 -21.912   6.095  0.00  0.00    -0.243 N 
ATOM      4  H   UNL d   1      33.364 -22.227   5.280  0.00  0.00     0.192 HD
ENDROOT
BRANCH   2   5
ATOM      5  C   UNL d   1      30.866 -21.698   4.624  0.00  0.00     0.067 A 
ATOM      6  C   UNL d   1      29.482 -21.958   4.541  0.00  0.00     0.022 A 
ATOM      7  C   UNL d   1      28.825 -22.017   3.302  0.00  0.00     0.037 A 
ATOM      8  C   UNL d   1      29.562 -21.849   2.136  0.00  0.00     0.068 A 
ATOM      9  C   UNL d   1      30.940 -21.654   2.192  0.00  0.00     0.074 A 
ATOM     10  C   UNL d   1      31.589 -21.571   3.433  0.00  0.00     0.084 A 
BRANCH   8  11
ATOM     11  O   UNL d   1      28.974 -21.861   0.905  0.00  0.00    -0.361 OA
ATOM     12  H   UNL d   1      29.030 -20.976   0.507  0.00  0.00     0.217 HD
ENDBRANCH   8  11
BRANCH  10  13
ATOM     13  O   UNL d   1      32.942 -21.370   3.473  0.00  0.00    -0.360 OA
ATOM     14  H   UNL d   1      33.389 -22.208   3.261  0.00  0.00     0.217 HD
ENDBRANCH  10  13
ENDBRANCH   2   5
BRANCH   3  15
ATOM     15  N   UNL d   1      33.474 -21.822   7.326  0.00  0.00    -0.183 NA
ATOM     16  C   UNL d   1      34.672 -21.328   7.357  0.00  0.00     0.150 C 
BRANCH  16  17
ATOM     17  C   UNL d   1      35.433 -21.184   8.631  0.00  0.00    -0.015 A 
ATOM     18  C   UNL d   1      35.839 -19.924   9.088  0.00  0.00     0.013 A 
ATOM     19  C   UNL d   1      36.497 -19.799  10.320  0.00  0.00     0.003 A 
ATOM     20  C   UNL d   1      36.779 -20.933  11.085  0.00  0.00     0.024 A 
ATOM     21  C   UNL d   1      36.399 -22.187  10.613  0.00  0.00     0.034 A 
ATOM     22 CL   UNL d   1      36.780 -23.588  11.542  0.00  0.00    -0.084 Cl
ATOM     23  C   UNL d   1      35.713 -22.321   9.400  0.00  0.00     0.036 A 
ENDBRANCH  16  17
ENDBRANCH   3  15
TORSDOF 5
ENDMDL
MODEL 5
REMARK VINA RESULT:    -6.775      9.678     10.786
REMARK INTER + INTRA:          -9.113
REMARK INTER:                  -8.267
REMARK INTRA:                  -0.846
REMARK CONF_INDEPENDENT:        1.492
REMARK UNBOUND:                -0.846
REMARK  5 active torsions:
REMARK  status: ('A' for Active; 'I' for Inactive)
REMARK       I    between atoms: C_2  and  N_3 
REMARK    1  A    between atoms: C_2  and  C_13 
REMARK    2  A    between atoms: N_3  and  N_4 
REMARK    3  A    between atoms: C_5  and  C_6 
REMARK    4  A    between atoms: C_16  and  O_17 
REMARK    5  A    between atoms: C_19  and  O_20 
ROOT
ATOM      1  O   UNL d   1      33.326 -21.227   1.198  0.00  0.00    -0.266 OA
ATOM      2  C   UNL d   1      32.131 -21.115   1.484  0.00  0.00     0.274 C 
ATOM      3  N   UNL d   1      31.122 -20.796   0.573  0.00  0.00    -0.243 N 
ATOM      4  H   UNL d   1      30.160 -20.718   0.887  0.00  0.00     0.192 HD
ENDROOT
BRANCH   2   5
ATOM      5  C   UNL d   1      31.742 -21.264   2.925  0.00  0.00     0.067 A 
ATOM      6  C   UNL d   1      32.745 -21.115   3.905  0.00  0.00     0.022 A 
ATOM      7  C   UNL d   1      32.444 -21.202   5.273  0.00  0.00     0.037 A 
ATOM      8  C   UNL d   1      31.139 -21.473   5.664  0.00  0.00     0.068 A 
ATOM      9  C   UNL d   1      30.145 -21.686   4.712  0.00  0.00     0.074 A 
ATOM     10  C   UNL d   1      30.445 -21.575   3.346  0.00  0.00     0.084 A 
BRANCH   8  11
ATOM     11  O   UNL d   1      30.780 -21.534   6.979  0.00  0.00    -0.361 OA
ATOM     12  H   UNL d   1      30.044 -22.160   7.089  0.00  0.00     0.217 HD
ENDBRANCH   8  11
BRANCH  10  13
ATOM     13  O   UNL d   1      29.456 -21.778   2.422  0.00  0.00    -0.360 OA
ATOM     14  H   UNL d   1      29.128 -20.914   2.118  0.00  0.00     0.217 HD
ENDBRANCH  10  13
ENDBRANCH   2   5
BRANCH   3  15
ATOM     15  N   UNL d   1      31.434 -20.627  -0.765  0.00  0.00    -0.183 NA
ATOM     16  C   UNL d   1      31.172 -21.607  -1.573  0.00  0.00     0.150 C 
BRANCH  16  17
ATOM     17  C   UNL d   1      31.463 -21.525  -3.033  0.00  0.00    -0.015 A 
ATOM     18  C   UNL d   1      32.115 -22.572  -3.697  0.00  0.00     0.013 A 
ATOM     19  C   UNL d   1      32.324 -22.507  -5.082  0.00  0.00     0.003 A 
ATOM     20  C   UNL d   1      31.912 -21.385  -5.803  0.00  0.00     0.024 A 
ATOM     21  C   UNL d   1      31.290 -20.333  -5.135  0.00  0.00     0.034 A 
ATOM     22 CL   UNL d   1      30.815 -18.934  -6.022  0.00  0.00    -0.084 Cl
ATOM     23  C   UNL d   1      31.047 -20.401  -3.757  0.00  0.00     0.036 A 
ENDBRANCH  16  17
ENDBRANCH   3  15
TORSDOF 5
ENDMDL
MODEL 6
REMARK VINA RESULT:    -6.756      5.828     10.063
REMARK INTER + INTRA:          -9.084
REMARK INTER:                  -8.247
REMARK INTRA:                  -0.837
REMARK CONF_INDEPENDENT:        1.492
REMARK UNBOUND:                -0.837
REMARK  5 active torsions:
REMARK  status: ('A' for Active; 'I' for Inactive)
REMARK       I    between atoms: C_2  and  N_3 
REMARK    1  A    between atoms: C_2  and  C_13 
REMARK    2  A    between atoms: N_3  and  N_4 
REMARK    3  A    between atoms: C_5  and  C_6 
REMARK    4  A    between atoms: C_16  and  O_17 
REMARK    5  A    between atoms: C_19  and  O_20 
ROOT
ATOM      1  O   UNL d   1      27.149 -13.968  -5.065  0.00  0.00    -0.266 OA
ATOM      2  C   UNL d   1      26.260 -13.116  -4.972  0.00  0.00     0.274 C 
ATOM      3  N   UNL d   1      25.059 -13.293  -4.283  0.00  0.00    -0.243 N 
ATOM      4  H   UNL d   1      24.374 -12.543  -4.256  0.00  0.00     0.192 HD
ENDROOT
BRANCH   2   5
ATOM      5  C   UNL d   1      26.453 -11.824  -5.709  0.00  0.00     0.067 A 
ATOM      6  C   UNL d   1      27.229 -11.838  -6.886  0.00  0.00     0.022 A 
ATOM      7  C   UNL d   1      27.418 -10.673  -7.647  0.00  0.00     0.037 A 
ATOM      8  C   UNL d   1      26.857  -9.480  -7.210  0.00  0.00     0.068 A 
ATOM      9  C   UNL d   1      26.140  -9.430  -6.017  0.00  0.00     0.074 A 
ATOM     10  C   UNL d   1      25.933 -10.601  -5.272  0.00  0.00     0.084 A 
BRANCH   8  11
ATOM     11  O   UNL d   1      26.976  -8.324  -7.926  0.00  0.00    -0.361 OA
ATOM     12  H   UNL d   1      26.097  -8.023  -8.210  0.00  0.00     0.217 HD
ENDBRANCH   8  11
BRANCH  10  13
ATOM     13  O   UNL d   1      25.220 -10.539  -4.106  0.00  0.00    -0.360 OA
ATOM     14  H   UNL d   1      24.408 -11.067  -4.207  0.00  0.00     0.217 HD
ENDBRANCH  10  13
ENDBRANCH   2   5
BRANCH   3  15
ATOM     15  N   UNL d   1      24.824 -14.476  -3.605  0.00  0.00    -0.183 NA
ATOM     16  C   UNL d   1      25.483 -14.683  -2.507  0.00  0.00     0.150 C 
BRANCH  16  17
ATOM     17  C   UNL d   1      25.300 -15.922  -1.699  0.00  0.00    -0.015 A 
ATOM     18  C   UNL d   1      26.361 -16.466  -0.965  0.00  0.00     0.013 A 
ATOM     19  C   UNL d   1      26.155 -17.595  -0.158  0.00  0.00     0.003 A 
ATOM     20  C   UNL d   1      24.900 -18.203  -0.107  0.00  0.00     0.024 A 
ATOM     21  C   UNL d   1      23.854 -17.676  -0.862  0.00  0.00     0.034 A 
ATOM     22 CL   UNL d   1      22.314 -18.450  -0.824  0.00  0.00    -0.084 Cl
ATOM     23  C   UNL d   1      24.039 -16.530  -1.645  0.00  0.00     0.036 A 
ENDBRANCH  16  17
ENDBRANCH   3  15
TORSDOF 5
ENDMDL
MODEL 7
REMARK VINA RESULT:    -6.595      3.906      8.484
REMARK INTER + INTRA:          -8.994
REMARK INTER:                  -8.087
REMARK INTRA:                  -0.907
REMARK CONF_INDEPENDENT:        1.492
REMARK UNBOUND:                -0.907
REMARK  5 active torsions:
REMARK  status: ('A' for Active; 'I' for Inactive)
REMARK       I    between atoms: C_2  and  N_3 
REMARK    1  A    between atoms: C_2  and  C_13 
REMARK    2  A    between atoms: N_3  and  N_4 
REMARK    3  A    between atoms: C_5  and  C_6 
REMARK    4  A    between atoms: C_16  and  O_17 
REMARK    5  A    between atoms: C_19  and  O_20 
ROOT
ATOM      1  O   UNL d   1      25.699 -17.927   0.586  0.00  0.00    -0.266 OA
ATOM      2  C   UNL d   1      25.451 -17.531  -0.557  0.00  0.00     0.274 C 
ATOM      3  N   UNL d   1      24.280 -17.817  -1.261  0.00  0.00    -0.243 N 
ATOM      4  H   UNL d   1      24.151 -17.456  -2.201  0.00  0.00     0.192 HD
ENDROOT
BRANCH   2   5
ATOM      5  C   UNL d   1      26.511 -16.742  -1.266  0.00  0.00     0.067 A 
ATOM      6  C   UNL d   1      27.856 -16.953  -0.899  0.00  0.00     0.022 A 
ATOM      7  C   UNL d   1      28.902 -16.279  -1.549  0.00  0.00     0.037 A 
ATOM      8  C   UNL d   1      28.600 -15.363  -2.548  0.00  0.00     0.068 A 
ATOM      9  C   UNL d   1      27.276 -15.092  -2.884  0.00  0.00     0.074 A 
ATOM     10  C   UNL d   1      26.234 -15.785  -2.249  0.00  0.00     0.084 A 
BRANCH   8  11
ATOM     11  O   UNL d   1      29.576 -14.704  -3.239  0.00  0.00    -0.361 OA
ATOM     12  H   UNL d   1      29.493 -13.747  -3.090  0.00  0.00     0.217 HD
ENDBRANCH   8  11
BRANCH  10  13
ATOM     13  O   UNL d   1      24.938 -15.516  -2.594  0.00  0.00    -0.360 OA
ATOM     14  H   UNL d   1      24.593 -14.826  -2.001  0.00  0.00     0.217 HD
ENDBRANCH  10  13
ENDBRANCH   2   5
BRANCH   3  15
ATOM     15  N   UNL d   1      23.280 -18.560  -0.657  0.00  0.00    -0.183 NA
ATOM     16  C   UNL d   1      22.051 -18.221  -0.895  0.00  0.00     0.150 C 
BRANCH  16  17
ATOM     17  C   UNL d   1      20.900 -18.958  -0.299  0.00  0.00    -0.015 A 
ATOM     18  C   UNL d   1      19.798 -19.326  -1.080  0.00  0.00     0.013 A 
ATOM     19  C   UNL d   1      18.754 -20.075  -0.519  0.00  0.00     0.003 A 
ATOM     20  C   UNL d   1      18.791 -20.432   0.830  0.00  0.00     0.024 A 
ATOM     21  C   UNL d   1      19.875 -20.039   1.612  0.00  0.00     0.034 A 
ATOM     22 CL   UNL d   1      19.901 -20.450   3.285  0.00  0.00    -0.084 Cl
ATOM     23  C   UNL d   1      20.939 -19.319   1.054  0.00  0.00     0.036 A 
ENDBRANCH  16  17
ENDBRANCH   3  15
TORSDOF 5
ENDMDL
MODEL 8
REMARK VINA RESULT:    -6.570      3.889      8.548
REMARK INTER + INTRA:          -8.969
REMARK INTER:                  -8.061
REMARK INTRA:                  -0.907
REMARK CONF_INDEPENDENT:        1.492
REMARK UNBOUND:                -0.907
REMARK  5 active torsions:
REMARK  status: ('A' for Active; 'I' for Inactive)
REMARK       I    between atoms: C_2  and  N_3 
REMARK    1  A    between atoms: C_2  and  C_13 
REMARK    2  A    between atoms: N_3  and  N_4 
REMARK    3  A    between atoms: C_5  and  C_6 
REMARK    4  A    between atoms: C_16  and  O_17 
REMARK    5  A    between atoms: C_19  and  O_20 
ROOT
ATOM      1  O   UNL d   1      24.442 -15.983  -1.715  0.00  0.00    -0.266 OA
ATOM      2  C   UNL d   1      25.261 -16.694  -1.126  0.00  0.00     0.274 C 
ATOM      3  N   UNL d   1      24.988 -17.966  -0.619  0.00  0.00    -0.243 N 
ATOM      4  H   UNL d   1      25.716 -18.489  -0.142  0.00  0.00     0.192 HD
ENDROOT
BRANCH   2   5
ATOM      5  C   UNL d   1      26.625 -16.125  -0.876  0.00  0.00     0.067 A 
ATOM      6  C   UNL d   1      26.916 -14.843  -1.385  0.00  0.00     0.022 A 
ATOM      7  C   UNL d   1      28.159 -14.233  -1.155  0.00  0.00     0.037 A 
ATOM      8  C   UNL d   1      29.131 -14.923  -0.440  0.00  0.00     0.068 A 
ATOM      9  C   UNL d   1      28.887 -16.216   0.018  0.00  0.00     0.074 A 
ATOM     10  C   UNL d   1      27.635 -16.812  -0.194  0.00  0.00     0.084 A 
BRANCH   8  11
ATOM     11  O   UNL d   1      30.344 -14.368  -0.154  0.00  0.00    -0.361 OA
ATOM     12  H   UNL d   1      30.560 -14.517   0.782  0.00  0.00     0.217 HD
ENDBRANCH   8  11
BRANCH  10  13
ATOM     13  O   UNL d   1      27.407 -18.079   0.269  0.00  0.00    -0.360 OA
ATOM     14  H   UNL d   1      28.260 -18.487   0.500  0.00  0.00     0.217 HD
ENDBRANCH  10  13
ENDBRANCH   2   5
BRANCH   3  15
ATOM     15  N   UNL d   1      23.736 -18.527  -0.805  0.00  0.00    -0.183 NA
ATOM     16  C   UNL d   1      22.858 -18.365   0.135  0.00  0.00     0.150 C 
BRANCH  16  17
ATOM     17  C   UNL d   1      21.479 -18.924   0.031  0.00  0.00    -0.015 A 
ATOM     18  C   UNL d   1      20.840 -19.037  -1.209  0.00  0.00     0.013 A 
ATOM     19  C   UNL d   1      19.570 -19.624  -1.297  0.00  0.00     0.003 A 
ATOM     20  C   UNL d   1      18.921 -20.070  -0.145  0.00  0.00     0.024 A 
ATOM     21  C   UNL d   1      19.548 -19.930   1.091  0.00  0.00     0.034 A 
ATOM     22 CL   UNL d   1      18.729 -20.450   2.516  0.00  0.00    -0.084 Cl
ATOM     23  C   UNL d   1      20.830 -19.375   1.187  0.00  0.00     0.036 A 
ENDBRANCH  16  17
ENDBRANCH   3  15
TORSDOF 5
ENDMDL
MODEL 9
REMARK VINA RESULT:    -6.513      5.794      9.871
REMARK INTER + INTRA:          -8.757
REMARK INTER:                  -8.005
REMARK INTRA:                  -0.752
REMARK CONF_INDEPENDENT:        1.492
REMARK UNBOUND:                -0.752
REMARK  5 active torsions:
REMARK  status: ('A' for Active; 'I' for Inactive)
REMARK       I    between atoms: C_2  and  N_3 
REMARK    1  A    between atoms: C_2  and  C_13 
REMARK    2  A    between atoms: N_3  and  N_4 
REMARK    3  A    between atoms: C_5  and  C_6 
REMARK    4  A    between atoms: C_16  and  O_17 
REMARK    5  A    between atoms: C_19  and  O_20 
ROOT
ATOM      1  O   UNL d   1      26.514 -12.222  -2.662  0.00  0.00    -0.266 OA
ATOM      2  C   UNL d   1      25.746 -12.016  -3.607  0.00  0.00     0.274 C 
ATOM      3  N   UNL d   1      24.932 -12.986  -4.194  0.00  0.00    -0.243 N 
ATOM      4  H   UNL d   1      24.329 -12.739  -4.973  0.00  0.00     0.192 HD
ENDROOT
BRANCH   2   5
ATOM      5  C   UNL d   1      25.738 -10.645  -4.213  0.00  0.00     0.067 A 
ATOM      6  C   UNL d   1      25.917  -9.537  -3.358  0.00  0.00     0.022 A 
ATOM      7  C   UNL d   1      25.960  -8.228  -3.862  0.00  0.00     0.037 A 
ATOM      8  C   UNL d   1      25.789  -8.021  -5.226  0.00  0.00     0.068 A 
ATOM      9  C   UNL d   1      25.549  -9.095  -6.080  0.00  0.00     0.074 A 
ATOM     10  C   UNL d   1      25.530 -10.404  -5.575  0.00  0.00     0.084 A 
BRANCH   8  11
ATOM     11  O   UNL d   1      25.857  -6.775  -5.778  0.00  0.00    -0.361 OA
ATOM     12  H   UNL d   1      26.759  -6.424  -5.685  0.00  0.00     0.217 HD
ENDBRANCH   8  11
BRANCH  10  13
ATOM     13  O   UNL d   1      25.301 -11.449  -6.427  0.00  0.00    -0.360 OA
ATOM     14  H   UNL d   1      24.407 -11.797  -6.263  0.00  0.00     0.217 HD
ENDBRANCH  10  13
ENDBRANCH   2   5
BRANCH   3  15
ATOM     15  N   UNL d   1      24.919 -14.273  -3.684  0.00  0.00    -0.183 NA
ATOM     16  C   UNL d   1      24.946 -14.410  -2.395  0.00  0.00     0.150 C 
BRANCH  16  17
ATOM     17  C   UNL d   1      24.931 -15.752  -1.744  0.00  0.00    -0.015 A 
ATOM     18  C   UNL d   1      26.123 -16.387  -1.376  0.00  0.00     0.013 A 
ATOM     19  C   UNL d   1      26.089 -17.619  -0.706  0.00  0.00     0.003 A 
ATOM     20  C   UNL d   1      24.867 -18.236  -0.432  0.00  0.00     0.024 A 
ATOM     21  C   UNL d   1      23.684 -17.614  -0.826  0.00  0.00     0.034 A 
ATOM     22 CL   UNL d   1      22.179 -18.395  -0.517  0.00  0.00    -0.084 Cl
ATOM     23  C   UNL d   1      23.705 -16.369  -1.466  0.00  0.00     0.036 A 
ENDBRANCH  16  17
ENDBRANCH   3  15
TORSDOF 5
ENDMDL
