MODEL 1
REMARK VINA RESULT:    -8.366      0.000      0.000
REMARK INTER + INTRA:         -11.412
REMARK INTER:                 -10.155
REMARK INTRA:                  -1.256
REMARK CONF_INDEPENDENT:        1.790
REMARK UNBOUND:                -1.256
REMARK  6 active torsions:
REMARK  status: ('A' for Active; 'I' for Inactive)
REMARK    1  A    between atoms: O_2  and  C_3 
REMARK    2  A    between atoms: C_5  and  O_6 
REMARK    3  A    between atoms: C_9  and  C_10 
REMARK       I    between atoms: C_10  and  N_12 
REMARK       I    between atoms: N_12  and  C_13 
REMARK       I    between atoms: C_13  and  N_14 
REMARK       I    between atoms: C_13  and  N_22 
REMARK    4  A    between atoms: N_14  and  C_15 
REMARK    5  A    between atoms: C_15  and  C_16 
REMARK    6  A    between atoms: N_22  and  C_23 
ROOT
ATOM      1  C   UNL d   1      27.280 -12.884  -0.581  0.00  0.00     0.294 C 
ATOM      2  O   UNL d   1      27.550 -11.925   0.147  0.00  0.00    -0.265 OA
ATOM      3  N   UNL d   1      27.405 -14.206  -0.244  0.00  0.00    -0.023 NA
ATOM      4  C   UNL d   1      27.789 -14.522   0.955  0.00  0.00     0.704 C 
ATOM      5  N   UNL d   1      27.763 -15.825   1.345  0.00  0.00    -0.220 N 
ATOM      6  N   UNL d   1      28.137 -13.640   1.948  0.00  0.00    -0.190 N 
ATOM      7  H   UNL d   1      28.014 -15.966   2.306  0.00  0.00     0.178 HD
ATOM      8  H   UNL d   1      28.058 -12.656   1.679  0.00  0.00     0.184 HD
ENDROOT
BRANCH   5   9
ATOM      9  C   UNL d   1      27.696 -16.995   0.494  0.00  0.00     0.178 C 
BRANCH   9  10
ATOM     10  C   UNL d   1      26.294 -17.258  -0.032  0.00  0.00    -0.022 A 
ATOM     11  C   UNL d   1      25.755 -16.626  -1.162  0.00  0.00     0.012 A 
ATOM     12  C   UNL d   1      24.452 -16.888  -1.572  0.00  0.00     0.020 A 
ATOM     13  C   UNL d   1      23.723 -17.827  -0.871  0.00  0.00     0.116 A 
ATOM     14  N   UNL d   1      24.206 -18.497   0.195  0.00  0.00    -0.273 NA
ATOM     15  C   UNL d   1      25.471 -18.199   0.589  0.00  0.00     0.124 A 
ENDBRANCH   9  10
ENDBRANCH   5   9
BRANCH   6  16
ATOM     16  C   UNL d   1      28.719 -13.824   3.216  0.00  0.00     0.055 A 
ATOM     17  C   UNL d   1      27.985 -13.365   4.331  0.00  0.00     0.037 A 
ATOM     18  C   UNL d   1      28.479 -13.496   5.635  0.00  0.00    -0.060 A 
ATOM     19  C   UNL d   1      27.824 -12.813   6.798  0.00  0.00     0.048 C 
ATOM     20  C   UNL d   1      29.660 -14.204   5.841  0.00  0.00     0.007 A 
ATOM     21  C   UNL d   1      30.404 -14.651   4.754  0.00  0.00     0.009 A 
ATOM     22  C   UNL d   1      29.971 -14.435   3.436  0.00  0.00    -0.035 A 
ATOM     23  C   UNL d   1      30.922 -14.804   2.328  0.00  0.00     0.050 C 
ENDBRANCH   6  16
BRANCH   1  24
ATOM     24  C   UNL d   1      26.750 -12.623  -1.942  0.00  0.00     0.040 A 
ATOM     25  C   UNL d   1      26.299 -13.705  -2.698  0.00  0.00     0.054 A 
ATOM     26  C   UNL d   1      25.678 -13.493  -3.925  0.00  0.00     0.071 A 
ATOM     27  C   UNL d   1      25.629 -12.195  -4.448  0.00  0.00     0.073 A 
ATOM     28  C   UNL d   1      26.109 -11.106  -3.707  0.00  0.00     0.071 A 
ATOM     29  C   UNL d   1      26.647 -11.322  -2.442  0.00  0.00     0.054 A 
BRANCH  26  30
ATOM     30  O   UNL d   1      25.064 -14.482  -4.651  0.00  0.00    -0.356 OA
ATOM     31  C   UNL d   1      25.903 -15.573  -5.044  0.00  0.00     0.210 C 
ENDBRANCH  26  30
BRANCH  28  32
ATOM     32  O   UNL d   1      25.909  -9.858  -4.234  0.00  0.00    -0.356 OA
ATOM     33  C   UNL d   1      25.528  -9.833  -5.609  0.00  0.00     0.210 C 
ENDBRANCH  28  32
ENDBRANCH   1  24
TORSDOF 6
ENDMDL
MODEL 2
REMARK VINA RESULT:    -8.341      0.309      2.156
REMARK INTER + INTRA:         -11.372
REMARK INTER:                 -10.131
REMARK INTRA:                  -1.242
REMARK CONF_INDEPENDENT:        1.790
REMARK UNBOUND:                -1.242
REMARK  6 active torsions:
REMARK  status: ('A' for Active; 'I' for Inactive)
REMARK    1  A    between atoms: O_2  and  C_3 
REMARK    2  A    between atoms: C_5  and  O_6 
REMARK    3  A    between atoms: C_9  and  C_10 
REMARK       I    between atoms: C_10  and  N_12 
REMARK       I    between atoms: N_12  and  C_13 
REMARK       I    between atoms: C_13  and  N_14 
REMARK       I    between atoms: C_13  and  N_22 
REMARK    4  A    between atoms: N_14  and  C_15 
REMARK    5  A    between atoms: C_15  and  C_16 
REMARK    6  A    between atoms: N_22  and  C_23 
ROOT
ATOM      1  C   UNL d   1      27.062 -12.947  -0.677  0.00  0.00     0.294 C 
ATOM      2  O   UNL d   1      27.324 -11.968   0.027  0.00  0.00    -0.265 OA
ATOM      3  N   UNL d   1      27.236 -14.259  -0.321  0.00  0.00    -0.023 NA
ATOM      4  C   UNL d   1      27.663 -14.542   0.871  0.00  0.00     0.704 C 
ATOM      5  N   UNL d   1      27.688 -15.838   1.283  0.00  0.00    -0.220 N 
ATOM      6  N   UNL d   1      28.013 -13.632   1.838  0.00  0.00    -0.190 N 
ATOM      7  H   UNL d   1      27.971 -15.955   2.240  0.00  0.00     0.178 HD
ATOM      8  H   UNL d   1      27.897 -12.656   1.555  0.00  0.00     0.184 HD
ENDROOT
BRANCH   5   9
ATOM      9  C   UNL d   1      27.632 -17.024   0.455  0.00  0.00     0.178 C 
BRANCH   9  10
ATOM     10  C   UNL d   1      26.233 -17.309  -0.068  0.00  0.00    -0.022 A 
ATOM     11  C   UNL d   1      25.712 -16.747  -1.242  0.00  0.00     0.012 A 
ATOM     12  C   UNL d   1      24.410 -17.024  -1.649  0.00  0.00     0.020 A 
ATOM     13  C   UNL d   1      23.665 -17.909  -0.896  0.00  0.00     0.116 A 
ATOM     14  N   UNL d   1      24.131 -18.512   0.217  0.00  0.00    -0.273 NA
ATOM     15  C   UNL d   1      25.395 -18.200   0.604  0.00  0.00     0.124 A 
ENDBRANCH   9  10
ENDBRANCH   5   9
BRANCH   6  16
ATOM     16  C   UNL d   1      28.637 -13.777   3.092  0.00  0.00     0.055 A 
ATOM     17  C   UNL d   1      27.912 -13.339   4.222  0.00  0.00     0.037 A 
ATOM     18  C   UNL d   1      28.447 -13.433   5.513  0.00  0.00    -0.060 A 
ATOM     19  C   UNL d   1      27.793 -12.767   6.687  0.00  0.00     0.048 C 
ATOM     20  C   UNL d   1      29.664 -14.086   5.694  0.00  0.00     0.007 A 
ATOM     21  C   UNL d   1      30.398 -14.511   4.591  0.00  0.00     0.009 A 
ATOM     22  C   UNL d   1      29.920 -14.328   3.284  0.00  0.00    -0.035 A 
ATOM     23  C   UNL d   1      30.857 -14.667   2.154  0.00  0.00     0.050 C 
ENDBRANCH   6  16
BRANCH   1  24
ATOM     24  C   UNL d   1      26.485 -12.726  -2.026  0.00  0.00     0.040 A 
ATOM     25  C   UNL d   1      26.546 -11.444  -2.573  0.00  0.00     0.054 A 
ATOM     26  C   UNL d   1      26.134 -11.220  -3.882  0.00  0.00     0.071 A 
ATOM     27  C   UNL d   1      25.539 -12.267  -4.598  0.00  0.00     0.073 A 
ATOM     28  C   UNL d   1      25.446 -13.551  -4.042  0.00  0.00     0.071 A 
ATOM     29  C   UNL d   1      25.944 -13.782  -2.764  0.00  0.00     0.054 A 
BRANCH  26  30
ATOM     30  O   UNL d   1      26.310 -10.033  -4.546  0.00  0.00    -0.356 OA
ATOM     31  C   UNL d   1      25.170  -9.168  -4.581  0.00  0.00     0.210 C 
ENDBRANCH  26  30
BRANCH  28  32
ATOM     32  O   UNL d   1      24.968 -14.546  -4.853  0.00  0.00    -0.356 OA
ATOM     33  C   UNL d   1      25.905 -15.575  -5.169  0.00  0.00     0.210 C 
ENDBRANCH  28  32
ENDBRANCH   1  24
TORSDOF 6
ENDMDL
MODEL 3
REMARK VINA RESULT:    -8.118      2.467      7.260
REMARK INTER + INTRA:         -10.968
REMARK INTER:                  -9.908
REMARK INTRA:                  -1.061
REMARK CONF_INDEPENDENT:        1.790
REMARK UNBOUND:                -1.061
REMARK  6 active torsions:
REMARK  status: ('A' for Active; 'I' for Inactive)
REMARK    1  A    between atoms: O_2  and  C_3 
REMARK    2  A    between atoms: C_5  and  O_6 
REMARK    3  A    between atoms: C_9  and  C_10 
REMARK       I    between atoms: C_10  and  N_12 
REMARK       I    between atoms: N_12  and  C_13 
REMARK       I    between atoms: C_13  and  N_14 
REMARK       I    between atoms: C_13  and  N_22 
REMARK    4  A    between atoms: N_14  and  C_15 
REMARK    5  A    between atoms: C_15  and  C_16 
REMARK    6  A    between atoms: N_22  and  C_23 
ROOT
ATOM      1  C   UNL d   1      27.486 -13.478   1.030  0.00  0.00     0.294 C 
ATOM      2  O   UNL d   1      27.813 -12.627   0.197  0.00  0.00    -0.265 OA
ATOM      3  N   UNL d   1      27.046 -14.745   0.749  0.00  0.00    -0.023 NA
ATOM      4  C   UNL d   1      27.002 -15.144  -0.484  0.00  0.00     0.704 C 
ATOM      5  N   UNL d   1      26.719 -16.446  -0.758  0.00  0.00    -0.220 N 
ATOM      6  N   UNL d   1      27.324 -14.390  -1.586  0.00  0.00    -0.190 N 
ATOM      7  H   UNL d   1      26.772 -16.676  -1.734  0.00  0.00     0.178 HD
ATOM      8  H   UNL d   1      27.633 -13.439  -1.367  0.00  0.00     0.184 HD
ENDROOT
BRANCH   5   9
ATOM      9  C   UNL d   1      26.101 -17.414   0.124  0.00  0.00     0.178 C 
BRANCH   9  10
ATOM     10  C   UNL d   1      24.643 -17.672  -0.219  0.00  0.00    -0.022 A 
ATOM     11  C   UNL d   1      24.048 -18.941  -0.182  0.00  0.00     0.012 A 
ATOM     12  C   UNL d   1      22.714 -19.115  -0.539  0.00  0.00     0.020 A 
ATOM     13  C   UNL d   1      21.978 -17.998  -0.878  0.00  0.00     0.116 A 
ATOM     14  N   UNL d   1      22.487 -16.749  -0.888  0.00  0.00    -0.273 NA
ATOM     15  C   UNL d   1      23.799 -16.614  -0.562  0.00  0.00     0.124 A 
ENDBRANCH   9  10
ENDBRANCH   5   9
BRANCH   6  16
ATOM     16  C   UNL d   1      27.173 -14.620  -2.967  0.00  0.00     0.055 A 
ATOM     17  C   UNL d   1      28.356 -14.771  -3.723  0.00  0.00     0.037 A 
ATOM     18  C   UNL d   1      28.314 -14.997  -5.105  0.00  0.00    -0.060 A 
ATOM     19  C   UNL d   1      29.550 -14.929  -5.953  0.00  0.00     0.048 C 
ATOM     20  C   UNL d   1      27.081 -15.200  -5.719  0.00  0.00     0.007 A 
ATOM     21  C   UNL d   1      25.905 -15.040  -4.993  0.00  0.00     0.009 A 
ATOM     22  C   UNL d   1      25.931 -14.710  -3.628  0.00  0.00    -0.035 A 
ATOM     23  C   UNL d   1      24.614 -14.394  -2.970  0.00  0.00     0.050 C 
ENDBRANCH   6  16
BRANCH   1  24
ATOM     24  C   UNL d   1      27.585 -13.144   2.472  0.00  0.00     0.040 A 
ATOM     25  C   UNL d   1      27.787 -14.183   3.381  0.00  0.00     0.054 A 
ATOM     26  C   UNL d   1      28.012 -13.903   4.725  0.00  0.00     0.071 A 
ATOM     27  C   UNL d   1      27.905 -12.581   5.174  0.00  0.00     0.073 A 
ATOM     28  C   UNL d   1      27.671 -11.536   4.269  0.00  0.00     0.071 A 
ATOM     29  C   UNL d   1      27.536 -11.820   2.913  0.00  0.00     0.054 A 
BRANCH  26  30
ATOM     30  O   UNL d   1      28.378 -14.848   5.651  0.00  0.00    -0.356 OA
ATOM     31  C   UNL d   1      29.392 -14.447   6.578  0.00  0.00     0.210 C 
ENDBRANCH  26  30
BRANCH  28  32
ATOM     32  O   UNL d   1      27.707 -10.261   4.769  0.00  0.00    -0.356 OA
ATOM     33  C   UNL d   1      27.101  -9.267   3.943  0.00  0.00     0.210 C 
ENDBRANCH  28  32
ENDBRANCH   1  24
TORSDOF 6
ENDMDL
MODEL 4
REMARK VINA RESULT:    -8.073      2.483      7.585
REMARK INTER + INTRA:         -10.901
REMARK INTER:                  -9.863
REMARK INTRA:                  -1.039
REMARK CONF_INDEPENDENT:        1.790
REMARK UNBOUND:                -1.039
REMARK  6 active torsions:
REMARK  status: ('A' for Active; 'I' for Inactive)
REMARK    1  A    between atoms: O_2  and  C_3 
REMARK    2  A    between atoms: C_5  and  O_6 
REMARK    3  A    between atoms: C_9  and  C_10 
REMARK       I    between atoms: C_10  and  N_12 
REMARK       I    between atoms: N_12  and  C_13 
REMARK       I    between atoms: C_13  and  N_14 
REMARK       I    between atoms: C_13  and  N_22 
REMARK    4  A    between atoms: N_14  and  C_15 
REMARK    5  A    between atoms: C_15  and  C_16 
REMARK    6  A    between atoms: N_22  and  C_23 
ROOT
ATOM      1  C   UNL d   1      27.574 -13.509   1.057  0.00  0.00     0.294 C 
ATOM      2  O   UNL d   1      27.912 -12.673   0.213  0.00  0.00    -0.265 OA
ATOM      3  N   UNL d   1      27.072 -14.756   0.791  0.00  0.00    -0.023 NA
ATOM      4  C   UNL d   1      26.975 -15.153  -0.440  0.00  0.00     0.704 C 
ATOM      5  N   UNL d   1      26.628 -16.442  -0.704  0.00  0.00    -0.220 N 
ATOM      6  N   UNL d   1      27.294 -14.413  -1.552  0.00  0.00    -0.190 N 
ATOM      7  H   UNL d   1      26.641 -16.674  -1.680  0.00  0.00     0.178 HD
ATOM      8  H   UNL d   1      27.651 -13.477  -1.343  0.00  0.00     0.184 HD
ENDROOT
BRANCH   5   9
ATOM      9  C   UNL d   1      25.996 -17.382   0.198  0.00  0.00     0.178 C 
BRANCH   9  10
ATOM     10  C   UNL d   1      24.549 -17.667  -0.171  0.00  0.00    -0.022 A 
ATOM     11  C   UNL d   1      23.978 -18.947  -0.147  0.00  0.00     0.012 A 
ATOM     12  C   UNL d   1      22.654 -19.145  -0.528  0.00  0.00     0.020 A 
ATOM     13  C   UNL d   1      21.904 -18.041  -0.879  0.00  0.00     0.116 A 
ATOM     14  N   UNL d   1      22.389 -16.783  -0.878  0.00  0.00    -0.273 NA
ATOM     15  C   UNL d   1      23.692 -16.625  -0.528  0.00  0.00     0.124 A 
ENDBRANCH   9  10
ENDBRANCH   5   9
BRANCH   6  16
ATOM     16  C   UNL d   1      27.093 -14.637  -2.928  0.00  0.00     0.055 A 
ATOM     17  C   UNL d   1      28.246 -14.760  -3.732  0.00  0.00     0.037 A 
ATOM     18  C   UNL d   1      28.153 -14.977  -5.113  0.00  0.00    -0.060 A 
ATOM     19  C   UNL d   1      29.352 -14.880  -6.009  0.00  0.00     0.048 C 
ATOM     20  C   UNL d   1      26.900 -15.200  -5.678  0.00  0.00     0.007 A 
ATOM     21  C   UNL d   1      25.752 -15.068  -4.904  0.00  0.00     0.009 A 
ATOM     22  C   UNL d   1      25.827 -14.747  -3.539  0.00  0.00    -0.035 A 
ATOM     23  C   UNL d   1      24.532 -14.461  -2.826  0.00  0.00     0.050 C 
ENDBRANCH   6  16
BRANCH   1  24
ATOM     24  C   UNL d   1      27.731 -13.180   2.495  0.00  0.00     0.040 A 
ATOM     25  C   UNL d   1      27.590 -11.850   2.891  0.00  0.00     0.054 A 
ATOM     26  C   UNL d   1      27.603 -11.516   4.241  0.00  0.00     0.071 A 
ATOM     27  C   UNL d   1      27.887 -12.509   5.187  0.00  0.00     0.073 A 
ATOM     28  C   UNL d   1      28.061 -13.843   4.792  0.00  0.00     0.071 A 
ATOM     29  C   UNL d   1      27.957 -14.179   3.445  0.00  0.00     0.054 A 
BRANCH  26  30
ATOM     30  O   UNL d   1      27.311 -10.264   4.721  0.00  0.00    -0.356 OA
ATOM     31  C   UNL d   1      28.386  -9.319   4.680  0.00  0.00     0.210 C 
ENDBRANCH  26  30
BRANCH  28  32
ATOM     32  O   UNL d   1      28.209 -14.772   5.787  0.00  0.00    -0.356 OA
ATOM     33  C   UNL d   1      29.178 -14.447   6.783  0.00  0.00     0.210 C 
ENDBRANCH  28  32
ENDBRANCH   1  24
TORSDOF 6
ENDMDL
MODEL 5
REMARK VINA RESULT:    -7.815      1.984      5.702
REMARK INTER + INTRA:         -10.505
REMARK INTER:                  -9.605
REMARK INTRA:                  -0.900
REMARK CONF_INDEPENDENT:        1.790
REMARK UNBOUND:                -0.900
REMARK  6 active torsions:
REMARK  status: ('A' for Active; 'I' for Inactive)
REMARK    1  A    between atoms: O_2  and  C_3 
REMARK    2  A    between atoms: C_5  and  O_6 
REMARK    3  A    between atoms: C_9  and  C_10 
REMARK       I    between atoms: C_10  and  N_12 
REMARK       I    between atoms: N_12  and  C_13 
REMARK       I    between atoms: C_13  and  N_14 
REMARK       I    between atoms: C_13  and  N_22 
REMARK    4  A    between atoms: N_14  and  C_15 
REMARK    5  A    between atoms: C_15  and  C_16 
REMARK    6  A    between atoms: N_22  and  C_23 
ROOT
ATOM      1  C   UNL d   1      25.699 -13.260  -3.734  0.00  0.00     0.294 C 
ATOM      2  O   UNL d   1      25.222 -14.254  -4.289  0.00  0.00    -0.265 OA
ATOM      3  N   UNL d   1      26.035 -13.169  -2.408  0.00  0.00    -0.023 NA
ATOM      4  C   UNL d   1      25.906 -14.210  -1.646  0.00  0.00     0.704 C 
ATOM      5  N   UNL d   1      26.384 -14.173  -0.373  0.00  0.00    -0.220 N 
ATOM      6  N   UNL d   1      25.410 -15.432  -2.030  0.00  0.00    -0.190 N 
ATOM      7  H   UNL d   1      26.298 -15.044   0.118  0.00  0.00     0.178 HD
ATOM      8  H   UNL d   1      25.144 -15.484  -3.017  0.00  0.00     0.184 HD
ENDROOT
BRANCH   5   9
ATOM      9  C   UNL d   1      26.722 -12.999   0.403  0.00  0.00     0.178 C 
BRANCH   9  10
ATOM     10  C   UNL d   1      27.186 -13.339   1.810  0.00  0.00    -0.022 A 
ATOM     11  C   UNL d   1      27.781 -14.560   2.159  0.00  0.00     0.012 A 
ATOM     12  C   UNL d   1      28.155 -14.822   3.474  0.00  0.00     0.020 A 
ATOM     13  C   UNL d   1      27.974 -13.828   4.414  0.00  0.00     0.116 A 
ATOM     14  N   UNL d   1      27.448 -12.620   4.126  0.00  0.00    -0.273 NA
ATOM     15  C   UNL d   1      27.066 -12.404   2.840  0.00  0.00     0.124 A 
ENDBRANCH   9  10
ENDBRANCH   5   9
BRANCH   6  16
ATOM     16  C   UNL d   1      25.060 -16.583  -1.299  0.00  0.00     0.055 A 
ATOM     17  C   UNL d   1      23.692 -16.933  -1.271  0.00  0.00     0.037 A 
ATOM     18  C   UNL d   1      23.240 -18.056  -0.567  0.00  0.00    -0.060 A 
ATOM     19  C   UNL d   1      21.780 -18.309  -0.338  0.00  0.00     0.048 C 
ATOM     20  C   UNL d   1      24.175 -18.912   0.011  0.00  0.00     0.007 A 
ATOM     21  C   UNL d   1      25.525 -18.575   0.007  0.00  0.00     0.009 A 
ATOM     22  C   UNL d   1      25.980 -17.397  -0.607  0.00  0.00    -0.035 A 
ATOM     23  C   UNL d   1      27.429 -17.035  -0.415  0.00  0.00     0.050 C 
ENDBRANCH   6  16
BRANCH   1  24
ATOM     24  C   UNL d   1      25.965 -12.046  -4.543  0.00  0.00     0.040 A 
ATOM     25  C   UNL d   1      26.614 -12.194  -5.769  0.00  0.00     0.054 A 
ATOM     26  C   UNL d   1      26.770 -11.101  -6.615  0.00  0.00     0.071 A 
ATOM     27  C   UNL d   1      26.385  -9.831  -6.167  0.00  0.00     0.073 A 
ATOM     28  C   UNL d   1      25.761  -9.671  -4.922  0.00  0.00     0.071 A 
ATOM     29  C   UNL d   1      25.530 -10.786  -4.122  0.00  0.00     0.054 A 
BRANCH  26  30
ATOM     30  O   UNL d   1      27.247 -11.191  -7.898  0.00  0.00    -0.356 OA
ATOM     31  C   UNL d   1      26.655 -10.294  -8.844  0.00  0.00     0.210 C 
ENDBRANCH  26  30
BRANCH  28  32
ATOM     32  O   UNL d   1      25.301  -8.419  -4.613  0.00  0.00    -0.356 OA
ATOM     33  C   UNL d   1      24.263  -7.926  -5.460  0.00  0.00     0.210 C 
ENDBRANCH  28  32
ENDBRANCH   1  24
TORSDOF 6
ENDMDL
MODEL 6
REMARK VINA RESULT:    -7.682      2.871      8.101
REMARK INTER + INTRA:         -10.815
REMARK INTER:                  -9.472
REMARK INTRA:                  -1.343
REMARK CONF_INDEPENDENT:        1.790
REMARK UNBOUND:                -1.343
REMARK  6 active torsions:
REMARK  status: ('A' for Active; 'I' for Inactive)
REMARK    1  A    between atoms: O_2  and  C_3 
REMARK    2  A    between atoms: C_5  and  O_6 
REMARK    3  A    between atoms: C_9  and  C_10 
REMARK       I    between atoms: C_10  and  N_12 
REMARK       I    between atoms: N_12  and  C_13 
REMARK       I    between atoms: C_13  and  N_14 
REMARK       I    between atoms: C_13  and  N_22 
REMARK    4  A    between atoms: N_14  and  C_15 
REMARK    5  A    between atoms: C_15  and  C_16 
REMARK    6  A    between atoms: N_22  and  C_23 
ROOT
ATOM      1  C   UNL d   1      25.140 -14.357  -2.844  0.00  0.00     0.294 C 
ATOM      2  O   UNL d   1      24.371 -14.122  -3.781  0.00  0.00    -0.265 OA
ATOM      3  N   UNL d   1      26.184 -13.564  -2.448  0.00  0.00    -0.023 NA
ATOM      4  C   UNL d   1      26.388 -12.433  -3.049  0.00  0.00     0.704 C 
ATOM      5  N   UNL d   1      27.320 -11.572  -2.560  0.00  0.00    -0.220 N 
ATOM      6  N   UNL d   1      25.665 -11.944  -4.109  0.00  0.00    -0.190 N 
ATOM      7  H   UNL d   1      27.362 -10.697  -3.050  0.00  0.00     0.178 HD
ATOM      8  H   UNL d   1      24.899 -12.552  -4.409  0.00  0.00     0.184 HD
ENDROOT
BRANCH   5   9
ATOM      9  C   UNL d   1      28.399 -11.875  -1.642  0.00  0.00     0.178 C 
BRANCH   9  10
ATOM     10  C   UNL d   1      27.903 -12.426  -0.315  0.00  0.00    -0.022 A 
ATOM     11  C   UNL d   1      27.947 -13.785   0.028  0.00  0.00     0.012 A 
ATOM     12  C   UNL d   1      27.445 -14.230   1.248  0.00  0.00     0.020 A 
ATOM     13  C   UNL d   1      26.955 -13.291   2.132  0.00  0.00     0.116 A 
ATOM     14  N   UNL d   1      26.929 -11.968   1.873  0.00  0.00    -0.273 NA
ATOM     15  C   UNL d   1      27.398 -11.567   0.663  0.00  0.00     0.124 A 
ENDBRANCH   9  10
ENDBRANCH   5   9
BRANCH   6  16
ATOM     16  C   UNL d   1      25.860 -10.837  -4.958  0.00  0.00     0.055 A 
ATOM     17  C   UNL d   1      26.213 -11.111  -6.297  0.00  0.00     0.037 A 
ATOM     18  C   UNL d   1      26.436 -10.081  -7.219  0.00  0.00    -0.060 A 
ATOM     19  C   UNL d   1      27.031 -10.346  -8.570  0.00  0.00     0.048 C 
ATOM     20  C   UNL d   1      26.182  -8.766  -6.836  0.00  0.00     0.007 A 
ATOM     21  C   UNL d   1      25.849  -8.476  -5.517  0.00  0.00     0.009 A 
ATOM     22  C   UNL d   1      25.724  -9.493  -4.556  0.00  0.00    -0.035 A 
ATOM     23  C   UNL d   1      25.526  -9.068  -3.124  0.00  0.00     0.050 C 
ENDBRANCH   6  16
BRANCH   1  24
ATOM     24  C   UNL d   1      24.934 -15.586  -2.039  0.00  0.00     0.040 A 
ATOM     25  C   UNL d   1      26.055 -16.309  -1.632  0.00  0.00     0.054 A 
ATOM     26  C   UNL d   1      25.915 -17.394  -0.772  0.00  0.00     0.071 A 
ATOM     27  C   UNL d   1      24.629 -17.828  -0.425  0.00  0.00     0.073 A 
ATOM     28  C   UNL d   1      23.497 -17.123  -0.857  0.00  0.00     0.071 A 
ATOM     29  C   UNL d   1      23.655 -15.987  -1.645  0.00  0.00     0.054 A 
BRANCH  26  30
ATOM     30  O   UNL d   1      26.972 -18.054  -0.198  0.00  0.00    -0.356 OA
ATOM     31  C   UNL d   1      28.203 -17.325  -0.145  0.00  0.00     0.210 C 
ENDBRANCH  26  30
BRANCH  28  32
ATOM     32  O   UNL d   1      22.285 -17.537  -0.371  0.00  0.00    -0.356 OA
ATOM     33  C   UNL d   1      22.041 -18.940  -0.459  0.00  0.00     0.210 C 
ENDBRANCH  28  32
ENDBRANCH   1  24
TORSDOF 6
ENDMDL
MODEL 7
REMARK VINA RESULT:    -7.600      2.808      8.075
REMARK INTER + INTRA:         -10.729
REMARK INTER:                  -9.390
REMARK INTRA:                  -1.339
REMARK CONF_INDEPENDENT:        1.790
REMARK UNBOUND:                -1.339
REMARK  6 active torsions:
REMARK  status: ('A' for Active; 'I' for Inactive)
REMARK    1  A    between atoms: O_2  and  C_3 
REMARK    2  A    between atoms: C_5  and  O_6 
REMARK    3  A    between atoms: C_9  and  C_10 
REMARK       I    between atoms: C_10  and  N_12 
REMARK       I    between atoms: N_12  and  C_13 
REMARK       I    between atoms: C_13  and  N_14 
REMARK       I    between atoms: C_13  and  N_22 
REMARK    4  A    between atoms: N_14  and  C_15 
REMARK    5  A    between atoms: C_15  and  C_16 
REMARK    6  A    between atoms: N_22  and  C_23 
ROOT
ATOM      1  C   UNL d   1      25.004 -14.451  -2.615  0.00  0.00     0.294 C 
ATOM      2  O   UNL d   1      24.223 -14.207  -3.539  0.00  0.00    -0.265 OA
ATOM      3  N   UNL d   1      26.112 -13.713  -2.287  0.00  0.00    -0.023 NA
ATOM      4  C   UNL d   1      26.370 -12.627  -2.948  0.00  0.00     0.704 C 
ATOM      5  N   UNL d   1      27.373 -11.809  -2.528  0.00  0.00    -0.220 N 
ATOM      6  N   UNL d   1      25.648 -12.140  -4.010  0.00  0.00    -0.190 N 
ATOM      7  H   UNL d   1      27.457 -10.963  -3.061  0.00  0.00     0.178 HD
ATOM      8  H   UNL d   1      24.834 -12.708  -4.258  0.00  0.00     0.184 HD
ENDROOT
BRANCH   5   9
ATOM      9  C   UNL d   1      28.458 -12.142  -1.629  0.00  0.00     0.178 C 
BRANCH   9  10
ATOM     10  C   UNL d   1      27.968 -12.610  -0.268  0.00  0.00    -0.022 A 
ATOM     11  C   UNL d   1      28.075 -13.933   0.184  0.00  0.00     0.012 A 
ATOM     12  C   UNL d   1      27.577 -14.304   1.430  0.00  0.00     0.020 A 
ATOM     13  C   UNL d   1      27.025 -13.325   2.230  0.00  0.00     0.116 A 
ATOM     14  N   UNL d   1      26.937 -12.030   1.865  0.00  0.00    -0.273 NA
ATOM     15  C   UNL d   1      27.405 -11.703   0.632  0.00  0.00     0.124 A 
ENDBRANCH   9  10
ENDBRANCH   5   9
BRANCH   6  16
ATOM     16  C   UNL d   1      25.890 -11.089  -4.916  0.00  0.00     0.055 A 
ATOM     17  C   UNL d   1      26.278 -11.449  -6.224  0.00  0.00     0.037 A 
ATOM     18  C   UNL d   1      26.549 -10.479  -7.198  0.00  0.00    -0.060 A 
ATOM     19  C   UNL d   1      27.180 -10.835  -8.511  0.00  0.00     0.048 C 
ATOM     20  C   UNL d   1      26.306  -9.140  -6.903  0.00  0.00     0.007 A 
ATOM     21  C   UNL d   1      25.937  -8.766  -5.615  0.00  0.00     0.009 A 
ATOM     22  C   UNL d   1      25.764  -9.721  -4.600  0.00  0.00    -0.035 A 
ATOM     23  C   UNL d   1      25.530  -9.208  -3.203  0.00  0.00     0.050 C 
ENDBRANCH   6  16
BRANCH   1  24
ATOM     24  C   UNL d   1      24.743 -15.624  -1.746  0.00  0.00     0.040 A 
ATOM     25  C   UNL d   1      23.419 -15.950  -1.451  0.00  0.00     0.054 A 
ATOM     26  C   UNL d   1      23.124 -17.113  -0.747  0.00  0.00     0.071 A 
ATOM     27  C   UNL d   1      24.174 -17.882  -0.229  0.00  0.00     0.073 A 
ATOM     28  C   UNL d   1      25.508 -17.542  -0.496  0.00  0.00     0.071 A 
ATOM     29  C   UNL d   1      25.787 -16.425  -1.277  0.00  0.00     0.054 A 
BRANCH  26  30
ATOM     30  O   UNL d   1      21.851 -17.588  -0.556  0.00  0.00    -0.356 OA
ATOM     31  C   UNL d   1      21.755 -18.956  -0.145  0.00  0.00     0.210 C 
ENDBRANCH  26  30
BRANCH  28  32
ATOM     32  O   UNL d   1      26.470 -18.414  -0.062  0.00  0.00    -0.356 OA
ATOM     33  C   UNL d   1      27.737 -17.825   0.230  0.00  0.00     0.210 C 
ENDBRANCH  28  32
ENDBRANCH   1  24
TORSDOF 6
ENDMDL
MODEL 8
REMARK VINA RESULT:    -7.587      3.063      6.140
REMARK INTER + INTRA:         -10.463
REMARK INTER:                  -9.377
REMARK INTRA:                  -1.086
REMARK CONF_INDEPENDENT:        1.790
REMARK UNBOUND:                -1.086
REMARK  6 active torsions:
REMARK  status: ('A' for Active; 'I' for Inactive)
REMARK    1  A    between atoms: O_2  and  C_3 
REMARK    2  A    between atoms: C_5  and  O_6 
REMARK    3  A    between atoms: C_9  and  C_10 
REMARK       I    between atoms: C_10  and  N_12 
REMARK       I    between atoms: N_12  and  C_13 
REMARK       I    between atoms: C_13  and  N_14 
REMARK       I    between atoms: C_13  and  N_22 
REMARK    4  A    between atoms: N_14  and  C_15 
REMARK    5  A    between atoms: C_15  and  C_16 
REMARK    6  A    between atoms: N_22  and  C_23 
ROOT
ATOM      1  C   UNL d   1      28.255 -17.085  -0.260  0.00  0.00     0.294 C 
ATOM      2  O   UNL d   1      28.826 -18.148  -0.520  0.00  0.00    -0.265 OA
ATOM      3  N   UNL d   1      28.831 -15.989   0.328  0.00  0.00    -0.023 NA
ATOM      4  C   UNL d   1      30.098 -16.009   0.605  0.00  0.00     0.704 C 
ATOM      5  N   UNL d   1      30.707 -14.874   1.040  0.00  0.00    -0.220 N 
ATOM      6  N   UNL d   1      30.950 -17.068   0.403  0.00  0.00    -0.190 N 
ATOM      7  H   UNL d   1      31.699 -14.968   1.167  0.00  0.00     0.178 HD
ATOM      8  H   UNL d   1      30.505 -17.887  -0.019  0.00  0.00     0.184 HD
ENDROOT
BRANCH   5   9
ATOM      9  C   UNL d   1      30.073 -13.693   1.588  0.00  0.00     0.178 C 
BRANCH   9  10
ATOM     10  C   UNL d   1      29.304 -13.980   2.868  0.00  0.00    -0.022 A 
ATOM     11  C   UNL d   1      29.902 -14.449   4.046  0.00  0.00     0.012 A 
ATOM     12  C   UNL d   1      29.136 -14.724   5.175  0.00  0.00     0.020 A 
ATOM     13  C   UNL d   1      27.780 -14.470   5.121  0.00  0.00     0.116 A 
ATOM     14  N   UNL d   1      27.160 -13.977   4.029  0.00  0.00    -0.273 NA
ATOM     15  C   UNL d   1      27.930 -13.746   2.934  0.00  0.00     0.124 A 
ENDBRANCH   9  10
ENDBRANCH   5   9
BRANCH   6  16
ATOM     16  C   UNL d   1      32.282 -17.298   0.794  0.00  0.00     0.055 A 
ATOM     17  C   UNL d   1      32.491 -18.221   1.842  0.00  0.00     0.037 A 
ATOM     18  C   UNL d   1      33.778 -18.515   2.310  0.00  0.00    -0.060 A 
ATOM     19  C   UNL d   1      34.000 -19.309   3.564  0.00  0.00     0.048 C 
ATOM     20  C   UNL d   1      34.877 -17.980   1.643  0.00  0.00     0.007 A 
ATOM     21  C   UNL d   1      34.690 -17.058   0.618  0.00  0.00     0.009 A 
ATOM     22  C   UNL d   1      33.403 -16.675   0.209  0.00  0.00    -0.035 A 
ATOM     23  C   UNL d   1      33.303 -15.551  -0.788  0.00  0.00     0.050 C 
ENDBRANCH   6  16
BRANCH   1  24
ATOM     24  C   UNL d   1      26.824 -16.934  -0.620  0.00  0.00     0.040 A 
ATOM     25  C   UNL d   1      26.482 -16.018  -1.615  0.00  0.00     0.054 A 
ATOM     26  C   UNL d   1      25.171 -15.936  -2.072  0.00  0.00     0.071 A 
ATOM     27  C   UNL d   1      24.178 -16.689  -1.434  0.00  0.00     0.073 A 
ATOM     28  C   UNL d   1      24.510 -17.589  -0.411  0.00  0.00     0.071 A 
ATOM     29  C   UNL d   1      25.840 -17.727  -0.024  0.00  0.00     0.054 A 
BRANCH  26  30
ATOM     30  O   UNL d   1      24.785 -15.183  -3.152  0.00  0.00    -0.356 OA
ATOM     31  C   UNL d   1      25.848 -14.664  -3.958  0.00  0.00     0.210 C 
ENDBRANCH  26  30
BRANCH  28  32
ATOM     32  O   UNL d   1      23.502 -18.379   0.073  0.00  0.00    -0.356 OA
ATOM     33  C   UNL d   1      22.229 -18.186  -0.543  0.00  0.00     0.210 C 
ENDBRANCH  28  32
ENDBRANCH   1  24
TORSDOF 6
ENDMDL
MODEL 9
REMARK VINA RESULT:    -7.482      4.026      8.292
REMARK INTER + INTRA:         -10.593
REMARK INTER:                  -9.272
REMARK INTRA:                  -1.321
REMARK CONF_INDEPENDENT:        1.790
REMARK UNBOUND:                -1.321
REMARK  6 active torsions:
REMARK  status: ('A' for Active; 'I' for Inactive)
REMARK    1  A    between atoms: O_2  and  C_3 
REMARK    2  A    between atoms: C_5  and  O_6 
REMARK    3  A    between atoms: C_9  and  C_10 
REMARK       I    between atoms: C_10  and  N_12 
REMARK       I    between atoms: N_12  and  C_13 
REMARK       I    between atoms: C_13  and  N_14 
REMARK       I    between atoms: C_13  and  N_22 
REMARK    4  A    between atoms: N_14  and  C_15 
REMARK    5  A    between atoms: C_15  and  C_16 
REMARK    6  A    between atoms: N_22  and  C_23 
ROOT
ATOM      1  C   UNL d   1      25.136 -14.557  -2.886  0.00  0.00     0.294 C 
ATOM      2  O   UNL d   1      24.159 -14.052  -3.448  0.00  0.00    -0.265 OA
ATOM      3  N   UNL d   1      26.423 -14.093  -2.947  0.00  0.00    -0.023 NA
ATOM      4  C   UNL d   1      26.675 -13.000  -3.600  0.00  0.00     0.704 C 
ATOM      5  N   UNL d   1      27.917 -12.450  -3.532  0.00  0.00    -0.220 N 
ATOM      6  N   UNL d   1      25.760 -12.252  -4.299  0.00  0.00    -0.190 N 
ATOM      7  H   UNL d   1      27.999 -11.573  -4.015  0.00  0.00     0.178 HD
ATOM      8  H   UNL d   1      24.805 -12.617  -4.262  0.00  0.00     0.184 HD
ENDROOT
BRANCH   5   9
ATOM      9  C   UNL d   1      29.141 -13.096  -3.108  0.00  0.00     0.178 C 
BRANCH   9  10
ATOM     10  C   UNL d   1      29.338 -14.459  -3.752  0.00  0.00    -0.022 A 
ATOM     11  C   UNL d   1      29.826 -15.580  -3.066  0.00  0.00     0.012 A 
ATOM     12  C   UNL d   1      30.015 -16.793  -3.722  0.00  0.00     0.020 A 
ATOM     13  C   UNL d   1      29.657 -16.877  -5.053  0.00  0.00     0.116 A 
ATOM     14  N   UNL d   1      29.142 -15.843  -5.750  0.00  0.00    -0.273 NA
ATOM     15  C   UNL d   1      28.997 -14.665  -5.090  0.00  0.00     0.124 A 
ENDBRANCH   9  10
ENDBRANCH   5   9
BRANCH   6  16
ATOM     16  C   UNL d   1      25.903 -11.159  -5.176  0.00  0.00     0.055 A 
ATOM     17  C   UNL d   1      26.293 -11.449  -6.501  0.00  0.00     0.037 A 
ATOM     18  C   UNL d   1      26.470 -10.432  -7.449  0.00  0.00    -0.060 A 
ATOM     19  C   UNL d   1      27.101 -10.699  -8.783  0.00  0.00     0.048 C 
ATOM     20  C   UNL d   1      26.132  -9.125  -7.107  0.00  0.00     0.007 A 
ATOM     21  C   UNL d   1      25.760  -8.819  -5.802  0.00  0.00     0.009 A 
ATOM     22  C   UNL d   1      25.680  -9.815  -4.814  0.00  0.00    -0.035 A 
ATOM     23  C   UNL d   1      25.435  -9.363  -3.399  0.00  0.00     0.050 C 
ENDBRANCH   6  16
BRANCH   1  24
ATOM     24  C   UNL d   1      24.933 -15.761  -2.043  0.00  0.00     0.040 A 
ATOM     25  C   UNL d   1      26.057 -16.469  -1.616  0.00  0.00     0.054 A 
ATOM     26  C   UNL d   1      25.921 -17.526  -0.722  0.00  0.00     0.071 A 
ATOM     27  C   UNL d   1      24.637 -17.952  -0.360  0.00  0.00     0.073 A 
ATOM     28  C   UNL d   1      23.502 -17.264  -0.811  0.00  0.00     0.071 A 
ATOM     29  C   UNL d   1      23.656 -16.152  -1.634  0.00  0.00     0.054 A 
BRANCH  26  30
ATOM     30  O   UNL d   1      26.980 -18.166  -0.130  0.00  0.00    -0.356 OA
ATOM     31  C   UNL d   1      28.223 -17.457  -0.151  0.00  0.00     0.210 C 
ENDBRANCH  26  30
BRANCH  28  32
ATOM     32  O   UNL d   1      22.292 -17.664  -0.311  0.00  0.00    -0.356 OA
ATOM     33  C   UNL d   1      21.826 -18.928  -0.784  0.00  0.00     0.210 C 
ENDBRANCH  28  32
ENDBRANCH   1  24
TORSDOF 6
ENDMDL
