MODEL 1
REMARK VINA RESULT:   -29.060      0.000      0.000
REMARK INTER + INTRA:         -34.202
REMARK INTER:                 -31.446
REMARK INTRA:                  -2.756
REMARK CONF_INDEPENDENT:        2.386
REMARK UNBOUND:                -2.756
REMARK  8 active torsions:
REMARK  status: ('A' for Active; 'I' for Inactive)
REMARK    1  A    between atoms: C_3  and  C_4 
REMARK       I    between atoms: C_4  and  N_6 
REMARK    2  A    between atoms: N_6  and  N_7 
REMARK    3  A    between atoms: N_13  and  C_14 
REMARK    4  A    between atoms: C_14  and  C_15 
REMARK    5  A    between atoms: N_23  and  C_24 
REMARK    6  A    between atoms: C_24  and  C_25 
REMARK       I    between atoms: C_25  and  N_27 
REMARK    7  A    between atoms: N_27  and  C_28 
REMARK    8  A    between atoms: C_28  and  C_29 
ROOT
ATOM      1  C   UNL d   1      24.789 -18.565   0.988  0.00  0.00     0.051 C 
ATOM      2  C   UNL d   1      24.600 -17.477  -0.059  0.00  0.00    -0.021 A 
ATOM      3  C   UNL d   1      23.546 -17.434  -1.021  0.00  0.00     0.083 A 
ATOM      4  S   UNL d   1      23.689 -16.038  -1.996  0.00  0.00    -0.065 SA
ATOM      5  C   UNL d   1      25.039 -15.476  -1.209  0.00  0.00     0.098 A 
ATOM      6  C   UNL d   1      25.512 -16.276  -0.202  0.00  0.00     0.074 A 
ATOM      7  C   UNL d   1      26.748 -15.778   0.492  0.00  0.00     0.265 C 
ATOM      8  O   UNL d   1      27.288 -16.412   1.397  0.00  0.00    -0.267 OA
ATOM      9  N   UNL d   1      27.268 -14.550  -0.009  0.00  0.00    -0.261 N 
ATOM     10  C   UNL d   1      26.914 -14.129  -1.272  0.00  0.00     0.333 C 
ATOM     11  O   UNL d   1      27.747 -13.672  -2.063  0.00  0.00    -0.246 OA
ATOM     12  N   UNL d   1      25.609 -14.304  -1.675  0.00  0.00    -0.283 N 
ENDROOT
BRANCH  12  13
ATOM     13  C   UNL d   1      25.115 -13.559  -2.854  0.00  0.00     0.237 C 
BRANCH  13  14
ATOM     14  C   UNL d   1      25.714 -13.871  -4.239  0.00  0.00     0.236 C 
ATOM     15  O   UNL d   1      25.218 -14.588  -5.095  0.00  0.00    -0.272 OA
ATOM     16  N   UNL d   1      26.946 -13.355  -4.509  0.00  0.00    -0.355 N 
ATOM     17  H   UNL d   1      27.502 -12.967  -3.764  0.00  0.00     0.162 HD
BRANCH  16  18
ATOM     18  C   UNL d   1      27.455 -13.613  -5.843  0.00  0.00     0.161 C 
BRANCH  18  19
ATOM     19  C   UNL d   1      28.568 -14.605  -5.906  0.00  0.00    -0.041 A 
ATOM     20  C   UNL d   1      28.625 -15.622  -4.942  0.00  0.00     0.009 A 
ATOM     21  C   UNL d   1      29.658 -16.555  -4.987  0.00  0.00     0.001 A 
ATOM     22  C   UNL d   1      30.626 -16.475  -5.989  0.00  0.00     0.000 A 
ATOM     23  C   UNL d   1      30.575 -15.468  -6.941  0.00  0.00     0.001 A 
ATOM     24  C   UNL d   1      29.554 -14.539  -6.894  0.00  0.00     0.009 A 
ENDBRANCH  18  19
ENDBRANCH  16  18
ENDBRANCH  13  14
ENDBRANCH  12  13
BRANCH   9  25
ATOM     25  C   UNL d   1      28.535 -13.958   0.536  0.00  0.00     0.175 C 
BRANCH  25  26
ATOM     26  C   UNL d   1      28.733 -13.954   2.078  0.00  0.00    -0.040 A 
ATOM     27  C   UNL d   1      27.657 -13.661   2.947  0.00  0.00     0.009 A 
ATOM     28  C   UNL d   1      27.754 -13.880   4.334  0.00  0.00     0.001 A 
ATOM     29  C   UNL d   1      28.921 -14.404   4.882  0.00  0.00     0.000 A 
ATOM     30  C   UNL d   1      30.000 -14.679   4.049  0.00  0.00     0.001 A 
ATOM     31  C   UNL d   1      29.920 -14.433   2.665  0.00  0.00     0.009 A 
ENDBRANCH  25  26
ENDBRANCH   9  25
BRANCH   3  32
ATOM     32  C   UNL d   1      22.369 -18.288  -1.369  0.00  0.00     0.273 C 
ATOM     33  O   UNL d   1      22.429 -19.324  -2.031  0.00  0.00    -0.266 OA
ATOM     34  N   UNL d   1      21.105 -17.828  -0.884  0.00  0.00    -0.289 N 
ATOM     35  H   UNL d   1      21.075 -17.015  -0.269  0.00  0.00     0.183 HD
BRANCH  34  36
ATOM     36  N   UNL d   1      19.905 -18.575  -1.022  0.00  0.00    -0.247 NA
ATOM     37  H   UNL d   1      20.077 -19.315  -1.712  0.00  0.00     0.143 HD
ATOM     38  H   UNL d   1      19.181 -17.980  -1.440  0.00  0.00     0.143 HD
ENDBRANCH  34  36
ENDBRANCH   3  32
TORSDOF 8
ENDMDL
MODEL 2
REMARK VINA RESULT:   -28.802      1.795      2.345
REMARK INTER + INTRA:         -33.487
REMARK INTER:                 -31.188
REMARK INTRA:                  -2.298
REMARK CONF_INDEPENDENT:        2.386
REMARK UNBOUND:                -2.298
REMARK  8 active torsions:
REMARK  status: ('A' for Active; 'I' for Inactive)
REMARK    1  A    between atoms: C_3  and  C_4 
REMARK       I    between atoms: C_4  and  N_6 
REMARK    2  A    between atoms: N_6  and  N_7 
REMARK    3  A    between atoms: N_13  and  C_14 
REMARK    4  A    between atoms: C_14  and  C_15 
REMARK    5  A    between atoms: N_23  and  C_24 
REMARK    6  A    between atoms: C_24  and  C_25 
REMARK       I    between atoms: C_25  and  N_27 
REMARK    7  A    between atoms: N_27  and  C_28 
REMARK    8  A    between atoms: C_28  and  C_29 
ROOT
ATOM      1  C   UNL d   1      24.120 -18.575   0.988  0.00  0.00     0.051 C 
ATOM      2  C   UNL d   1      24.367 -17.555  -0.114  0.00  0.00    -0.021 A 
ATOM      3  C   UNL d   1      23.353 -16.940  -0.909  0.00  0.00     0.083 A 
ATOM      4  S   UNL d   1      24.051 -15.842  -2.017  0.00  0.00    -0.065 SA
ATOM      5  C   UNL d   1      25.604 -16.110  -1.492  0.00  0.00     0.098 A 
ATOM      6  C   UNL d   1      25.740 -17.043  -0.498  0.00  0.00     0.074 A 
ATOM      7  C   UNL d   1      27.148 -17.301  -0.042  0.00  0.00     0.265 C 
ATOM      8  O   UNL d   1      27.411 -18.131   0.826  0.00  0.00    -0.267 OA
ATOM      9  N   UNL d   1      28.150 -16.551  -0.724  0.00  0.00    -0.261 N 
ATOM     10  C   UNL d   1      27.864 -16.000  -1.954  0.00  0.00     0.333 C 
ATOM     11  O   UNL d   1      28.660 -16.066  -2.898  0.00  0.00    -0.246 OA
ATOM     12  N   UNL d   1      26.623 -15.435  -2.142  0.00  0.00    -0.283 N 
ENDROOT
BRANCH  12  13
ATOM     13  C   UNL d   1      26.411 -14.535  -3.297  0.00  0.00     0.237 C 
BRANCH  13  14
ATOM     14  C   UNL d   1      27.028 -14.910  -4.659  0.00  0.00     0.236 C 
ATOM     15  O   UNL d   1      26.459 -15.482  -5.576  0.00  0.00    -0.272 OA
ATOM     16  N   UNL d   1      28.353 -14.641  -4.830  0.00  0.00    -0.355 N 
ATOM     17  H   UNL d   1      28.923 -14.400  -4.036  0.00  0.00     0.162 HD
BRANCH  16  18
ATOM     18  C   UNL d   1      28.890 -14.947  -6.143  0.00  0.00     0.161 C 
BRANCH  18  19
ATOM     19  C   UNL d   1      29.912 -16.033  -6.163  0.00  0.00    -0.041 A 
ATOM     20  C   UNL d   1      30.773 -16.135  -7.265  0.00  0.00     0.009 A 
ATOM     21  C   UNL d   1      31.732 -17.144  -7.298  0.00  0.00     0.001 A 
ATOM     22  C   UNL d   1      31.833 -18.045  -6.237  0.00  0.00     0.000 A 
ATOM     23  C   UNL d   1      30.981 -17.950  -5.147  0.00  0.00     0.001 A 
ATOM     24  C   UNL d   1      30.025 -16.952  -5.116  0.00  0.00     0.009 A 
ENDBRANCH  18  19
ENDBRANCH  16  18
ENDBRANCH  13  14
ENDBRANCH  12  13
BRANCH   9  25
ATOM     25  C   UNL d   1      29.608 -16.747  -0.428  0.00  0.00     0.175 C 
BRANCH  25  26
ATOM     26  C   UNL d   1      30.359 -15.610   0.319  0.00  0.00    -0.040 A 
ATOM     27  C   UNL d   1      29.697 -14.808   1.277  0.00  0.00     0.009 A 
ATOM     28  C   UNL d   1      30.408 -13.939   2.125  0.00  0.00     0.001 A 
ATOM     29  C   UNL d   1      31.795 -13.859   2.045  0.00  0.00     0.000 A 
ATOM     30  C   UNL d   1      32.467 -14.622   1.095  0.00  0.00     0.001 A 
ATOM     31  C   UNL d   1      31.758 -15.470   0.222  0.00  0.00     0.009 A 
ENDBRANCH  25  26
ENDBRANCH   9  25
BRANCH   3  32
ATOM     32  C   UNL d   1      21.862 -17.015  -1.001  0.00  0.00     0.273 C 
ATOM     33  O   UNL d   1      21.130 -16.064  -1.273  0.00  0.00    -0.266 OA
ATOM     34  N   UNL d   1      21.290 -18.299  -0.739  0.00  0.00    -0.289 N 
ATOM     35  H   UNL d   1      21.907 -19.098  -0.594  0.00  0.00     0.183 HD
BRANCH  34  36
ATOM     36  N   UNL d   1      19.905 -18.575  -0.896  0.00  0.00    -0.247 NA
ATOM     37  H   UNL d   1      19.425 -17.681  -1.050  0.00  0.00     0.143 HD
ATOM     38  H   UNL d   1      19.529 -18.934  -0.012  0.00  0.00     0.143 HD
ENDBRANCH  34  36
ENDBRANCH   3  32
TORSDOF 8
ENDMDL
MODEL 3
REMARK VINA RESULT:   -28.527      2.394      3.564
REMARK INTER + INTRA:         -33.819
REMARK INTER:                 -30.913
REMARK INTRA:                  -2.906
REMARK CONF_INDEPENDENT:        2.386
REMARK UNBOUND:                -2.906
REMARK  8 active torsions:
REMARK  status: ('A' for Active; 'I' for Inactive)
REMARK    1  A    between atoms: C_3  and  C_4 
REMARK       I    between atoms: C_4  and  N_6 
REMARK    2  A    between atoms: N_6  and  N_7 
REMARK    3  A    between atoms: N_13  and  C_14 
REMARK    4  A    between atoms: C_14  and  C_15 
REMARK    5  A    between atoms: N_23  and  C_24 
REMARK    6  A    between atoms: C_24  and  C_25 
REMARK       I    between atoms: C_25  and  N_27 
REMARK    7  A    between atoms: N_27  and  C_28 
REMARK    8  A    between atoms: C_28  and  C_29 
ROOT
ATOM      1  C   UNL d   1      24.128 -19.325   0.085  0.00  0.00     0.051 C 
ATOM      2  C   UNL d   1      24.140 -17.942  -0.550  0.00  0.00    -0.021 A 
ATOM      3  C   UNL d   1      22.988 -17.242  -1.023  0.00  0.00     0.083 A 
ATOM      4  S   UNL d   1      23.436 -15.715  -1.645  0.00  0.00    -0.065 SA
ATOM      5  C   UNL d   1      25.050 -15.911  -1.305  0.00  0.00     0.098 A 
ATOM      6  C   UNL d   1      25.394 -17.114  -0.747  0.00  0.00     0.074 A 
ATOM      7  C   UNL d   1      26.858 -17.300  -0.463  0.00  0.00     0.265 C 
ATOM      8  O   UNL d   1      27.302 -18.341   0.015  0.00  0.00    -0.267 OA
ATOM      9  N   UNL d   1      27.688 -16.202  -0.833  0.00  0.00    -0.261 N 
ATOM     10  C   UNL d   1      27.227 -15.284  -1.751  0.00  0.00     0.333 C 
ATOM     11  O   UNL d   1      27.941 -14.866  -2.670  0.00  0.00    -0.246 OA
ATOM     12  N   UNL d   1      25.909 -14.891  -1.675  0.00  0.00    -0.283 N 
ENDROOT
BRANCH  12  13
ATOM     13  C   UNL d   1      25.480 -13.671  -2.393  0.00  0.00     0.237 C 
BRANCH  13  14
ATOM     14  C   UNL d   1      25.754 -13.559  -3.905  0.00  0.00     0.236 C 
ATOM     15  O   UNL d   1      25.033 -13.971  -4.802  0.00  0.00    -0.272 OA
ATOM     16  N   UNL d   1      26.945 -13.011  -4.277  0.00  0.00    -0.355 N 
ATOM     17  H   UNL d   1      27.673 -12.880  -3.594  0.00  0.00     0.162 HD
BRANCH  16  18
ATOM     18  C   UNL d   1      27.147 -12.862  -5.707  0.00  0.00     0.161 C 
BRANCH  18  19
ATOM     19  C   UNL d   1      28.337 -13.580  -6.248  0.00  0.00    -0.041 A 
ATOM     20  C   UNL d   1      28.497 -14.942  -5.958  0.00  0.00     0.009 A 
ATOM     21  C   UNL d   1      29.602 -15.626  -6.456  0.00  0.00     0.001 A 
ATOM     22  C   UNL d   1      30.543 -14.956  -7.240  0.00  0.00     0.000 A 
ATOM     23  C   UNL d   1      30.390 -13.607  -7.525  0.00  0.00     0.001 A 
ATOM     24  C   UNL d   1      29.296 -12.926  -7.027  0.00  0.00     0.009 A 
ENDBRANCH  18  19
ENDBRANCH  16  18
ENDBRANCH  13  14
ENDBRANCH  12  13
BRANCH   9  25
ATOM     25  C   UNL d   1      29.178 -16.263  -0.675  0.00  0.00     0.175 C 
BRANCH  25  26
ATOM     26  C   UNL d   1      30.004 -16.947  -1.800  0.00  0.00    -0.040 A 
ATOM     27  C   UNL d   1      31.162 -17.699  -1.496  0.00  0.00     0.009 A 
ATOM     28  C   UNL d   1      31.783 -18.513  -2.462  0.00  0.00     0.001 A 
ATOM     29  C   UNL d   1      31.257 -18.603  -3.747  0.00  0.00     0.000 A 
ATOM     30  C   UNL d   1      30.131 -17.855  -4.075  0.00  0.00     0.001 A 
ATOM     31  C   UNL d   1      29.524 -17.015  -3.122  0.00  0.00     0.009 A 
ENDBRANCH  25  26
ENDBRANCH   9  25
BRANCH   3  32
ATOM     32  C   UNL d   1      21.519 -17.510  -1.095  0.00  0.00     0.273 C 
ATOM     33  O   UNL d   1      20.659 -16.648  -1.270  0.00  0.00    -0.266 OA
ATOM     34  N   UNL d   1      21.132 -18.878  -0.938  0.00  0.00    -0.289 N 
ATOM     35  H   UNL d   1      21.854 -19.595  -0.875  0.00  0.00     0.183 HD
BRANCH  34  36
ATOM     36  N   UNL d   1      19.792 -19.325  -1.095  0.00  0.00    -0.247 NA
ATOM     37  H   UNL d   1      19.209 -18.501  -1.278  0.00  0.00     0.143 HD
ATOM     38  H   UNL d   1      19.454 -19.702  -0.203  0.00  0.00     0.143 HD
ENDBRANCH  34  36
ENDBRANCH   3  32
TORSDOF 8
ENDMDL
MODEL 4
REMARK VINA RESULT:   -28.458      2.397      3.502
REMARK INTER + INTRA:         -33.725
REMARK INTER:                 -30.845
REMARK INTRA:                  -2.880
REMARK CONF_INDEPENDENT:        2.386
REMARK UNBOUND:                -2.880
REMARK  8 active torsions:
REMARK  status: ('A' for Active; 'I' for Inactive)
REMARK    1  A    between atoms: C_3  and  C_4 
REMARK       I    between atoms: C_4  and  N_6 
REMARK    2  A    between atoms: N_6  and  N_7 
REMARK    3  A    between atoms: N_13  and  C_14 
REMARK    4  A    between atoms: C_14  and  C_15 
REMARK    5  A    between atoms: N_23  and  C_24 
REMARK    6  A    between atoms: C_24  and  C_25 
REMARK       I    between atoms: C_25  and  N_27 
REMARK    7  A    between atoms: N_27  and  C_28 
REMARK    8  A    between atoms: C_28  and  C_29 
ROOT
ATOM      1  C   UNL d   1      24.102 -18.574   0.973  0.00  0.00     0.051 C 
ATOM      2  C   UNL d   1      24.336 -17.503  -0.084  0.00  0.00    -0.021 A 
ATOM      3  C   UNL d   1      23.316 -16.882  -0.867  0.00  0.00     0.083 A 
ATOM      4  S   UNL d   1      24.000 -15.722  -1.920  0.00  0.00    -0.065 SA
ATOM      5  C   UNL d   1      25.553 -15.972  -1.385  0.00  0.00     0.098 A 
ATOM      6  C   UNL d   1      25.700 -16.942  -0.428  0.00  0.00     0.074 A 
ATOM      7  C   UNL d   1      27.109 -17.184   0.036  0.00  0.00     0.265 C 
ATOM      8  O   UNL d   1      27.381 -18.041   0.873  0.00  0.00    -0.267 OA
ATOM      9  N   UNL d   1      28.100 -16.382  -0.601  0.00  0.00    -0.261 N 
ATOM     10  C   UNL d   1      27.815 -15.788  -1.811  0.00  0.00     0.333 C 
ATOM     11  O   UNL d   1      28.624 -15.795  -2.746  0.00  0.00    -0.246 OA
ATOM     12  N   UNL d   1      26.563 -15.246  -1.993  0.00  0.00    -0.283 N 
ENDROOT
BRANCH  12  13
ATOM     13  C   UNL d   1      26.342 -14.305  -3.114  0.00  0.00     0.237 C 
BRANCH  13  14
ATOM     14  C   UNL d   1      26.953 -14.629  -4.491  0.00  0.00     0.236 C 
ATOM     15  O   UNL d   1      26.432 -15.295  -5.374  0.00  0.00    -0.272 OA
ATOM     16  N   UNL d   1      28.222 -14.190  -4.721  0.00  0.00    -0.355 N 
ATOM     17  H   UNL d   1      28.784 -13.856  -3.955  0.00  0.00     0.162 HD
BRANCH  16  18
ATOM     18  C   UNL d   1      28.746 -14.455  -6.048  0.00  0.00     0.161 C 
BRANCH  18  19
ATOM     19  C   UNL d   1      29.554 -15.703  -6.163  0.00  0.00    -0.041 A 
ATOM     20  C   UNL d   1      29.418 -16.693  -5.179  0.00  0.00     0.009 A 
ATOM     21  C   UNL d   1      30.166 -17.863  -5.273  0.00  0.00     0.001 A 
ATOM     22  C   UNL d   1      31.044 -18.047  -6.342  0.00  0.00     0.000 A 
ATOM     23  C   UNL d   1      31.185 -17.069  -7.314  0.00  0.00     0.001 A 
ATOM     24  C   UNL d   1      30.447 -15.904  -7.220  0.00  0.00     0.009 A 
ENDBRANCH  18  19
ENDBRANCH  16  18
ENDBRANCH  13  14
ENDBRANCH  12  13
BRANCH   9  25
ATOM     25  C   UNL d   1      29.558 -16.553  -0.294  0.00  0.00     0.175 C 
BRANCH  25  26
ATOM     26  C   UNL d   1      30.375 -17.547  -1.167  0.00  0.00    -0.040 A 
ATOM     27  C   UNL d   1      31.319 -17.078  -2.110  0.00  0.00     0.009 A 
ATOM     28  C   UNL d   1      32.227 -17.952  -2.736  0.00  0.00     0.001 A 
ATOM     29  C   UNL d   1      32.222 -19.309  -2.427  0.00  0.00     0.000 A 
ATOM     30  C   UNL d   1      31.288 -19.796  -1.518  0.00  0.00     0.001 A 
ATOM     31  C   UNL d   1      30.356 -18.932  -0.913  0.00  0.00     0.009 A 
ENDBRANCH  25  26
ENDBRANCH   9  25
BRANCH   3  32
ATOM     32  C   UNL d   1      21.829 -16.990  -0.982  0.00  0.00     0.273 C 
ATOM     33  O   UNL d   1      21.082 -16.057  -1.274  0.00  0.00    -0.266 OA
ATOM     34  N   UNL d   1      21.281 -18.284  -0.718  0.00  0.00    -0.289 N 
ATOM     35  H   UNL d   1      21.913 -19.069  -0.557  0.00  0.00     0.183 HD
BRANCH  34  36
ATOM     36  N   UNL d   1      19.905 -18.592  -0.895  0.00  0.00    -0.247 NA
ATOM     37  H   UNL d   1      19.405 -17.708  -1.044  0.00  0.00     0.143 HD
ATOM     38  H   UNL d   1      19.527 -18.970  -0.019  0.00  0.00     0.143 HD
ENDBRANCH  34  36
ENDBRANCH   3  32
TORSDOF 8
ENDMDL
MODEL 5
REMARK VINA RESULT:   -28.328      2.616      4.208
REMARK INTER + INTRA:         -33.631
REMARK INTER:                 -30.714
REMARK INTRA:                  -2.917
REMARK CONF_INDEPENDENT:        2.386
REMARK UNBOUND:                -2.917
REMARK  8 active torsions:
REMARK  status: ('A' for Active; 'I' for Inactive)
REMARK    1  A    between atoms: C_3  and  C_4 
REMARK       I    between atoms: C_4  and  N_6 
REMARK    2  A    between atoms: N_6  and  N_7 
REMARK    3  A    between atoms: N_13  and  C_14 
REMARK    4  A    between atoms: C_14  and  C_15 
REMARK    5  A    between atoms: N_23  and  C_24 
REMARK    6  A    between atoms: C_24  and  C_25 
REMARK       I    between atoms: C_25  and  N_27 
REMARK    7  A    between atoms: N_27  and  C_28 
REMARK    8  A    between atoms: C_28  and  C_29 
ROOT
ATOM      1  C   UNL d   1      25.346 -18.575   0.980  0.00  0.00     0.051 C 
ATOM      2  C   UNL d   1      24.856 -17.566  -0.049  0.00  0.00    -0.021 A 
ATOM      3  C   UNL d   1      23.492 -17.363  -0.418  0.00  0.00     0.083 A 
ATOM      4  S   UNL d   1      23.372 -16.125  -1.590  0.00  0.00    -0.065 SA
ATOM      5  C   UNL d   1      25.006 -15.824  -1.618  0.00  0.00     0.098 A 
ATOM      6  C   UNL d   1      25.767 -16.623  -0.807  0.00  0.00     0.074 A 
ATOM      7  C   UNL d   1      27.247 -16.366  -0.853  0.00  0.00     0.265 C 
ATOM      8  O   UNL d   1      28.045 -17.028  -0.192  0.00  0.00    -0.267 OA
ATOM      9  N   UNL d   1      27.654 -15.338  -1.751  0.00  0.00    -0.261 N 
ATOM     10  C   UNL d   1      26.809 -14.956  -2.770  0.00  0.00     0.333 C 
ATOM     11  O   UNL d   1      27.219 -14.771  -3.922  0.00  0.00    -0.246 OA
ATOM     12  N   UNL d   1      25.463 -14.859  -2.499  0.00  0.00    -0.283 N 
ENDROOT
BRANCH  12  13
ATOM     13  C   UNL d   1      24.590 -14.123  -3.441  0.00  0.00     0.237 C 
BRANCH  13  14
ATOM     14  C   UNL d   1      25.200 -12.996  -4.298  0.00  0.00     0.236 C 
ATOM     15  O   UNL d   1      24.805 -12.630  -5.395  0.00  0.00    -0.272 OA
ATOM     16  N   UNL d   1      26.327 -12.399  -3.820  0.00  0.00    -0.355 N 
ATOM     17  H   UNL d   1      26.831 -12.817  -3.055  0.00  0.00     0.162 HD
BRANCH  16  18
ATOM     18  C   UNL d   1      26.841 -11.301  -4.618  0.00  0.00     0.161 C 
BRANCH  18  19
ATOM     19  C   UNL d   1      27.503 -11.709  -5.890  0.00  0.00    -0.041 A 
ATOM     20  C   UNL d   1      28.267 -12.885  -5.911  0.00  0.00     0.009 A 
ATOM     21  C   UNL d   1      28.891 -13.279  -7.091  0.00  0.00     0.001 A 
ATOM     22  C   UNL d   1      28.753 -12.506  -8.245  0.00  0.00     0.000 A 
ATOM     23  C   UNL d   1      28.002 -11.341  -8.228  0.00  0.00     0.001 A 
ATOM     24  C   UNL d   1      27.386 -10.946  -7.056  0.00  0.00     0.009 A 
ENDBRANCH  18  19
ENDBRANCH  16  18
ENDBRANCH  13  14
ENDBRANCH  12  13
BRANCH   9  25
ATOM     25  C   UNL d   1      29.103 -15.010  -1.958  0.00  0.00     0.175 C 
BRANCH  25  26
ATOM     26  C   UNL d   1      29.833 -15.665  -3.164  0.00  0.00    -0.040 A 
ATOM     27  C   UNL d   1      29.751 -17.057  -3.394  0.00  0.00     0.009 A 
ATOM     28  C   UNL d   1      30.204 -17.631  -4.597  0.00  0.00     0.001 A 
ATOM     29  C   UNL d   1      30.738 -16.828  -5.600  0.00  0.00     0.000 A 
ATOM     30  C   UNL d   1      30.849 -15.457  -5.387  0.00  0.00     0.001 A 
ATOM     31  C   UNL d   1      30.427 -14.882  -4.174  0.00  0.00     0.009 A 
ENDBRANCH  25  26
ENDBRANCH   9  25
BRANCH   3  32
ATOM     32  C   UNL d   1      22.172 -17.950  -0.032  0.00  0.00     0.273 C 
ATOM     33  O   UNL d   1      21.859 -18.271   1.114  0.00  0.00    -0.266 OA
ATOM     34  N   UNL d   1      21.242 -18.140  -1.102  0.00  0.00    -0.289 N 
ATOM     35  H   UNL d   1      21.479 -17.795  -2.033  0.00  0.00     0.183 HD
BRANCH  34  36
ATOM     36  N   UNL d   1      19.905 -18.575  -0.897  0.00  0.00    -0.247 NA
ATOM     37  H   UNL d   1      19.281 -17.841  -1.249  0.00  0.00     0.143 HD
ATOM     38  H   UNL d   1      19.717 -18.627   0.110  0.00  0.00     0.143 HD
ENDBRANCH  34  36
ENDBRANCH   3  32
TORSDOF 8
ENDMDL
MODEL 6
REMARK VINA RESULT:   -28.074      2.511      3.350
REMARK INTER + INTRA:         -33.163
REMARK INTER:                 -30.460
REMARK INTRA:                  -2.703
REMARK CONF_INDEPENDENT:        2.386
REMARK UNBOUND:                -2.703
REMARK  8 active torsions:
REMARK  status: ('A' for Active; 'I' for Inactive)
REMARK    1  A    between atoms: C_3  and  C_4 
REMARK       I    between atoms: C_4  and  N_6 
REMARK    2  A    between atoms: N_6  and  N_7 
REMARK    3  A    between atoms: N_13  and  C_14 
REMARK    4  A    between atoms: C_14  and  C_15 
REMARK    5  A    between atoms: N_23  and  C_24 
REMARK    6  A    between atoms: C_24  and  C_25 
REMARK       I    between atoms: C_25  and  N_27 
REMARK    7  A    between atoms: N_27  and  C_28 
REMARK    8  A    between atoms: C_28  and  C_29 
ROOT
ATOM      1  C   UNL d   1      24.119 -18.574   0.978  0.00  0.00     0.051 C 
ATOM      2  C   UNL d   1      24.362 -17.550  -0.122  0.00  0.00    -0.021 A 
ATOM      3  C   UNL d   1      23.344 -16.935  -0.913  0.00  0.00     0.083 A 
ATOM      4  S   UNL d   1      24.038 -15.833  -2.020  0.00  0.00    -0.065 SA
ATOM      5  C   UNL d   1      25.593 -16.100  -1.500  0.00  0.00     0.098 A 
ATOM      6  C   UNL d   1      25.733 -17.035  -0.509  0.00  0.00     0.074 A 
ATOM      7  C   UNL d   1      27.143 -17.293  -0.057  0.00  0.00     0.265 C 
ATOM      8  O   UNL d   1      27.409 -18.124   0.808  0.00  0.00    -0.267 OA
ATOM      9  N   UNL d   1      28.142 -16.540  -0.739  0.00  0.00    -0.261 N 
ATOM     10  C   UNL d   1      27.852 -15.986  -1.967  0.00  0.00     0.333 C 
ATOM     11  O   UNL d   1      28.645 -16.048  -2.913  0.00  0.00    -0.246 OA
ATOM     12  N   UNL d   1      26.610 -15.422  -2.150  0.00  0.00    -0.283 N 
ENDROOT
BRANCH  12  13
ATOM     13  C   UNL d   1      26.393 -14.519  -3.303  0.00  0.00     0.237 C 
BRANCH  13  14
ATOM     14  C   UNL d   1      26.880 -14.959  -4.697  0.00  0.00     0.236 C 
ATOM     15  O   UNL d   1      26.232 -15.581  -5.526  0.00  0.00    -0.272 OA
ATOM     16  N   UNL d   1      28.179 -14.691  -5.009  0.00  0.00    -0.355 N 
ATOM     17  H   UNL d   1      28.821 -14.406  -4.288  0.00  0.00     0.162 HD
BRANCH  16  18
ATOM     18  C   UNL d   1      28.590 -15.060  -6.352  0.00  0.00     0.161 C 
BRANCH  18  19
ATOM     19  C   UNL d   1      30.062 -15.022  -6.587  0.00  0.00    -0.041 A 
ATOM     20  C   UNL d   1      30.732 -13.794  -6.496  0.00  0.00     0.009 A 
ATOM     21  C   UNL d   1      32.106 -13.742  -6.713  0.00  0.00     0.001 A 
ATOM     22  C   UNL d   1      32.809 -14.908  -7.018  0.00  0.00     0.000 A 
ATOM     23  C   UNL d   1      32.149 -16.124  -7.114  0.00  0.00     0.001 A 
ATOM     24  C   UNL d   1      30.785 -16.176  -6.904  0.00  0.00     0.009 A 
ENDBRANCH  18  19
ENDBRANCH  16  18
ENDBRANCH  13  14
ENDBRANCH  12  13
BRANCH   9  25
ATOM     25  C   UNL d   1      29.600 -16.735  -0.448  0.00  0.00     0.175 C 
BRANCH  25  26
ATOM     26  C   UNL d   1      30.622 -15.851  -1.218  0.00  0.00    -0.040 A 
ATOM     27  C   UNL d   1      31.346 -16.367  -2.317  0.00  0.00     0.009 A 
ATOM     28  C   UNL d   1      32.092 -15.527  -3.164  0.00  0.00     0.001 A 
ATOM     29  C   UNL d   1      32.123 -14.154  -2.941  0.00  0.00     0.000 A 
ATOM     30  C   UNL d   1      31.436 -13.626  -1.853  0.00  0.00     0.001 A 
ATOM     31  C   UNL d   1      30.714 -14.465  -0.983  0.00  0.00     0.009 A 
ENDBRANCH  25  26
ENDBRANCH   9  25
BRANCH   3  32
ATOM     32  C   UNL d   1      21.854 -17.012  -1.001  0.00  0.00     0.273 C 
ATOM     33  O   UNL d   1      21.120 -16.061  -1.269  0.00  0.00    -0.266 OA
ATOM     34  N   UNL d   1      21.284 -18.298  -0.741  0.00  0.00    -0.289 N 
ATOM     35  H   UNL d   1      21.903 -19.096  -0.600  0.00  0.00     0.183 HD
BRANCH  34  36
ATOM     36  N   UNL d   1      19.899 -18.575  -0.895  0.00  0.00    -0.247 NA
ATOM     37  H   UNL d   1      19.812 -19.528  -1.266  0.00  0.00     0.143 HD
ATOM     38  H   UNL d   1      19.511 -17.966  -1.623  0.00  0.00     0.143 HD
ENDBRANCH  34  36
ENDBRANCH   3  32
TORSDOF 8
ENDMDL
MODEL 7
REMARK VINA RESULT:   -27.716      1.527      2.349
REMARK INTER + INTRA:         -33.247
REMARK INTER:                 -30.102
REMARK INTRA:                  -3.145
REMARK CONF_INDEPENDENT:        2.386
REMARK UNBOUND:                -3.145
REMARK  8 active torsions:
REMARK  status: ('A' for Active; 'I' for Inactive)
REMARK    1  A    between atoms: C_3  and  C_4 
REMARK       I    between atoms: C_4  and  N_6 
REMARK    2  A    between atoms: N_6  and  N_7 
REMARK    3  A    between atoms: N_13  and  C_14 
REMARK    4  A    between atoms: C_14  and  C_15 
REMARK    5  A    between atoms: N_23  and  C_24 
REMARK    6  A    between atoms: C_24  and  C_25 
REMARK       I    between atoms: C_25  and  N_27 
REMARK    7  A    between atoms: N_27  and  C_28 
REMARK    8  A    between atoms: C_28  and  C_29 
ROOT
ATOM      1  C   UNL d   1      24.956 -18.573   1.215  0.00  0.00     0.051 C 
ATOM      2  C   UNL d   1      24.697 -17.565   0.105  0.00  0.00    -0.021 A 
ATOM      3  C   UNL d   1      23.591 -17.601  -0.798  0.00  0.00     0.083 A 
ATOM      4  S   UNL d   1      23.663 -16.278  -1.877  0.00  0.00    -0.065 SA
ATOM      5  C   UNL d   1      25.047 -15.648  -1.207  0.00  0.00     0.098 A 
ATOM      6  C   UNL d   1      25.584 -16.370  -0.174  0.00  0.00     0.074 A 
ATOM      7  C   UNL d   1      26.849 -15.812   0.414  0.00  0.00     0.265 C 
ATOM      8  O   UNL d   1      27.446 -16.374   1.330  0.00  0.00    -0.267 OA
ATOM      9  N   UNL d   1      27.326 -14.618  -0.202  0.00  0.00    -0.261 N 
ATOM     10  C   UNL d   1      26.898 -14.294  -1.470  0.00  0.00     0.333 C 
ATOM     11  O   UNL d   1      27.680 -13.887  -2.337  0.00  0.00    -0.246 OA
ATOM     12  N   UNL d   1      25.576 -14.508  -1.787  0.00  0.00    -0.283 N 
ENDROOT
BRANCH  12  13
ATOM     13  C   UNL d   1      25.008 -13.854  -2.988  0.00  0.00     0.237 C 
BRANCH  13  14
ATOM     14  C   UNL d   1      25.717 -14.039  -4.343  0.00  0.00     0.236 C 
ATOM     15  O   UNL d   1      25.499 -14.925  -5.157  0.00  0.00    -0.272 OA
ATOM     16  N   UNL d   1      26.731 -13.176  -4.632  0.00  0.00    -0.355 N 
ATOM     17  H   UNL d   1      27.114 -12.591  -3.908  0.00  0.00     0.162 HD
BRANCH  16  18
ATOM     18  C   UNL d   1      27.336 -13.336  -5.942  0.00  0.00     0.161 C 
BRANCH  18  19
ATOM     19  C   UNL d   1      28.483 -14.288  -5.988  0.00  0.00    -0.041 A 
ATOM     20  C   UNL d   1      28.503 -15.370  -5.096  0.00  0.00     0.009 A 
ATOM     21  C   UNL d   1      29.567 -16.267  -5.127  0.00  0.00     0.001 A 
ATOM     22  C   UNL d   1      30.604 -16.088  -6.042  0.00  0.00     0.000 A 
ATOM     23  C   UNL d   1      30.591 -15.017  -6.923  0.00  0.00     0.001 A 
ATOM     24  C   UNL d   1      29.538 -14.123  -6.890  0.00  0.00     0.009 A 
ENDBRANCH  18  19
ENDBRANCH  16  18
ENDBRANCH  13  14
ENDBRANCH  12  13
BRANCH   9  25
ATOM     25  C   UNL d   1      28.612 -13.978   0.229  0.00  0.00     0.175 C 
BRANCH  25  26
ATOM     26  C   UNL d   1      29.941 -14.581  -0.307  0.00  0.00    -0.040 A 
ATOM     27  C   UNL d   1      30.030 -15.948  -0.656  0.00  0.00     0.009 A 
ATOM     28  C   UNL d   1      31.140 -16.457  -1.356  0.00  0.00     0.001 A 
ATOM     29  C   UNL d   1      32.180 -15.611  -1.732  0.00  0.00     0.000 A 
ATOM     30  C   UNL d   1      32.125 -14.266  -1.380  0.00  0.00     0.001 A 
ATOM     31  C   UNL d   1      31.032 -13.759  -0.653  0.00  0.00     0.009 A 
ENDBRANCH  25  26
ENDBRANCH   9  25
BRANCH   3  32
ATOM     32  C   UNL d   1      22.408 -18.489  -1.019  0.00  0.00     0.273 C 
ATOM     33  O   UNL d   1      22.475 -19.686  -1.295  0.00  0.00    -0.266 OA
ATOM     34  N   UNL d   1      21.130 -17.858  -0.897  0.00  0.00    -0.289 N 
ATOM     35  H   UNL d   1      21.083 -16.887  -0.588  0.00  0.00     0.183 HD
BRANCH  34  36
ATOM     36  N   UNL d   1      19.905 -18.575  -0.959  0.00  0.00    -0.247 NA
ATOM     37  H   UNL d   1      20.065 -19.416  -1.524  0.00  0.00     0.143 HD
ATOM     38  H   UNL d   1      19.217 -18.025  -1.484  0.00  0.00     0.143 HD
ENDBRANCH  34  36
ENDBRANCH   3  32
TORSDOF 8
ENDMDL
MODEL 8
REMARK VINA RESULT:   -27.223      2.707      5.214
REMARK INTER + INTRA:         -32.374
REMARK INTER:                 -29.610
REMARK INTRA:                  -2.764
REMARK CONF_INDEPENDENT:        2.386
REMARK UNBOUND:                -2.764
REMARK  8 active torsions:
REMARK  status: ('A' for Active; 'I' for Inactive)
REMARK    1  A    between atoms: C_3  and  C_4 
REMARK       I    between atoms: C_4  and  N_6 
REMARK    2  A    between atoms: N_6  and  N_7 
REMARK    3  A    between atoms: N_13  and  C_14 
REMARK    4  A    between atoms: C_14  and  C_15 
REMARK    5  A    between atoms: N_23  and  C_24 
REMARK    6  A    between atoms: C_24  and  C_25 
REMARK       I    between atoms: C_25  and  N_27 
REMARK    7  A    between atoms: N_27  and  C_28 
REMARK    8  A    between atoms: C_28  and  C_29 
ROOT
ATOM      1  C   UNL d   1      22.208 -15.200  -1.645  0.00  0.00     0.051 C 
ATOM      2  C   UNL d   1      23.386 -16.072  -1.236  0.00  0.00    -0.021 A 
ATOM      3  C   UNL d   1      23.286 -17.371  -0.651  0.00  0.00     0.083 A 
ATOM      4  S   UNL d   1      24.843 -18.014  -0.363  0.00  0.00    -0.065 SA
ATOM      5  C   UNL d   1      25.638 -16.695  -0.987  0.00  0.00     0.098 A 
ATOM      6  C   UNL d   1      24.836 -15.672  -1.419  0.00  0.00     0.074 A 
ATOM      7  C   UNL d   1      25.557 -14.470  -1.959  0.00  0.00     0.265 C 
ATOM      8  O   UNL d   1      24.958 -13.474  -2.358  0.00  0.00    -0.267 OA
ATOM      9  N   UNL d   1      26.980 -14.556  -1.929  0.00  0.00    -0.261 N 
ATOM     10  C   UNL d   1      27.586 -15.458  -1.083  0.00  0.00     0.333 C 
ATOM     11  O   UNL d   1      28.568 -15.151  -0.398  0.00  0.00    -0.246 OA
ATOM     12  N   UNL d   1      27.021 -16.707  -0.951  0.00  0.00    -0.283 N 
ENDROOT
BRANCH  12  13
ATOM     13  C   UNL d   1      27.821 -17.798  -0.349  0.00  0.00     0.237 C 
BRANCH  13  14
ATOM     14  C   UNL d   1      29.217 -18.105  -0.926  0.00  0.00     0.236 C 
ATOM     15  O   UNL d   1      29.995 -18.956  -0.520  0.00  0.00    -0.272 OA
ATOM     16  N   UNL d   1      29.656 -17.306  -1.939  0.00  0.00    -0.355 N 
ATOM     17  H   UNL d   1      29.171 -16.448  -2.147  0.00  0.00     0.162 HD
BRANCH  16  18
ATOM     18  C   UNL d   1      30.946 -17.659  -2.502  0.00  0.00     0.161 C 
BRANCH  18  19
ATOM     19  C   UNL d   1      30.916 -18.028  -3.947  0.00  0.00    -0.041 A 
ATOM     20  C   UNL d   1      30.447 -17.090  -4.877  0.00  0.00     0.009 A 
ATOM     21  C   UNL d   1      30.413 -17.419  -6.229  0.00  0.00     0.001 A 
ATOM     22  C   UNL d   1      30.846 -18.677  -6.652  0.00  0.00     0.000 A 
ATOM     23  C   UNL d   1      31.307 -19.609  -5.734  0.00  0.00     0.001 A 
ATOM     24  C   UNL d   1      31.336 -19.285  -4.392  0.00  0.00     0.009 A 
ENDBRANCH  18  19
ENDBRANCH  16  18
ENDBRANCH  13  14
ENDBRANCH  12  13
BRANCH   9  25
ATOM     25  C   UNL d   1      27.840 -13.409  -2.372  0.00  0.00     0.175 C 
BRANCH  25  26
ATOM     26  C   UNL d   1      28.191 -13.302  -3.882  0.00  0.00    -0.040 A 
ATOM     27  C   UNL d   1      28.809 -14.377  -4.562  0.00  0.00     0.009 A 
ATOM     28  C   UNL d   1      28.919 -14.391  -5.966  0.00  0.00     0.001 A 
ATOM     29  C   UNL d   1      28.406 -13.341  -6.721  0.00  0.00     0.000 A 
ATOM     30  C   UNL d   1      27.814 -12.262  -6.072  0.00  0.00     0.001 A 
ATOM     31  C   UNL d   1      27.728 -12.228  -4.667  0.00  0.00     0.009 A 
ENDBRANCH  25  26
ENDBRANCH   9  25
BRANCH   3  32
ATOM     32  C   UNL d   1      22.176 -18.288  -0.248  0.00  0.00     0.273 C 
ATOM     33  O   UNL d   1      22.153 -18.939   0.797  0.00  0.00    -0.266 OA
ATOM     34  N   UNL d   1      21.090 -18.390  -1.173  0.00  0.00    -0.289 N 
ATOM     35  H   UNL d   1      21.080 -17.786  -1.995  0.00  0.00     0.183 HD
BRANCH  34  36
ATOM     36  N   UNL d   1      19.905 -19.122  -0.896  0.00  0.00    -0.247 NA
ATOM     37  H   UNL d   1      19.116 -18.468  -0.946  0.00  0.00     0.143 HD
ATOM     38  H   UNL d   1      19.925 -19.444   0.078  0.00  0.00     0.143 HD
ENDBRANCH  34  36
ENDBRANCH   3  32
TORSDOF 8
ENDMDL
MODEL 9
REMARK VINA RESULT:   -27.188      3.071      3.869
REMARK INTER + INTRA:         -32.748
REMARK INTER:                 -29.575
REMARK INTRA:                  -3.174
REMARK CONF_INDEPENDENT:        2.386
REMARK UNBOUND:                -3.174
REMARK  8 active torsions:
REMARK  status: ('A' for Active; 'I' for Inactive)
REMARK    1  A    between atoms: C_3  and  C_4 
REMARK       I    between atoms: C_4  and  N_6 
REMARK    2  A    between atoms: N_6  and  N_7 
REMARK    3  A    between atoms: N_13  and  C_14 
REMARK    4  A    between atoms: C_14  and  C_15 
REMARK    5  A    between atoms: N_23  and  C_24 
REMARK    6  A    between atoms: C_24  and  C_25 
REMARK       I    between atoms: C_25  and  N_27 
REMARK    7  A    between atoms: N_27  and  C_28 
REMARK    8  A    between atoms: C_28  and  C_29 
ROOT
ATOM      1  C   UNL d   1      25.398 -18.948   0.257  0.00  0.00     0.051 C 
ATOM      2  C   UNL d   1      24.886 -17.737  -0.510  0.00  0.00    -0.021 A 
ATOM      3  C   UNL d   1      23.513 -17.363  -0.637  0.00  0.00     0.083 A 
ATOM      4  S   UNL d   1      23.370 -15.933  -1.562  0.00  0.00    -0.065 SA
ATOM      5  C   UNL d   1      25.008 -15.765  -1.781  0.00  0.00     0.098 A 
ATOM      6  C   UNL d   1      25.783 -16.753  -1.232  0.00  0.00     0.074 A 
ATOM      7  C   UNL d   1      27.262 -16.613  -1.454  0.00  0.00     0.265 C 
ATOM      8  O   UNL d   1      28.066 -17.443  -1.034  0.00  0.00    -0.267 OA
ATOM      9  N   UNL d   1      27.652 -15.479  -2.223  0.00  0.00    -0.261 N 
ATOM     10  C   UNL d   1      26.725 -14.857  -3.031  0.00  0.00     0.333 C 
ATOM     11  O   UNL d   1      26.997 -14.507  -4.185  0.00  0.00    -0.246 OA
ATOM     12  N   UNL d   1      25.444 -14.701  -2.552  0.00  0.00    -0.283 N 
ENDROOT
BRANCH  12  13
ATOM     13  C   UNL d   1      24.537 -13.743  -3.222  0.00  0.00     0.237 C 
BRANCH  13  14
ATOM     14  C   UNL d   1      25.133 -12.472  -3.860  0.00  0.00     0.236 C 
ATOM     15  O   UNL d   1      25.414 -11.436  -3.276  0.00  0.00    -0.272 OA
ATOM     16  N   UNL d   1      25.297 -12.480  -5.212  0.00  0.00    -0.355 N 
ATOM     17  H   UNL d   1      24.862 -13.199  -5.767  0.00  0.00     0.162 HD
BRANCH  16  18
ATOM     18  C   UNL d   1      25.918 -11.295  -5.774  0.00  0.00     0.161 C 
BRANCH  18  19
ATOM     19  C   UNL d   1      27.347 -11.465  -6.165  0.00  0.00    -0.041 A 
ATOM     20  C   UNL d   1      27.851 -12.760  -6.351  0.00  0.00     0.009 A 
ATOM     21  C   UNL d   1      29.182 -12.935  -6.716  0.00  0.00     0.001 A 
ATOM     22  C   UNL d   1      30.008 -11.825  -6.896  0.00  0.00     0.000 A 
ATOM     23  C   UNL d   1      29.516 -10.542  -6.709  0.00  0.00     0.001 A 
ATOM     24  C   UNL d   1      28.195 -10.368  -6.342  0.00  0.00     0.009 A 
ENDBRANCH  18  19
ENDBRANCH  16  18
ENDBRANCH  13  14
ENDBRANCH  12  13
BRANCH   9  25
ATOM     25  C   UNL d   1      29.088 -15.238  -2.586  0.00  0.00     0.175 C 
BRANCH  25  26
ATOM     26  C   UNL d   1      29.578 -13.766  -2.685  0.00  0.00    -0.040 A 
ATOM     27  C   UNL d   1      30.837 -13.456  -3.247  0.00  0.00     0.009 A 
ATOM     28  C   UNL d   1      31.196 -12.131  -3.559  0.00  0.00     0.001 A 
ATOM     29  C   UNL d   1      30.304 -11.090  -3.327  0.00  0.00     0.000 A 
ATOM     30  C   UNL d   1      29.066 -11.368  -2.755  0.00  0.00     0.001 A 
ATOM     31  C   UNL d   1      28.714 -12.687  -2.412  0.00  0.00     0.009 A 
ENDBRANCH  25  26
ENDBRANCH   9  25
BRANCH   3  32
ATOM     32  C   UNL d   1      22.202 -17.900  -0.160  0.00  0.00     0.273 C 
ATOM     33  O   UNL d   1      21.922 -18.115   1.019  0.00  0.00    -0.266 OA
ATOM     34  N   UNL d   1      21.238 -18.175  -1.181  0.00  0.00    -0.289 N 
ATOM     35  H   UNL d   1      21.448 -17.917  -2.145  0.00  0.00     0.183 HD
BRANCH  34  36
ATOM     36  N   UNL d   1      19.905 -18.577  -0.897  0.00  0.00    -0.247 NA
ATOM     37  H   UNL d   1      19.275 -17.876  -1.304  0.00  0.00     0.143 HD
ATOM     38  H   UNL d   1      19.745 -18.528   0.115  0.00  0.00     0.143 HD
ENDBRANCH  34  36
ENDBRANCH   3  32
TORSDOF 8
ENDMDL
