MODEL 1
REMARK VINA RESULT:    -7.346      0.000      0.000
REMARK INTER + INTRA:          -8.851
REMARK INTER:                  -8.240
REMARK INTRA:                  -0.611
REMARK CONF_INDEPENDENT:        0.895
REMARK UNBOUND:                -0.611
REMARK  3 active torsions:
REMARK  status: ('A' for Active; 'I' for Inactive)
REMARK    1  A    between atoms: C_6  and  C_7 
REMARK       I    between atoms: C_7  and  N_9 
REMARK    2  A    between atoms: N_9  and  N_10 
REMARK       I    between atoms: N_10  and  C_11 
REMARK    3  A    between atoms: C_11  and  C_13 
ROOT
ATOM      1  N   UNL d   1      28.073 -15.150  -3.991  0.00  0.00    -0.263 N 
ATOM      2  C   UNL d   1      27.420 -14.578  -5.089  0.00  0.00     0.270 C 
ATOM      3  O   UNL d   1      27.331 -15.200  -6.144  0.00  0.00    -0.266 OA
ATOM      4  H   UNL d   1      28.680 -15.934  -4.224  0.00  0.00     0.190 HD
ENDROOT
BRANCH   1   5
ATOM      5  N   UNL d   1      27.355 -15.399  -2.757  0.00  0.00    -0.263 N 
ATOM      6  C   UNL d   1      26.038 -15.880  -2.876  0.00  0.00     0.270 C 
ATOM      7  O   UNL d   1      25.370 -15.685  -3.882  0.00  0.00    -0.266 OA
ATOM      8  H   UNL d   1      27.931 -15.617  -1.953  0.00  0.00     0.190 HD
BRANCH   6   9
ATOM      9  C   UNL d   1      25.452 -16.685  -1.729  0.00  0.00     0.034 A 
ATOM     10  C   UNL d   1      26.295 -17.052  -0.665  0.00  0.00     0.017 A 
ATOM     11  C   UNL d   1      25.819 -17.826   0.404  0.00  0.00     0.002 A 
ATOM     12  C   UNL d   1      24.482 -18.214   0.451  0.00  0.00     0.007 A 
ATOM     13  C   UNL d   1      23.608 -17.816  -0.562  0.00  0.00    -0.061 A 
ATOM     14  C   UNL d   1      22.154 -18.192  -0.512  0.00  0.00     0.048 C 
ATOM     15  C   UNL d   1      24.099 -17.057  -1.645  0.00  0.00     0.024 A 
ENDBRANCH   6   9
ENDBRANCH   1   5
BRANCH   2  16
ATOM     16  C   UNL d   1      26.950 -13.135  -5.025  0.00  0.00     0.039 A 
ATOM     17  C   UNL d   1      26.050 -12.772  -3.994  0.00  0.00     0.018 A 
ATOM     18  C   UNL d   1      25.530 -11.465  -3.899  0.00  0.00     0.008 A 
ATOM     19  C   UNL d   1      25.911 -10.490  -4.817  0.00  0.00    -0.061 A 
ATOM     20  C   UNL d   1      25.394  -9.085  -4.785  0.00  0.00     0.048 C 
ATOM     21  C   UNL d   1      26.790 -10.841  -5.835  0.00  0.00     0.014 A 
ATOM     22  C   UNL d   1      27.268 -12.151  -5.982  0.00  0.00    -0.046 A 
ATOM     23  C   UNL d   1      28.108 -12.372  -7.192  0.00  0.00     0.049 C 
ENDBRANCH   2  16
TORSDOF 3
ENDMDL
MODEL 2
REMARK VINA RESULT:    -7.004      1.998      3.375
REMARK INTER + INTRA:          -8.929
REMARK INTER:                  -7.899
REMARK INTRA:                  -1.030
REMARK CONF_INDEPENDENT:        0.895
REMARK UNBOUND:                -1.030
REMARK  3 active torsions:
REMARK  status: ('A' for Active; 'I' for Inactive)
REMARK    1  A    between atoms: C_6  and  C_7 
REMARK       I    between atoms: C_7  and  N_9 
REMARK    2  A    between atoms: N_9  and  N_10 
REMARK       I    between atoms: N_10  and  C_11 
REMARK    3  A    between atoms: C_11  and  C_13 
ROOT
ATOM      1  N   UNL d   1      25.391 -12.481  -4.223  0.00  0.00    -0.263 N 
ATOM      2  C   UNL d   1      26.730 -12.194  -4.506  0.00  0.00     0.270 C 
ATOM      3  O   UNL d   1      27.152 -11.047  -4.385  0.00  0.00    -0.266 OA
ATOM      4  H   UNL d   1      24.780 -11.666  -4.206  0.00  0.00     0.190 HD
ENDROOT
BRANCH   1   5
ATOM      5  N   UNL d   1      25.045 -13.410  -3.166  0.00  0.00    -0.263 N 
ATOM      6  C   UNL d   1      25.185 -14.780  -3.457  0.00  0.00     0.270 C 
ATOM      7  O   UNL d   1      25.155 -15.201  -4.605  0.00  0.00    -0.266 OA
ATOM      8  H   UNL d   1      25.137 -13.054  -2.223  0.00  0.00     0.190 HD
BRANCH   6   9
ATOM      9  C   UNL d   1      25.409 -15.748  -2.307  0.00  0.00     0.034 A 
ATOM     10  C   UNL d   1      26.683 -15.805  -1.715  0.00  0.00     0.017 A 
ATOM     11  C   UNL d   1      26.960 -16.704  -0.674  0.00  0.00     0.002 A 
ATOM     12  C   UNL d   1      25.957 -17.534  -0.177  0.00  0.00     0.007 A 
ATOM     13  C   UNL d   1      24.668 -17.458  -0.706  0.00  0.00    -0.061 A 
ATOM     14  C   UNL d   1      23.563 -18.318  -0.159  0.00  0.00     0.048 C 
ATOM     15  C   UNL d   1      24.404 -16.568  -1.768  0.00  0.00     0.024 A 
ENDBRANCH   6   9
ENDBRANCH   1   5
BRANCH   2  16
ATOM     16  C   UNL d   1      27.628 -13.266  -5.101  0.00  0.00     0.039 A 
ATOM     17  C   UNL d   1      28.107 -14.286  -4.244  0.00  0.00     0.018 A 
ATOM     18  C   UNL d   1      28.983 -15.286  -4.710  0.00  0.00     0.008 A 
ATOM     19  C   UNL d   1      29.384 -15.301  -6.045  0.00  0.00    -0.061 A 
ATOM     20  C   UNL d   1      30.319 -16.326  -6.609  0.00  0.00     0.048 C 
ATOM     21  C   UNL d   1      28.922 -14.300  -6.890  0.00  0.00     0.014 A 
ATOM     22  C   UNL d   1      28.100 -13.262  -6.428  0.00  0.00    -0.046 A 
ATOM     23  C   UNL d   1      27.794 -12.215  -7.444  0.00  0.00     0.049 C 
ENDBRANCH   2  16
TORSDOF 3
ENDMDL
MODEL 3
REMARK VINA RESULT:    -6.815      4.482      7.461
REMARK INTER + INTRA:          -8.883
REMARK INTER:                  -7.710
REMARK INTRA:                  -1.173
REMARK CONF_INDEPENDENT:        0.895
REMARK UNBOUND:                -1.173
REMARK  3 active torsions:
REMARK  status: ('A' for Active; 'I' for Inactive)
REMARK    1  A    between atoms: C_6  and  C_7 
REMARK       I    between atoms: C_7  and  N_9 
REMARK    2  A    between atoms: N_9  and  N_10 
REMARK       I    between atoms: N_10  and  C_11 
REMARK    3  A    between atoms: C_11  and  C_13 
ROOT
ATOM      1  N   UNL d   1      26.816 -14.613  -0.397  0.00  0.00    -0.263 N 
ATOM      2  C   UNL d   1      26.492 -15.706  -1.206  0.00  0.00     0.270 C 
ATOM      3  O   UNL d   1      27.082 -15.881  -2.268  0.00  0.00    -0.266 OA
ATOM      4  H   UNL d   1      27.325 -13.871  -0.874  0.00  0.00     0.190 HD
ENDROOT
BRANCH   1   5
ATOM      5  N   UNL d   1      27.331 -14.815   0.943  0.00  0.00    -0.263 N 
ATOM      6  C   UNL d   1      28.026 -13.738   1.523  0.00  0.00     0.270 C 
ATOM      7  O   UNL d   1      28.563 -12.876   0.842  0.00  0.00    -0.266 OA
ATOM      8  H   UNL d   1      26.831 -15.492   1.506  0.00  0.00     0.190 HD
BRANCH   6   9
ATOM      9  C   UNL d   1      28.079 -13.640   3.039  0.00  0.00     0.034 A 
ATOM     10  C   UNL d   1      28.154 -14.828   3.787  0.00  0.00     0.017 A 
ATOM     11  C   UNL d   1      28.170 -14.801   5.190  0.00  0.00     0.002 A 
ATOM     12  C   UNL d   1      28.152 -13.586   5.871  0.00  0.00     0.007 A 
ATOM     13  C   UNL d   1      28.136 -12.388   5.153  0.00  0.00    -0.061 A 
ATOM     14  C   UNL d   1      28.155 -11.067   5.866  0.00  0.00     0.048 C 
ATOM     15  C   UNL d   1      28.098 -12.424   3.743  0.00  0.00     0.024 A 
ENDBRANCH   6   9
ENDBRANCH   1   5
BRANCH   2  16
ATOM     16  C   UNL d   1      25.314 -16.596  -0.845  0.00  0.00     0.039 A 
ATOM     17  C   UNL d   1      24.020 -16.184  -1.245  0.00  0.00     0.018 A 
ATOM     18  C   UNL d   1      22.874 -16.930  -0.905  0.00  0.00     0.008 A 
ATOM     19  C   UNL d   1      22.995 -18.111  -0.177  0.00  0.00    -0.061 A 
ATOM     20  C   UNL d   1      21.824 -18.950   0.228  0.00  0.00     0.048 C 
ATOM     21  C   UNL d   1      24.262 -18.518   0.223  0.00  0.00     0.014 A 
ATOM     22  C   UNL d   1      25.407 -17.756  -0.052  0.00  0.00    -0.046 A 
ATOM     23  C   UNL d   1      26.663 -18.286   0.549  0.00  0.00     0.049 C 
ENDBRANCH   2  16
TORSDOF 3
ENDMDL
MODEL 4
REMARK VINA RESULT:    -6.803      2.087      3.657
REMARK INTER + INTRA:          -8.932
REMARK INTER:                  -7.698
REMARK INTRA:                  -1.234
REMARK CONF_INDEPENDENT:        0.895
REMARK UNBOUND:                -1.234
REMARK  3 active torsions:
REMARK  status: ('A' for Active; 'I' for Inactive)
REMARK    1  A    between atoms: C_6  and  C_7 
REMARK       I    between atoms: C_7  and  N_9 
REMARK    2  A    between atoms: N_9  and  N_10 
REMARK       I    between atoms: N_10  and  C_11 
REMARK    3  A    between atoms: C_11  and  C_13 
ROOT
ATOM      1  N   UNL d   1      25.392 -12.753  -4.066  0.00  0.00    -0.263 N 
ATOM      2  C   UNL d   1      26.757 -12.453  -4.126  0.00  0.00     0.270 C 
ATOM      3  O   UNL d   1      27.147 -11.313  -3.892  0.00  0.00    -0.266 OA
ATOM      4  H   UNL d   1      24.780 -11.940  -4.110  0.00  0.00     0.190 HD
ENDROOT
BRANCH   1   5
ATOM      5  N   UNL d   1      24.894 -13.728  -3.116  0.00  0.00    -0.263 N 
ATOM      6  C   UNL d   1      25.232 -15.073  -3.353  0.00  0.00     0.270 C 
ATOM      7  O   UNL d   1      25.521 -15.478  -4.471  0.00  0.00    -0.266 OA
ATOM      8  H   UNL d   1      24.720 -13.379  -2.182  0.00  0.00     0.190 HD
BRANCH   6   9
ATOM      9  C   UNL d   1      25.265 -16.032  -2.176  0.00  0.00     0.034 A 
ATOM     10  C   UNL d   1      26.498 -16.283  -1.548  0.00  0.00     0.017 A 
ATOM     11  C   UNL d   1      26.597 -17.187  -0.479  0.00  0.00     0.002 A 
ATOM     12  C   UNL d   1      25.459 -17.825   0.010  0.00  0.00     0.007 A 
ATOM     13  C   UNL d   1      24.213 -17.551  -0.556  0.00  0.00    -0.061 A 
ATOM     14  C   UNL d   1      22.968 -18.200  -0.020  0.00  0.00     0.048 C 
ATOM     15  C   UNL d   1      24.125 -16.660  -1.645  0.00  0.00     0.024 A 
ENDBRANCH   6   9
ENDBRANCH   1   5
BRANCH   2  16
ATOM     16  C   UNL d   1      27.744 -13.498  -4.620  0.00  0.00     0.039 A 
ATOM     17  C   UNL d   1      27.727 -13.833  -5.995  0.00  0.00     0.018 A 
ATOM     18  C   UNL d   1      28.577 -14.827  -6.520  0.00  0.00     0.008 A 
ATOM     19  C   UNL d   1      29.474 -15.494  -5.688  0.00  0.00    -0.061 A 
ATOM     20  C   UNL d   1      30.400 -16.566  -6.171  0.00  0.00     0.048 C 
ATOM     21  C   UNL d   1      29.491 -15.174  -4.336  0.00  0.00     0.014 A 
ATOM     22  C   UNL d   1      28.609 -14.232  -3.786  0.00  0.00    -0.046 A 
ATOM     23  C   UNL d   1      28.691 -14.098  -2.304  0.00  0.00     0.049 C 
ENDBRANCH   2  16
TORSDOF 3
ENDMDL
MODEL 5
REMARK VINA RESULT:    -6.684      4.515      7.083
REMARK INTER + INTRA:          -8.486
REMARK INTER:                  -7.579
REMARK INTRA:                  -0.908
REMARK CONF_INDEPENDENT:        0.895
REMARK UNBOUND:                -0.908
REMARK  3 active torsions:
REMARK  status: ('A' for Active; 'I' for Inactive)
REMARK    1  A    between atoms: C_6  and  C_7 
REMARK       I    between atoms: C_7  and  N_9 
REMARK    2  A    between atoms: N_9  and  N_10 
REMARK       I    between atoms: N_10  and  C_11 
REMARK    3  A    between atoms: C_11  and  C_13 
ROOT
ATOM      1  N   UNL d   1      28.840 -15.400  -0.457  0.00  0.00    -0.263 N 
ATOM      2  C   UNL d   1      28.261 -16.474  -1.140  0.00  0.00     0.270 C 
ATOM      3  O   UNL d   1      28.902 -17.075  -1.998  0.00  0.00    -0.266 OA
ATOM      4  H   UNL d   1      29.660 -15.003  -0.914  0.00  0.00     0.190 HD
ENDROOT
BRANCH   1   5
ATOM      5  N   UNL d   1      29.022 -15.453   0.980  0.00  0.00    -0.263 N 
ATOM      6  C   UNL d   1      29.182 -14.223   1.644  0.00  0.00     0.270 C 
ATOM      7  O   UNL d   1      29.592 -13.227   1.065  0.00  0.00    -0.266 OA
ATOM      8  H   UNL d   1      28.620 -16.260   1.442  0.00  0.00     0.190 HD
BRANCH   6   9
ATOM      9  C   UNL d   1      28.803 -14.135   3.113  0.00  0.00     0.034 A 
ATOM     10  C   UNL d   1      27.440 -14.075   3.453  0.00  0.00     0.017 A 
ATOM     11  C   UNL d   1      27.030 -13.957   4.790  0.00  0.00     0.002 A 
ATOM     12  C   UNL d   1      27.974 -13.938   5.815  0.00  0.00     0.007 A 
ATOM     13  C   UNL d   1      29.331 -14.055   5.511  0.00  0.00    -0.061 A 
ATOM     14  C   UNL d   1      30.362 -14.075   6.604  0.00  0.00     0.048 C 
ATOM     15  C   UNL d   1      29.736 -14.150   4.164  0.00  0.00     0.024 A 
ENDBRANCH   6   9
ENDBRANCH   1   5
BRANCH   2  16
ATOM     16  C   UNL d   1      26.794 -16.807  -0.928  0.00  0.00     0.039 A 
ATOM     17  C   UNL d   1      26.467 -17.801   0.027  0.00  0.00     0.018 A 
ATOM     18  C   UNL d   1      25.133 -18.200   0.245  0.00  0.00     0.008 A 
ATOM     19  C   UNL d   1      24.097 -17.604  -0.470  0.00  0.00    -0.061 A 
ATOM     20  C   UNL d   1      22.658 -17.983  -0.300  0.00  0.00     0.048 C 
ATOM     21  C   UNL d   1      24.411 -16.633  -1.413  0.00  0.00     0.014 A 
ATOM     22  C   UNL d   1      25.738 -16.268  -1.687  0.00  0.00    -0.046 A 
ATOM     23  C   UNL d   1      25.894 -15.295  -2.804  0.00  0.00     0.049 C 
ENDBRANCH   2  16
TORSDOF 3
ENDMDL
MODEL 6
REMARK VINA RESULT:    -6.655      2.518      4.162
REMARK INTER + INTRA:          -8.600
REMARK INTER:                  -7.550
REMARK INTRA:                  -1.050
REMARK CONF_INDEPENDENT:        0.895
REMARK UNBOUND:                -1.050
REMARK  3 active torsions:
REMARK  status: ('A' for Active; 'I' for Inactive)
REMARK    1  A    between atoms: C_6  and  C_7 
REMARK       I    between atoms: C_7  and  N_9 
REMARK    2  A    between atoms: N_9  and  N_10 
REMARK       I    between atoms: N_10  and  C_11 
REMARK    3  A    between atoms: C_11  and  C_13 
ROOT
ATOM      1  N   UNL d   1      26.670 -14.968  -5.182  0.00  0.00    -0.263 N 
ATOM      2  C   UNL d   1      27.775 -14.314  -5.737  0.00  0.00     0.270 C 
ATOM      3  O   UNL d   1      27.679 -13.144  -6.098  0.00  0.00    -0.266 OA
ATOM      4  H   UNL d   1      25.776 -14.520  -5.373  0.00  0.00     0.190 HD
ENDROOT
BRANCH   1   5
ATOM      5  N   UNL d   1      26.720 -15.471  -3.824  0.00  0.00    -0.263 N 
ATOM      6  C   UNL d   1      25.530 -15.394  -3.077  0.00  0.00     0.270 C 
ATOM      7  O   UNL d   1      24.654 -14.581  -3.341  0.00  0.00    -0.266 OA
ATOM      8  H   UNL d   1      27.414 -16.187  -3.647  0.00  0.00     0.190 HD
BRANCH   6   9
ATOM      9  C   UNL d   1      25.325 -16.371  -1.932  0.00  0.00     0.034 A 
ATOM     10  C   UNL d   1      26.410 -16.645  -1.080  0.00  0.00     0.017 A 
ATOM     11  C   UNL d   1      26.292 -17.566  -0.028  0.00  0.00     0.002 A 
ATOM     12  C   UNL d   1      25.076 -18.200   0.218  0.00  0.00     0.007 A 
ATOM     13  C   UNL d   1      23.966 -17.905  -0.576  0.00  0.00    -0.061 A 
ATOM     14  C   UNL d   1      22.636 -18.549  -0.304  0.00  0.00     0.048 C 
ATOM     15  C   UNL d   1      24.099 -16.995  -1.645  0.00  0.00     0.024 A 
ENDBRANCH   6   9
ENDBRANCH   1   5
BRANCH   2  16
ATOM     16  C   UNL d   1      29.049 -15.088  -6.029  0.00  0.00     0.039 A 
ATOM     17  C   UNL d   1      29.281 -16.286  -5.310  0.00  0.00     0.018 A 
ATOM     18  C   UNL d   1      30.462 -17.033  -5.488  0.00  0.00     0.008 A 
ATOM     19  C   UNL d   1      31.428 -16.612  -6.400  0.00  0.00    -0.061 A 
ATOM     20  C   UNL d   1      32.711 -17.348  -6.635  0.00  0.00     0.048 C 
ATOM     21  C   UNL d   1      31.210 -15.434  -7.103  0.00  0.00     0.014 A 
ATOM     22  C   UNL d   1      30.069 -14.645  -6.893  0.00  0.00    -0.046 A 
ATOM     23  C   UNL d   1      30.055 -13.362  -7.650  0.00  0.00     0.049 C 
ENDBRANCH   2  16
TORSDOF 3
ENDMDL
MODEL 7
REMARK VINA RESULT:    -6.540      4.742      7.384
REMARK INTER + INTRA:          -8.555
REMARK INTER:                  -7.435
REMARK INTRA:                  -1.120
REMARK CONF_INDEPENDENT:        0.895
REMARK UNBOUND:                -1.120
REMARK  3 active torsions:
REMARK  status: ('A' for Active; 'I' for Inactive)
REMARK    1  A    between atoms: C_6  and  C_7 
REMARK       I    between atoms: C_7  and  N_9 
REMARK    2  A    between atoms: N_9  and  N_10 
REMARK       I    between atoms: N_10  and  C_11 
REMARK    3  A    between atoms: C_11  and  C_13 
ROOT
ATOM      1  N   UNL d   1      27.835 -15.294  -0.036  0.00  0.00    -0.263 N 
ATOM      2  C   UNL d   1      27.441 -16.453  -0.714  0.00  0.00     0.270 C 
ATOM      3  O   UNL d   1      28.231 -17.027  -1.459  0.00  0.00    -0.266 OA
ATOM      4  H   UNL d   1      28.661 -14.840  -0.422  0.00  0.00     0.190 HD
ENDROOT
BRANCH   1   5
ATOM      5  N   UNL d   1      27.853 -15.261   1.413  0.00  0.00    -0.263 N 
ATOM      6  C   UNL d   1      28.833 -14.450   2.015  0.00  0.00     0.270 C 
ATOM      7  O   UNL d   1      29.869 -14.153   1.435  0.00  0.00    -0.266 OA
ATOM      8  H   UNL d   1      26.968 -15.452   1.866  0.00  0.00     0.190 HD
BRANCH   6   9
ATOM      9  C   UNL d   1      28.574 -13.912   3.412  0.00  0.00     0.034 A 
ATOM     10  C   UNL d   1      28.455 -14.826   4.473  0.00  0.00     0.017 A 
ATOM     11  C   UNL d   1      28.179 -14.390   5.778  0.00  0.00     0.002 A 
ATOM     12  C   UNL d   1      28.059 -13.030   6.055  0.00  0.00     0.007 A 
ATOM     13  C   UNL d   1      28.229 -12.096   5.031  0.00  0.00    -0.061 A 
ATOM     14  C   UNL d   1      28.140 -10.623   5.315  0.00  0.00     0.048 C 
ATOM     15  C   UNL d   1      28.483 -12.543   3.718  0.00  0.00     0.024 A 
ENDBRANCH   6   9
ENDBRANCH   1   5
BRANCH   2  16
ATOM     16  C   UNL d   1      25.997 -16.920  -0.646  0.00  0.00     0.039 A 
ATOM     17  C   UNL d   1      25.699 -18.048   0.156  0.00  0.00     0.018 A 
ATOM     18  C   UNL d   1      24.393 -18.572   0.230  0.00  0.00     0.008 A 
ATOM     19  C   UNL d   1      23.354 -17.970  -0.477  0.00  0.00    -0.061 A 
ATOM     20  C   UNL d   1      21.945 -18.475  -0.453  0.00  0.00     0.048 C 
ATOM     21  C   UNL d   1      23.641 -16.866  -1.270  0.00  0.00     0.014 A 
ATOM     22  C   UNL d   1      24.946 -16.370  -1.405  0.00  0.00    -0.046 A 
ATOM     23  C   UNL d   1      25.087 -15.255  -2.383  0.00  0.00     0.049 C 
ENDBRANCH   2  16
TORSDOF 3
ENDMDL
MODEL 8
REMARK VINA RESULT:    -6.303      3.904      7.339
REMARK INTER + INTRA:          -8.369
REMARK INTER:                  -7.198
REMARK INTRA:                  -1.171
REMARK CONF_INDEPENDENT:        0.895
REMARK UNBOUND:                -1.171
REMARK  3 active torsions:
REMARK  status: ('A' for Active; 'I' for Inactive)
REMARK    1  A    between atoms: C_6  and  C_7 
REMARK       I    between atoms: C_7  and  N_9 
REMARK    2  A    between atoms: N_9  and  N_10 
REMARK       I    between atoms: N_10  and  C_11 
REMARK    3  A    between atoms: C_11  and  C_13 
ROOT
ATOM      1  N   UNL d   1      28.551 -17.418  -0.339  0.00  0.00    -0.263 N 
ATOM      2  C   UNL d   1      27.492 -16.818   0.352  0.00  0.00     0.270 C 
ATOM      3  O   UNL d   1      27.716 -16.137   1.348  0.00  0.00    -0.266 OA
ATOM      4  H   UNL d   1      29.416 -17.485   0.194  0.00  0.00     0.190 HD
ENDROOT
BRANCH   1   5
ATOM      5  N   UNL d   1      28.817 -17.073  -1.721  0.00  0.00    -0.263 N 
ATOM      6  C   UNL d   1      30.094 -17.393  -2.218  0.00  0.00     0.270 C 
ATOM      7  O   UNL d   1      31.059 -17.525  -1.479  0.00  0.00    -0.266 OA
ATOM      8  H   UNL d   1      28.005 -17.030  -2.325  0.00  0.00     0.190 HD
BRANCH   6   9
ATOM      9  C   UNL d   1      30.258 -17.607  -3.714  0.00  0.00     0.034 A 
ATOM     10  C   UNL d   1      30.058 -16.514  -4.575  0.00  0.00     0.017 A 
ATOM     11  C   UNL d   1      30.161 -16.659  -5.967  0.00  0.00     0.002 A 
ATOM     12  C   UNL d   1      30.507 -17.890  -6.522  0.00  0.00     0.007 A 
ATOM     13  C   UNL d   1      30.768 -18.979  -5.688  0.00  0.00    -0.061 A 
ATOM     14  C   UNL d   1      31.178 -20.304  -6.264  0.00  0.00     0.048 C 
ATOM     15  C   UNL d   1      30.640 -18.830  -4.291  0.00  0.00     0.024 A 
ENDBRANCH   6   9
ENDBRANCH   1   5
BRANCH   2  16
ATOM     16  C   UNL d   1      26.057 -17.125  -0.042  0.00  0.00     0.039 A 
ATOM     17  C   UNL d   1      25.403 -18.200   0.607  0.00  0.00     0.018 A 
ATOM     18  C   UNL d   1      24.090 -18.578   0.261  0.00  0.00     0.008 A 
ATOM     19  C   UNL d   1      23.395 -17.880  -0.725  0.00  0.00    -0.061 A 
ATOM     20  C   UNL d   1      22.003 -18.228  -1.151  0.00  0.00     0.048 C 
ATOM     21  C   UNL d   1      24.034 -16.828  -1.369  0.00  0.00     0.014 A 
ATOM     22  C   UNL d   1      25.362 -16.478  -1.082  0.00  0.00    -0.046 A 
ATOM     23  C   UNL d   1      25.920 -15.402  -1.947  0.00  0.00     0.049 C 
ENDBRANCH   2  16
TORSDOF 3
ENDMDL
MODEL 9
REMARK VINA RESULT:    -6.206      1.995      2.850
REMARK INTER + INTRA:          -8.129
REMARK INTER:                  -7.101
REMARK INTRA:                  -1.028
REMARK CONF_INDEPENDENT:        0.895
REMARK UNBOUND:                -1.028
REMARK  3 active torsions:
REMARK  status: ('A' for Active; 'I' for Inactive)
REMARK    1  A    between atoms: C_6  and  C_7 
REMARK       I    between atoms: C_7  and  N_9 
REMARK    2  A    between atoms: N_9  and  N_10 
REMARK       I    between atoms: N_10  and  C_11 
REMARK    3  A    between atoms: C_11  and  C_13 
ROOT
ATOM      1  N   UNL d   1      26.432 -12.782  -4.574  0.00  0.00    -0.263 N 
ATOM      2  C   UNL d   1      25.905 -11.563  -5.011  0.00  0.00     0.270 C 
ATOM      3  O   UNL d   1      25.487 -11.450  -6.161  0.00  0.00    -0.266 OA
ATOM      4  H   UNL d   1      26.698 -13.419  -5.323  0.00  0.00     0.190 HD
ENDROOT
BRANCH   1   5
ATOM      5  N   UNL d   1      25.814 -13.500  -3.477  0.00  0.00    -0.263 N 
ATOM      6  C   UNL d   1      25.615 -14.881  -3.658  0.00  0.00     0.270 C 
ATOM      7  O   UNL d   1      25.531 -15.380  -4.771  0.00  0.00    -0.266 OA
ATOM      8  H   UNL d   1      25.951 -13.097  -2.559  0.00  0.00     0.190 HD
BRANCH   6   9
ATOM      9  C   UNL d   1      25.534 -15.770  -2.428  0.00  0.00     0.034 A 
ATOM     10  C   UNL d   1      26.730 -16.147  -1.791  0.00  0.00     0.017 A 
ATOM     11  C   UNL d   1      26.720 -16.996  -0.673  0.00  0.00     0.002 A 
ATOM     12  C   UNL d   1      25.513 -17.450  -0.146  0.00  0.00     0.007 A 
ATOM     13  C   UNL d   1      24.307 -17.046  -0.723  0.00  0.00    -0.061 A 
ATOM     14  C   UNL d   1      22.994 -17.494  -0.148  0.00  0.00     0.048 C 
ATOM     15  C   UNL d   1      24.327 -16.212  -1.860  0.00  0.00     0.024 A 
ENDBRANCH   6   9
ENDBRANCH   1   5
BRANCH   2  16
ATOM     16  C   UNL d   1      25.979 -10.338  -4.116  0.00  0.00     0.039 A 
ATOM     17  C   UNL d   1      26.609 -10.470  -2.855  0.00  0.00     0.018 A 
ATOM     18  C   UNL d   1      26.673  -9.394  -1.948  0.00  0.00     0.008 A 
ATOM     19  C   UNL d   1      26.128  -8.157  -2.287  0.00  0.00    -0.061 A 
ATOM     20  C   UNL d   1      26.150  -6.972  -1.373  0.00  0.00     0.048 C 
ATOM     21  C   UNL d   1      25.503  -8.022  -3.521  0.00  0.00     0.014 A 
ATOM     22  C   UNL d   1      25.375  -9.100  -4.410  0.00  0.00    -0.046 A 
ATOM     23  C   UNL d   1      24.579  -8.803  -5.633  0.00  0.00     0.049 C 
ENDBRANCH   2  16
TORSDOF 3
ENDMDL
