MODEL 1
REMARK VINA RESULT:    -7.231      0.000      0.000
REMARK INTER + INTRA:         -10.565
REMARK INTER:                  -9.617
REMARK INTRA:                  -0.948
REMARK CONF_INDEPENDENT:        2.386
REMARK UNBOUND:                -0.948
REMARK  8 active torsions:
REMARK  status: ('A' for Active; 'I' for Inactive)
REMARK    1  A    between atoms: C_2  and  C_4 
REMARK    2  A    between atoms: C_4  and  C_5 
REMARK    3  A    between atoms: C_5  and  N_6 
REMARK    4  A    between atoms: N_6  and  C_7 
REMARK    5  A    between atoms: C_7  and  N_9 
REMARK    6  A    between atoms: N_9  and  N_10 
REMARK       I    between atoms: N_10  and  C_11 
REMARK    7  A    between atoms: C_11  and  C_13 
REMARK    8  A    between atoms: C_16  and  N_17 
ROOT
ATOM      1  N   UNL d   1      26.259 -15.892   0.206  0.00  0.00    -0.264 N 
ATOM      2  C   UNL d   1      26.030 -17.213  -0.139  0.00  0.00     0.270 C 
ATOM      3  O   UNL d   1      26.923 -18.062  -0.194  0.00  0.00    -0.266 OA
ATOM      4  H   UNL d   1      25.510 -15.218   0.349  0.00  0.00     0.190 HD
ENDROOT
BRANCH   1   5
ATOM      5  N   UNL d   1      27.573 -15.425   0.549  0.00  0.00    -0.274 N 
ATOM      6  H   UNL d   1      28.343 -15.831   0.018  0.00  0.00     0.189 HD
BRANCH   5   7
ATOM      7  C   UNL d   1      27.730 -14.460   1.541  0.00  0.00     0.186 C 
ATOM      8  S   UNL d   1      26.777 -13.069   1.581  0.00  0.00    -0.040 SA
BRANCH   7   9
ATOM      9  N   UNL d   1      28.718 -14.744   2.482  0.00  0.00    -0.366 N 
ATOM     10  H   UNL d   1      29.420 -15.443   2.276  0.00  0.00     0.161 HD
BRANCH   9  11
ATOM     11  C   UNL d   1      28.852 -14.003   3.746  0.00  0.00     0.122 C 
BRANCH  11  12
ATOM     12  C   UNL d   1      27.647 -14.056   4.692  0.00  0.00     0.023 C 
BRANCH  12  13
ATOM     13  C   UNL d   1      27.944 -13.376   6.055  0.00  0.00    -0.021 C 
ATOM     14  C   UNL d   1      29.248 -13.912   6.652  0.00  0.00     0.009 C 
ATOM     15  C   UNL d   1      28.043 -11.853   5.930  0.00  0.00     0.009 C 
ENDBRANCH  12  13
ENDBRANCH  11  12
ENDBRANCH   9  11
ENDBRANCH   7   9
ENDBRANCH   5   7
ENDBRANCH   1   5
BRANCH   2  16
ATOM     16  C   UNL d   1      24.614 -17.607  -0.474  0.00  0.00     0.033 A 
ATOM     17  C   UNL d   1      23.640 -16.611  -0.683  0.00  0.00     0.019 A 
ATOM     18  C   UNL d   1      22.282 -16.945  -0.848  0.00  0.00     0.037 A 
ATOM     19  C   UNL d   1      21.898 -18.292  -0.869  0.00  0.00     0.102 A 
ATOM     20  C   UNL d   1      22.856 -19.294  -0.657  0.00  0.00     0.037 A 
ATOM     21  C   UNL d   1      24.207 -18.949  -0.459  0.00  0.00     0.019 A 
BRANCH  19  22
ATOM     22  N   UNL d   1      20.500 -18.657  -1.167  0.00  0.00    -0.116 N 
ATOM     23  O   UNL d   1      20.286 -19.781  -1.644  0.00  0.00    -0.532 OA
ATOM     24  O   UNL d   1      19.618 -17.829  -0.896  0.00  0.00    -0.532 OA
ENDBRANCH  19  22
ENDBRANCH   2  16
TORSDOF 8
ENDMDL
MODEL 2
REMARK VINA RESULT:    -7.102      0.754      1.162
REMARK INTER + INTRA:         -10.432
REMARK INTER:                  -9.488
REMARK INTRA:                  -0.944
REMARK CONF_INDEPENDENT:        2.386
REMARK UNBOUND:                -0.944
REMARK  8 active torsions:
REMARK  status: ('A' for Active; 'I' for Inactive)
REMARK    1  A    between atoms: C_2  and  C_4 
REMARK    2  A    between atoms: C_4  and  C_5 
REMARK    3  A    between atoms: C_5  and  N_6 
REMARK    4  A    between atoms: N_6  and  C_7 
REMARK    5  A    between atoms: C_7  and  N_9 
REMARK    6  A    between atoms: N_9  and  N_10 
REMARK       I    between atoms: N_10  and  C_11 
REMARK    7  A    between atoms: C_11  and  C_13 
REMARK    8  A    between atoms: C_16  and  N_17 
ROOT
ATOM      1  N   UNL d   1      26.319 -16.031   0.240  0.00  0.00    -0.264 N 
ATOM      2  C   UNL d   1      25.976 -17.372   0.213  0.00  0.00     0.270 C 
ATOM      3  O   UNL d   1      26.761 -18.276   0.508  0.00  0.00    -0.266 OA
ATOM      4  H   UNL d   1      25.645 -15.282   0.094  0.00  0.00     0.190 HD
ENDROOT
BRANCH   1   5
ATOM      5  N   UNL d   1      27.629 -15.601   0.643  0.00  0.00    -0.274 N 
ATOM      6  H   UNL d   1      28.405 -16.182   0.329  0.00  0.00     0.189 HD
BRANCH   5   7
ATOM      7  C   UNL d   1      27.776 -14.442   1.403  0.00  0.00     0.186 C 
ATOM      8  S   UNL d   1      26.705 -13.148   1.257  0.00  0.00    -0.040 SA
BRANCH   7   9
ATOM      9  N   UNL d   1      28.860 -14.451   2.279  0.00  0.00    -0.366 N 
ATOM     10  H   UNL d   1      29.265 -15.333   2.564  0.00  0.00     0.161 HD
BRANCH   9  11
ATOM     11  C   UNL d   1      29.516 -13.221   2.748  0.00  0.00     0.122 C 
BRANCH  11  12
ATOM     12  C   UNL d   1      29.568 -13.019   4.266  0.00  0.00     0.023 C 
BRANCH  12  13
ATOM     13  C   UNL d   1      28.931 -14.207   5.035  0.00  0.00    -0.021 C 
ATOM     14  C   UNL d   1      29.188 -14.077   6.538  0.00  0.00     0.009 C 
ATOM     15  C   UNL d   1      27.421 -14.307   4.795  0.00  0.00     0.009 C 
ENDBRANCH  12  13
ENDBRANCH  11  12
ENDBRANCH   9  11
ENDBRANCH   7   9
ENDBRANCH   5   7
ENDBRANCH   1   5
BRANCH   2  16
ATOM     16  C   UNL d   1      24.574 -17.720  -0.217  0.00  0.00     0.033 A 
ATOM     17  C   UNL d   1      23.648 -16.695  -0.488  0.00  0.00     0.019 A 
ATOM     18  C   UNL d   1      22.294 -16.986  -0.743  0.00  0.00     0.037 A 
ATOM     19  C   UNL d   1      21.870 -18.320  -0.794  0.00  0.00     0.102 A 
ATOM     20  C   UNL d   1      22.780 -19.352  -0.521  0.00  0.00     0.037 A 
ATOM     21  C   UNL d   1      24.126 -19.049  -0.233  0.00  0.00     0.019 A 
BRANCH  19  22
ATOM     22  N   UNL d   1      20.485 -18.641  -1.186  0.00  0.00    -0.116 N 
ATOM     23  O   UNL d   1      19.598 -17.826  -0.895  0.00  0.00    -0.532 OA
ATOM     24  O   UNL d   1      20.293 -19.695  -1.810  0.00  0.00    -0.532 OA
ENDBRANCH  19  22
ENDBRANCH   2  16
TORSDOF 8
ENDMDL
MODEL 3
REMARK VINA RESULT:    -6.751      4.033      5.270
REMARK INTER + INTRA:         -10.965
REMARK INTER:                  -9.138
REMARK INTRA:                  -1.827
REMARK CONF_INDEPENDENT:        2.386
REMARK UNBOUND:                -1.827
REMARK  8 active torsions:
REMARK  status: ('A' for Active; 'I' for Inactive)
REMARK    1  A    between atoms: C_2  and  C_4 
REMARK    2  A    between atoms: C_4  and  C_5 
REMARK    3  A    between atoms: C_5  and  N_6 
REMARK    4  A    between atoms: N_6  and  C_7 
REMARK    5  A    between atoms: C_7  and  N_9 
REMARK    6  A    between atoms: N_9  and  N_10 
REMARK       I    between atoms: N_10  and  C_11 
REMARK    7  A    between atoms: C_11  and  C_13 
REMARK    8  A    between atoms: C_16  and  N_17 
ROOT
ATOM      1  N   UNL d   1      27.042 -17.901  -0.342  0.00  0.00    -0.264 N 
ATOM      2  C   UNL d   1      26.063 -16.941  -0.154  0.00  0.00     0.270 C 
ATOM      3  O   UNL d   1      26.312 -15.774   0.159  0.00  0.00    -0.266 OA
ATOM      4  H   UNL d   1      26.844 -18.835  -0.697  0.00  0.00     0.190 HD
ENDROOT
BRANCH   1   5
ATOM      5  N   UNL d   1      28.437 -17.586  -0.205  0.00  0.00    -0.274 N 
ATOM      6  H   UNL d   1      28.882 -17.898   0.657  0.00  0.00     0.189 HD
BRANCH   5   7
ATOM      7  C   UNL d   1      29.099 -16.908  -1.227  0.00  0.00     0.186 C 
ATOM      8  S   UNL d   1      30.658 -17.336  -1.706  0.00  0.00    -0.040 SA
BRANCH   7   9
ATOM      9  N   UNL d   1      28.371 -15.872  -1.809  0.00  0.00    -0.366 N 
ATOM     10  H   UNL d   1      27.866 -15.223  -1.220  0.00  0.00     0.161 HD
BRANCH   9  11
ATOM     11  C   UNL d   1      28.372 -15.612  -3.257  0.00  0.00     0.122 C 
BRANCH  11  12
ATOM     12  C   UNL d   1      27.547 -14.410  -3.729  0.00  0.00     0.023 C 
BRANCH  12  13
ATOM     13  C   UNL d   1      26.121 -14.822  -4.180  0.00  0.00    -0.021 C 
ATOM     14  C   UNL d   1      25.531 -15.859  -3.222  0.00  0.00     0.009 C 
ATOM     15  C   UNL d   1      25.172 -13.622  -4.261  0.00  0.00     0.009 C 
ENDBRANCH  12  13
ENDBRANCH  11  12
ENDBRANCH   9  11
ENDBRANCH   7   9
ENDBRANCH   5   7
ENDBRANCH   1   5
BRANCH   2  16
ATOM     16  C   UNL d   1      24.629 -17.370  -0.328  0.00  0.00     0.033 A 
ATOM     17  C   UNL d   1      24.312 -18.739  -0.420  0.00  0.00     0.019 A 
ATOM     18  C   UNL d   1      23.007 -19.165  -0.734  0.00  0.00     0.037 A 
ATOM     19  C   UNL d   1      21.989 -18.216  -0.895  0.00  0.00     0.102 A 
ATOM     20  C   UNL d   1      22.290 -16.849  -0.811  0.00  0.00     0.037 A 
ATOM     21  C   UNL d   1      23.606 -16.431  -0.530  0.00  0.00     0.019 A 
BRANCH  19  22
ATOM     22  N   UNL d   1      20.596 -18.655  -1.097  0.00  0.00    -0.116 N 
ATOM     23  O   UNL d   1      20.402 -19.833  -1.427  0.00  0.00    -0.532 OA
ATOM     24  O   UNL d   1      19.696 -17.825  -0.895  0.00  0.00    -0.532 OA
ENDBRANCH  19  22
ENDBRANCH   2  16
TORSDOF 8
ENDMDL
MODEL 4
REMARK VINA RESULT:    -6.585      4.409      8.271
REMARK INTER + INTRA:         -10.103
REMARK INTER:                  -8.972
REMARK INTRA:                  -1.131
REMARK CONF_INDEPENDENT:        2.386
REMARK UNBOUND:                -1.131
REMARK  8 active torsions:
REMARK  status: ('A' for Active; 'I' for Inactive)
REMARK    1  A    between atoms: C_2  and  C_4 
REMARK    2  A    between atoms: C_4  and  C_5 
REMARK    3  A    between atoms: C_5  and  N_6 
REMARK    4  A    between atoms: N_6  and  C_7 
REMARK    5  A    between atoms: C_7  and  N_9 
REMARK    6  A    between atoms: N_9  and  N_10 
REMARK       I    between atoms: N_10  and  C_11 
REMARK    7  A    between atoms: C_11  and  C_13 
REMARK    8  A    between atoms: C_16  and  N_17 
ROOT
ATOM      1  N   UNL d   1      27.789 -14.517   1.091  0.00  0.00    -0.264 N 
ATOM      2  C   UNL d   1      28.036 -13.804   2.251  0.00  0.00     0.270 C 
ATOM      3  O   UNL d   1      28.665 -14.265   3.206  0.00  0.00    -0.266 OA
ATOM      4  H   UNL d   1      27.358 -14.104   0.266  0.00  0.00     0.190 HD
ENDROOT
BRANCH   1   5
ATOM      5  N   UNL d   1      28.281 -15.856   0.915  0.00  0.00    -0.274 N 
ATOM      6  H   UNL d   1      28.908 -16.198   1.641  0.00  0.00     0.189 HD
BRANCH   5   7
ATOM      7  C   UNL d   1      27.880 -16.603  -0.189  0.00  0.00     0.186 C 
ATOM      8  S   UNL d   1      27.933 -15.971  -1.752  0.00  0.00    -0.040 SA
BRANCH   7   9
ATOM      9  N   UNL d   1      27.446 -17.895   0.105  0.00  0.00    -0.366 N 
ATOM     10  H   UNL d   1      28.125 -18.632   0.242  0.00  0.00     0.161 HD
BRANCH   9  11
ATOM     11  C   UNL d   1      26.030 -18.231   0.323  0.00  0.00     0.122 C 
BRANCH  11  12
ATOM     12  C   UNL d   1      25.006 -17.291  -0.324  0.00  0.00     0.023 C 
BRANCH  12  13
ATOM     13  C   UNL d   1      23.551 -17.791  -0.128  0.00  0.00    -0.021 C 
ATOM     14  C   UNL d   1      22.549 -16.703  -0.520  0.00  0.00     0.009 C 
ATOM     15  C   UNL d   1      23.259 -19.054  -0.946  0.00  0.00     0.009 C 
ENDBRANCH  12  13
ENDBRANCH  11  12
ENDBRANCH   9  11
ENDBRANCH   7   9
ENDBRANCH   5   7
ENDBRANCH   1   5
BRANCH   2  16
ATOM     16  C   UNL d   1      27.484 -12.404   2.335  0.00  0.00     0.033 A 
ATOM     17  C   UNL d   1      27.122 -11.721   1.158  0.00  0.00     0.019 A 
ATOM     18  C   UNL d   1      26.748 -10.364   1.190  0.00  0.00     0.037 A 
ATOM     19  C   UNL d   1      26.671  -9.696   2.419  0.00  0.00     0.102 A 
ATOM     20  C   UNL d   1      27.034 -10.361   3.599  0.00  0.00     0.037 A 
ATOM     21  C   UNL d   1      27.439 -11.710   3.553  0.00  0.00     0.019 A 
BRANCH  19  22
ATOM     22  N   UNL d   1      26.159  -8.314   2.478  0.00  0.00    -0.116 N 
ATOM     23  O   UNL d   1      25.242  -8.003   1.704  0.00  0.00    -0.532 OA
ATOM     24  O   UNL d   1      26.655  -7.551   3.320  0.00  0.00    -0.532 OA
ENDBRANCH  19  22
ENDBRANCH   2  16
TORSDOF 8
ENDMDL
MODEL 5
REMARK VINA RESULT:    -6.416      2.662      4.589
REMARK INTER + INTRA:         -10.280
REMARK INTER:                  -8.802
REMARK INTRA:                  -1.478
REMARK CONF_INDEPENDENT:        2.386
REMARK UNBOUND:                -1.478
REMARK  8 active torsions:
REMARK  status: ('A' for Active; 'I' for Inactive)
REMARK    1  A    between atoms: C_2  and  C_4 
REMARK    2  A    between atoms: C_4  and  C_5 
REMARK    3  A    between atoms: C_5  and  N_6 
REMARK    4  A    between atoms: N_6  and  C_7 
REMARK    5  A    between atoms: C_7  and  N_9 
REMARK    6  A    between atoms: N_9  and  N_10 
REMARK       I    between atoms: N_10  and  C_11 
REMARK    7  A    between atoms: C_11  and  C_13 
REMARK    8  A    between atoms: C_16  and  N_17 
ROOT
ATOM      1  N   UNL d   1      26.159 -15.850   0.218  0.00  0.00    -0.264 N 
ATOM      2  C   UNL d   1      25.903 -17.205   0.094  0.00  0.00     0.270 C 
ATOM      3  O   UNL d   1      26.756 -18.074   0.288  0.00  0.00    -0.266 OA
ATOM      4  H   UNL d   1      25.432 -15.140   0.156  0.00  0.00     0.190 HD
ENDROOT
BRANCH   1   5
ATOM      5  N   UNL d   1      27.453 -15.365   0.611  0.00  0.00    -0.274 N 
ATOM      6  H   UNL d   1      28.075 -16.051   1.037  0.00  0.00     0.189 HD
BRANCH   5   7
ATOM      7  C   UNL d   1      27.794 -14.034   0.383  0.00  0.00     0.186 C 
ATOM      8  S   UNL d   1      27.496 -12.837   1.533  0.00  0.00    -0.040 SA
BRANCH   7   9
ATOM      9  N   UNL d   1      28.395 -13.786  -0.850  0.00  0.00    -0.366 N 
ATOM     10  H   UNL d   1      29.392 -13.623  -0.896  0.00  0.00     0.161 HD
BRANCH   9  11
ATOM     11  C   UNL d   1      27.659 -13.843  -2.122  0.00  0.00     0.122 C 
BRANCH  11  12
ATOM     12  C   UNL d   1      26.131 -13.759  -2.022  0.00  0.00     0.023 C 
BRANCH  12  13
ATOM     13  C   UNL d   1      25.430 -14.454  -3.219  0.00  0.00    -0.021 C 
ATOM     14  C   UNL d   1      24.778 -13.418  -4.138  0.00  0.00     0.009 C 
ATOM     15  C   UNL d   1      26.400 -15.307  -4.041  0.00  0.00     0.009 C 
ENDBRANCH  12  13
ENDBRANCH  11  12
ENDBRANCH   9  11
ENDBRANCH   7   9
ENDBRANCH   5   7
ENDBRANCH   1   5
BRANCH   2  16
ATOM     16  C   UNL d   1      24.511 -17.613  -0.315  0.00  0.00     0.033 A 
ATOM     17  C   UNL d   1      23.561 -16.628  -0.650  0.00  0.00     0.019 A 
ATOM     18  C   UNL d   1      22.216 -16.967  -0.889  0.00  0.00     0.037 A 
ATOM     19  C   UNL d   1      21.824 -18.311  -0.857  0.00  0.00     0.102 A 
ATOM     20  C   UNL d   1      22.757 -19.302  -0.520  0.00  0.00     0.037 A 
ATOM     21  C   UNL d   1      24.094 -18.950  -0.249  0.00  0.00     0.019 A 
BRANCH  19  22
ATOM     22  N   UNL d   1      20.448 -18.689  -1.230  0.00  0.00    -0.116 N 
ATOM     23  O   UNL d   1      20.285 -19.761  -1.830  0.00  0.00    -0.532 OA
ATOM     24  O   UNL d   1      19.530 -17.925  -0.894  0.00  0.00    -0.532 OA
ENDBRANCH  19  22
ENDBRANCH   2  16
TORSDOF 8
ENDMDL
MODEL 6
REMARK VINA RESULT:    -6.332      4.497      8.393
REMARK INTER + INTRA:          -9.834
REMARK INTER:                  -8.719
REMARK INTRA:                  -1.116
REMARK CONF_INDEPENDENT:        2.386
REMARK UNBOUND:                -1.116
REMARK  8 active torsions:
REMARK  status: ('A' for Active; 'I' for Inactive)
REMARK    1  A    between atoms: C_2  and  C_4 
REMARK    2  A    between atoms: C_4  and  C_5 
REMARK    3  A    between atoms: C_5  and  N_6 
REMARK    4  A    between atoms: N_6  and  C_7 
REMARK    5  A    between atoms: C_7  and  N_9 
REMARK    6  A    between atoms: N_9  and  N_10 
REMARK       I    between atoms: N_10  and  C_11 
REMARK    7  A    between atoms: C_11  and  C_13 
REMARK    8  A    between atoms: C_16  and  N_17 
ROOT
ATOM      1  N   UNL d   1      27.533 -14.522   1.119  0.00  0.00    -0.264 N 
ATOM      2  C   UNL d   1      28.166 -13.668   2.006  0.00  0.00     0.270 C 
ATOM      3  O   UNL d   1      29.141 -14.001   2.685  0.00  0.00    -0.266 OA
ATOM      4  H   UNL d   1      26.794 -14.218   0.487  0.00  0.00     0.190 HD
ENDROOT
BRANCH   1   5
ATOM      5  N   UNL d   1      27.996 -15.866   0.912  0.00  0.00    -0.274 N 
ATOM      6  H   UNL d   1      28.873 -16.110   1.370  0.00  0.00     0.189 HD
BRANCH   5   7
ATOM      7  C   UNL d   1      27.245 -16.748   0.139  0.00  0.00     0.186 C 
ATOM      8  S   UNL d   1      26.707 -18.223   0.753  0.00  0.00    -0.040 SA
BRANCH   7   9
ATOM      9  N   UNL d   1      26.979 -16.308  -1.157  0.00  0.00    -0.366 N 
ATOM     10  H   UNL d   1      27.719 -16.303  -1.845  0.00  0.00     0.161 HD
BRANCH   9  11
ATOM     11  C   UNL d   1      25.630 -15.932  -1.610  0.00  0.00     0.122 C 
BRANCH  11  12
ATOM     12  C   UNL d   1      24.634 -17.083  -1.792  0.00  0.00     0.023 C 
BRANCH  12  13
ATOM     13  C   UNL d   1      23.792 -17.334  -0.514  0.00  0.00    -0.021 C 
ATOM     14  C   UNL d   1      22.530 -16.468  -0.520  0.00  0.00     0.009 C 
ATOM     15  C   UNL d   1      23.386 -18.804  -0.369  0.00  0.00     0.009 C 
ENDBRANCH  12  13
ENDBRANCH  11  12
ENDBRANCH   9  11
ENDBRANCH   7   9
ENDBRANCH   5   7
ENDBRANCH   1   5
BRANCH   2  16
ATOM     16  C   UNL d   1      27.608 -12.275   2.146  0.00  0.00     0.033 A 
ATOM     17  C   UNL d   1      27.384 -11.491   0.998  0.00  0.00     0.019 A 
ATOM     18  C   UNL d   1      27.009 -10.138   1.103  0.00  0.00     0.037 A 
ATOM     19  C   UNL d   1      26.792  -9.576   2.368  0.00  0.00     0.102 A 
ATOM     20  C   UNL d   1      27.016 -10.343   3.520  0.00  0.00     0.037 A 
ATOM     21  C   UNL d   1      27.424 -11.686   3.406  0.00  0.00     0.019 A 
BRANCH  19  22
ATOM     22  N   UNL d   1      26.277  -8.199   2.486  0.00  0.00    -0.116 N 
ATOM     23  O   UNL d   1      26.655  -7.520   3.452  0.00  0.00    -0.532 OA
ATOM     24  O   UNL d   1      25.517  -7.790   1.595  0.00  0.00    -0.532 OA
ENDBRANCH  19  22
ENDBRANCH   2  16
TORSDOF 8
ENDMDL
MODEL 7
REMARK VINA RESULT:    -6.181      4.022      5.036
REMARK INTER + INTRA:         -10.366
REMARK INTER:                  -8.567
REMARK INTRA:                  -1.799
REMARK CONF_INDEPENDENT:        2.386
REMARK UNBOUND:                -1.799
REMARK  8 active torsions:
REMARK  status: ('A' for Active; 'I' for Inactive)
REMARK    1  A    between atoms: C_2  and  C_4 
REMARK    2  A    between atoms: C_4  and  C_5 
REMARK    3  A    between atoms: C_5  and  N_6 
REMARK    4  A    between atoms: N_6  and  C_7 
REMARK    5  A    between atoms: C_7  and  N_9 
REMARK    6  A    between atoms: N_9  and  N_10 
REMARK       I    between atoms: N_10  and  C_11 
REMARK    7  A    between atoms: C_11  and  C_13 
REMARK    8  A    between atoms: C_16  and  N_17 
ROOT
ATOM      1  N   UNL d   1      27.006 -17.746  -0.501  0.00  0.00    -0.264 N 
ATOM      2  C   UNL d   1      25.973 -16.846  -0.307  0.00  0.00     0.270 C 
ATOM      3  O   UNL d   1      26.153 -15.674   0.033  0.00  0.00    -0.266 OA
ATOM      4  H   UNL d   1      26.865 -18.682  -0.878  0.00  0.00     0.190 HD
ENDROOT
BRANCH   1   5
ATOM      5  N   UNL d   1      28.379 -17.357  -0.339  0.00  0.00    -0.274 N 
ATOM      6  H   UNL d   1      28.872 -17.780   0.446  0.00  0.00     0.189 HD
BRANCH   5   7
ATOM      7  C   UNL d   1      28.959 -16.465  -1.239  0.00  0.00     0.186 C 
ATOM      8  S   UNL d   1      30.612 -16.496  -1.573  0.00  0.00    -0.040 SA
BRANCH   7   9
ATOM      9  N   UNL d   1      28.070 -15.570  -1.831  0.00  0.00    -0.366 N 
ATOM     10  H   UNL d   1      27.614 -14.868  -1.262  0.00  0.00     0.161 HD
BRANCH   9  11
ATOM     11  C   UNL d   1      27.824 -15.531  -3.280  0.00  0.00     0.122 C 
BRANCH  11  12
ATOM     12  C   UNL d   1      26.356 -15.575  -3.719  0.00  0.00     0.023 C 
BRANCH  12  13
ATOM     13  C   UNL d   1      25.742 -14.156  -3.846  0.00  0.00    -0.021 C 
ATOM     14  C   UNL d   1      25.609 -13.500  -2.470  0.00  0.00     0.009 C 
ATOM     15  C   UNL d   1      26.577 -13.245  -4.753  0.00  0.00     0.009 C 
ENDBRANCH  12  13
ENDBRANCH  11  12
ENDBRANCH   9  11
ENDBRANCH   7   9
ENDBRANCH   5   7
ENDBRANCH   1   5
BRANCH   2  16
ATOM     16  C   UNL d   1      24.567 -17.350  -0.509  0.00  0.00     0.033 A 
ATOM     17  C   UNL d   1      23.488 -16.446  -0.492  0.00  0.00     0.019 A 
ATOM     18  C   UNL d   1      22.156 -16.901  -0.525  0.00  0.00     0.037 A 
ATOM     19  C   UNL d   1      21.896 -18.272  -0.643  0.00  0.00     0.102 A 
ATOM     20  C   UNL d   1      22.960 -19.186  -0.656  0.00  0.00     0.037 A 
ATOM     21  C   UNL d   1      24.289 -18.723  -0.588  0.00  0.00     0.019 A 
BRANCH  19  22
ATOM     22  N   UNL d   1      20.510 -18.750  -0.808  0.00  0.00    -0.116 N 
ATOM     23  O   UNL d   1      20.318 -19.974  -0.818  0.00  0.00    -0.532 OA
ATOM     24  O   UNL d   1      19.614 -17.898  -0.896  0.00  0.00    -0.532 OA
ENDBRANCH  19  22
ENDBRANCH   2  16
TORSDOF 8
ENDMDL
MODEL 8
REMARK VINA RESULT:    -5.854      4.418      8.092
REMARK INTER + INTRA:          -9.343
REMARK INTER:                  -8.240
REMARK INTRA:                  -1.103
REMARK CONF_INDEPENDENT:        2.386
REMARK UNBOUND:                -1.103
REMARK  8 active torsions:
REMARK  status: ('A' for Active; 'I' for Inactive)
REMARK    1  A    between atoms: C_2  and  C_4 
REMARK    2  A    between atoms: C_4  and  C_5 
REMARK    3  A    between atoms: C_5  and  N_6 
REMARK    4  A    between atoms: N_6  and  C_7 
REMARK    5  A    between atoms: C_7  and  N_9 
REMARK    6  A    between atoms: N_9  and  N_10 
REMARK       I    between atoms: N_10  and  C_11 
REMARK    7  A    between atoms: C_11  and  C_13 
REMARK    8  A    between atoms: C_16  and  N_17 
ROOT
ATOM      1  N   UNL d   1      27.827 -14.797   1.180  0.00  0.00    -0.264 N 
ATOM      2  C   UNL d   1      27.728 -13.774   0.252  0.00  0.00     0.270 C 
ATOM      3  O   UNL d   1      27.932 -13.934  -0.954  0.00  0.00    -0.266 OA
ATOM      4  H   UNL d   1      27.562 -14.687   2.157  0.00  0.00     0.190 HD
ENDROOT
BRANCH   1   5
ATOM      5  N   UNL d   1      28.156 -16.138   0.784  0.00  0.00    -0.274 N 
ATOM      6  H   UNL d   1      29.109 -16.440   0.983  0.00  0.00     0.189 HD
BRANCH   5   7
ATOM      7  C   UNL d   1      27.189 -16.942   0.186  0.00  0.00     0.186 C 
ATOM      8  S   UNL d   1      27.029 -18.574   0.580  0.00  0.00    -0.040 SA
BRANCH   7   9
ATOM      9  N   UNL d   1      26.380 -16.290  -0.743  0.00  0.00    -0.366 N 
ATOM     10  H   UNL d   1      26.743 -16.079  -1.663  0.00  0.00     0.161 HD
BRANCH   9  11
ATOM     11  C   UNL d   1      24.968 -15.969  -0.484  0.00  0.00     0.122 C 
BRANCH  11  12
ATOM     12  C   UNL d   1      23.944 -16.610  -1.427  0.00  0.00     0.023 C 
BRANCH  12  13
ATOM     13  C   UNL d   1      23.414 -17.962  -0.881  0.00  0.00    -0.021 C 
ATOM     14  C   UNL d   1      23.902 -18.194   0.550  0.00  0.00     0.009 C 
ATOM     15  C   UNL d   1      21.884 -18.034  -0.904  0.00  0.00     0.009 C 
ENDBRANCH  12  13
ENDBRANCH  11  12
ENDBRANCH   9  11
ENDBRANCH   7   9
ENDBRANCH   5   7
ENDBRANCH   1   5
BRANCH   2  16
ATOM     16  C   UNL d   1      27.370 -12.403   0.766  0.00  0.00     0.033 A 
ATOM     17  C   UNL d   1      26.773 -12.263   2.034  0.00  0.00     0.019 A 
ATOM     18  C   UNL d   1      26.289 -11.018   2.477  0.00  0.00     0.037 A 
ATOM     19  C   UNL d   1      26.462  -9.883   1.674  0.00  0.00     0.102 A 
ATOM     20  C   UNL d   1      27.050 -10.007   0.407  0.00  0.00     0.037 A 
ATOM     21  C   UNL d   1      27.500 -11.264  -0.042  0.00  0.00     0.019 A 
BRANCH  19  22
ATOM     22  N   UNL d   1      26.075  -8.553   2.182  0.00  0.00    -0.116 N 
ATOM     23  O   UNL d   1      26.655  -8.128   3.191  0.00  0.00    -0.532 OA
ATOM     24  O   UNL d   1      25.212  -7.924   1.551  0.00  0.00    -0.532 OA
ENDBRANCH  19  22
ENDBRANCH   2  16
TORSDOF 8
ENDMDL
MODEL 9
REMARK VINA RESULT:    -5.848      1.979      2.525
REMARK INTER + INTRA:          -9.732
REMARK INTER:                  -8.234
REMARK INTRA:                  -1.497
REMARK CONF_INDEPENDENT:        2.386
REMARK UNBOUND:                -1.497
REMARK  8 active torsions:
REMARK  status: ('A' for Active; 'I' for Inactive)
REMARK    1  A    between atoms: C_2  and  C_4 
REMARK    2  A    between atoms: C_4  and  C_5 
REMARK    3  A    between atoms: C_5  and  N_6 
REMARK    4  A    between atoms: N_6  and  C_7 
REMARK    5  A    between atoms: C_7  and  N_9 
REMARK    6  A    between atoms: N_9  and  N_10 
REMARK       I    between atoms: N_10  and  C_11 
REMARK    7  A    between atoms: C_11  and  C_13 
REMARK    8  A    between atoms: C_16  and  N_17 
ROOT
ATOM      1  N   UNL d   1      27.297 -17.492  -0.388  0.00  0.00    -0.264 N 
ATOM      2  C   UNL d   1      26.224 -16.663  -0.111  0.00  0.00     0.270 C 
ATOM      3  O   UNL d   1      26.348 -15.542   0.388  0.00  0.00    -0.266 OA
ATOM      4  H   UNL d   1      27.203 -18.374  -0.890  0.00  0.00     0.190 HD
ENDROOT
BRANCH   1   5
ATOM      5  N   UNL d   1      28.649 -17.081  -0.130  0.00  0.00    -0.274 N 
ATOM      6  H   UNL d   1      29.154 -17.623   0.570  0.00  0.00     0.189 HD
BRANCH   5   7
ATOM      7  C   UNL d   1      29.194 -16.009  -0.833  0.00  0.00     0.186 C 
ATOM      8  S   UNL d   1      30.432 -16.228  -1.957  0.00  0.00    -0.040 SA
BRANCH   7   9
ATOM      9  N   UNL d   1      28.634 -14.768  -0.534  0.00  0.00    -0.366 N 
ATOM     10  H   UNL d   1      27.774 -14.486  -0.985  0.00  0.00     0.161 HD
BRANCH   9  11
ATOM     11  C   UNL d   1      29.189 -13.868   0.489  0.00  0.00     0.122 C 
BRANCH  11  12
ATOM     12  C   UNL d   1      29.292 -14.440   1.907  0.00  0.00     0.023 C 
BRANCH  12  13
ATOM     13  C   UNL d   1      28.488 -13.599   2.935  0.00  0.00    -0.021 C 
ATOM     14  C   UNL d   1      27.008 -13.547   2.549  0.00  0.00     0.009 C 
ATOM     15  C   UNL d   1      28.613 -14.153   4.357  0.00  0.00     0.009 C 
ENDBRANCH  12  13
ENDBRANCH  11  12
ENDBRANCH   9  11
ENDBRANCH   7   9
ENDBRANCH   5   7
ENDBRANCH   1   5
BRANCH   2  16
ATOM     16  C   UNL d   1      24.846 -17.185  -0.426  0.00  0.00     0.033 A 
ATOM     17  C   UNL d   1      23.810 -16.284  -0.743  0.00  0.00     0.019 A 
ATOM     18  C   UNL d   1      22.482 -16.726  -0.892  0.00  0.00     0.037 A 
ATOM     19  C   UNL d   1      22.190 -18.092  -0.787  0.00  0.00     0.102 A 
ATOM     20  C   UNL d   1      23.209 -19.000  -0.466  0.00  0.00     0.037 A 
ATOM     21  C   UNL d   1      24.530 -18.544  -0.285  0.00  0.00     0.019 A 
BRANCH  19  22
ATOM     22  N   UNL d   1      20.827 -18.580  -1.067  0.00  0.00    -0.116 N 
ATOM     23  O   UNL d   1      20.698 -19.758  -1.429  0.00  0.00    -0.532 OA
ATOM     24  O   UNL d   1      19.886 -17.791  -0.896  0.00  0.00    -0.532 OA
ENDBRANCH  19  22
ENDBRANCH   2  16
TORSDOF 8
ENDMDL
