MODEL 1
REMARK VINA RESULT:    -8.153      0.000      0.000
REMARK INTER + INTRA:         -11.930
REMARK INTER:                 -10.241
REMARK INTRA:                  -1.690
REMARK CONF_INDEPENDENT:        2.088
REMARK UNBOUND:                -1.690
REMARK  7 active torsions:
REMARK  status: ('A' for Active; 'I' for Inactive)
REMARK    1  A    between atoms: C_2  and  N_3 
REMARK       I    between atoms: N_3  and  C_4 
REMARK    2  A    between atoms: C_4  and  C_6 
REMARK    3  A    between atoms: C_11  and  N_12 
REMARK       I    between atoms: N_12  and  C_13 
REMARK    4  A    between atoms: C_13  and  C_15 
REMARK       I    between atoms: C_15  and  N_17 
REMARK    5  A    between atoms: C_18  and  N_17 
REMARK    6  A    between atoms: C_18  and  C_24 
REMARK    7  A    between atoms: C_18  and  C_19 
ROOT
ATOM      1  N   UNL d   1      27.882 -15.500  -3.298  0.00  0.00    -0.318 N 
ATOM      2  C   UNL d   1      26.772 -15.381  -4.143  0.00  0.00     0.314 C 
ATOM      3  O   UNL d   1      26.849 -15.574  -5.364  0.00  0.00    -0.262 OA
ATOM      4  H   UNL d   1      27.933 -14.827  -2.536  0.00  0.00     0.169 HD
ENDROOT
BRANCH   1   5
ATOM      5  C   UNL d   1      29.063 -16.275  -3.633  0.00  0.00     0.042 A 
ATOM      6  C   UNL d   1      29.734 -17.073  -2.717  0.00  0.00    -0.035 A 
ATOM      7  C   UNL d   1      30.829 -17.872  -3.150  0.00  0.00     0.010 A 
ATOM      8  C   UNL d   1      29.342 -17.037  -1.275  0.00  0.00     0.050 C 
ATOM      9  C   UNL d   1      31.240 -17.920  -4.496  0.00  0.00     0.017 A 
ATOM     10  C   UNL d   1      30.609 -17.113  -5.432  0.00  0.00     0.034 A 
ATOM     11  C   UNL d   1      29.576 -16.297  -4.938  0.00  0.00     0.047 A 
BRANCH  10  12
ATOM     12  C   UNL d   1      30.943 -17.281  -6.909  0.00  0.00     0.251 C 
ATOM     13  N   UNL d   1      31.338 -18.504  -7.432  0.00  0.00    -0.357 N 
ATOM     14  H   UNL d   1      31.883 -18.409  -8.284  0.00  0.00     0.162 HD
ATOM     15  O   UNL d   1      31.017 -16.295  -7.641  0.00  0.00    -0.268 OA
BRANCH  13  16
ATOM     16  C   UNL d   1      30.574 -19.729  -7.331  0.00  0.00     0.118 C 
ATOM     17  C   UNL d   1      31.158 -20.710  -6.331  0.00  0.00     0.026 C 
ENDBRANCH  13  16
ENDBRANCH  10  12
ENDBRANCH   1   5
BRANCH   2  18
ATOM     18  C   UNL d   1      25.423 -14.814  -3.650  0.00  0.00     0.310 C 
ATOM     19  O   UNL d   1      24.779 -14.084  -4.402  0.00  0.00    -0.262 OA
ATOM     20  N   UNL d   1      24.881 -15.237  -2.429  0.00  0.00    -0.343 N 
ATOM     21  H   UNL d   1      23.876 -15.123  -2.396  0.00  0.00     0.163 HD
BRANCH  20  22
ATOM     22  C   UNL d   1      25.447 -16.007  -1.292  0.00  0.00     0.128 C 
BRANCH  22  23
ATOM     23  C   UNL d   1      26.070 -15.097  -0.164  0.00  0.00     0.005 C 
ATOM     24  C   UNL d   1      27.179 -15.817   0.618  0.00  0.00     0.012 C 
ATOM     25  C   UNL d   1      26.696 -13.812  -0.706  0.00  0.00     0.012 C 
ENDBRANCH  22  23
BRANCH  22  26
ATOM     26  C   UNL d   1      24.396 -16.981  -0.802  0.00  0.00     0.005 C 
ATOM     27  C   UNL d   1      23.059 -16.717  -0.818  0.00  0.00     0.017 C 
ATOM     28  C   UNL d   1      22.237 -17.825  -0.584  0.00  0.00     0.008 C 
ATOM     29  C   UNL d   1      22.956 -18.894  -0.147  0.00  0.00     0.050 C 
ATOM     30  S   UNL d   1      24.641 -18.546  -0.156  0.00  0.00    -0.104 SA
ENDBRANCH  22  26
ENDBRANCH  20  22
ENDBRANCH   2  18
TORSDOF 7
ENDMDL
MODEL 2
REMARK VINA RESULT:    -7.963      1.742      2.554
REMARK INTER + INTRA:         -11.925
REMARK INTER:                 -10.051
REMARK INTRA:                  -1.874
REMARK CONF_INDEPENDENT:        2.088
REMARK UNBOUND:                -1.874
REMARK  7 active torsions:
REMARK  status: ('A' for Active; 'I' for Inactive)
REMARK    1  A    between atoms: C_2  and  N_3 
REMARK       I    between atoms: N_3  and  C_4 
REMARK    2  A    between atoms: C_4  and  C_6 
REMARK    3  A    between atoms: C_11  and  N_12 
REMARK       I    between atoms: N_12  and  C_13 
REMARK    4  A    between atoms: C_13  and  C_15 
REMARK       I    between atoms: C_15  and  N_17 
REMARK    5  A    between atoms: C_18  and  N_17 
REMARK    6  A    between atoms: C_18  and  C_24 
REMARK    7  A    between atoms: C_18  and  C_19 
ROOT
ATOM      1  N   UNL d   1      27.516 -14.488  -4.721  0.00  0.00    -0.318 N 
ATOM      2  C   UNL d   1      26.247 -15.066  -4.606  0.00  0.00     0.314 C 
ATOM      3  O   UNL d   1      25.852 -15.949  -5.380  0.00  0.00    -0.262 OA
ATOM      4  H   UNL d   1      27.570 -13.492  -4.521  0.00  0.00     0.169 HD
ENDROOT
BRANCH   1   5
ATOM      5  C   UNL d   1      28.630 -15.131  -5.397  0.00  0.00     0.042 A 
ATOM      6  C   UNL d   1      29.244 -14.601  -6.523  0.00  0.00    -0.035 A 
ATOM      7  C   UNL d   1      30.387 -15.247  -7.070  0.00  0.00     0.010 A 
ATOM      8  C   UNL d   1      28.661 -13.394  -7.186  0.00  0.00     0.050 C 
ATOM      9  C   UNL d   1      30.955 -16.395  -6.484  0.00  0.00     0.017 A 
ATOM     10  C   UNL d   1      30.349 -16.967  -5.375  0.00  0.00     0.034 A 
ATOM     11  C   UNL d   1      29.187 -16.324  -4.915  0.00  0.00     0.047 A 
BRANCH  10  12
ATOM     12  C   UNL d   1      31.049 -18.108  -4.647  0.00  0.00     0.251 C 
ATOM     13  N   UNL d   1      30.591 -19.415  -4.730  0.00  0.00    -0.357 N 
ATOM     14  H   UNL d   1      30.876 -19.982  -3.938  0.00  0.00     0.162 HD
ATOM     15  O   UNL d   1      31.948 -17.867  -3.842  0.00  0.00    -0.268 OA
BRANCH  13  16
ATOM     16  C   UNL d   1      30.405 -20.145  -5.966  0.00  0.00     0.118 C 
ATOM     17  C   UNL d   1      31.496 -19.872  -6.986  0.00  0.00     0.026 C 
ENDBRANCH  13  16
ENDBRANCH  10  12
ENDBRANCH   1   5
BRANCH   2  18
ATOM     18  C   UNL d   1      25.179 -14.514  -3.638  0.00  0.00     0.310 C 
ATOM     19  O   UNL d   1      24.667 -13.422  -3.882  0.00  0.00    -0.262 OA
ATOM     20  N   UNL d   1      24.704 -15.304  -2.582  0.00  0.00    -0.343 N 
ATOM     21  H   UNL d   1      23.782 -15.022  -2.277  0.00  0.00     0.163 HD
BRANCH  20  22
ATOM     22  C   UNL d   1      25.180 -16.581  -1.991  0.00  0.00     0.128 C 
BRANCH  22  23
ATOM     23  C   UNL d   1      26.422 -16.406  -1.033  0.00  0.00     0.005 C 
ATOM     24  C   UNL d   1      26.428 -17.438   0.105  0.00  0.00     0.012 C 
ATOM     25  C   UNL d   1      27.762 -16.558  -1.754  0.00  0.00     0.012 C 
ENDBRANCH  22  23
BRANCH  22  26
ATOM     26  C   UNL d   1      23.998 -17.288  -1.361  0.00  0.00     0.005 C 
ATOM     27  C   UNL d   1      23.655 -18.576  -1.644  0.00  0.00     0.017 C 
ATOM     28  C   UNL d   1      22.713 -19.140  -0.775  0.00  0.00     0.008 C 
ATOM     29  C   UNL d   1      22.155 -18.197   0.031  0.00  0.00     0.050 C 
ATOM     30  S   UNL d   1      22.894 -16.663  -0.215  0.00  0.00    -0.104 SA
ENDBRANCH  22  26
ENDBRANCH  20  22
ENDBRANCH   2  18
TORSDOF 7
ENDMDL
MODEL 3
REMARK VINA RESULT:    -7.853      4.281      7.925
REMARK INTER + INTRA:         -11.749
REMARK INTER:                  -9.941
REMARK INTRA:                  -1.808
REMARK CONF_INDEPENDENT:        2.088
REMARK UNBOUND:                -1.808
REMARK  7 active torsions:
REMARK  status: ('A' for Active; 'I' for Inactive)
REMARK    1  A    between atoms: C_2  and  N_3 
REMARK       I    between atoms: N_3  and  C_4 
REMARK    2  A    between atoms: C_4  and  C_6 
REMARK    3  A    between atoms: C_11  and  N_12 
REMARK       I    between atoms: N_12  and  C_13 
REMARK    4  A    between atoms: C_13  and  C_15 
REMARK       I    between atoms: C_15  and  N_17 
REMARK    5  A    between atoms: C_18  and  N_17 
REMARK    6  A    between atoms: C_18  and  C_24 
REMARK    7  A    between atoms: C_18  and  C_19 
ROOT
ATOM      1  N   UNL d   1      28.121 -14.657   2.343  0.00  0.00    -0.318 N 
ATOM      2  C   UNL d   1      27.458 -14.770   1.115  0.00  0.00     0.314 C 
ATOM      3  O   UNL d   1      26.409 -14.157   0.873  0.00  0.00    -0.262 OA
ATOM      4  H   UNL d   1      28.546 -15.511   2.697  0.00  0.00     0.169 HD
ENDROOT
BRANCH   1   5
ATOM      5  C   UNL d   1      27.951 -13.530   3.243  0.00  0.00     0.042 A 
ATOM      6  C   UNL d   1      28.267 -13.581   4.593  0.00  0.00    -0.035 A 
ATOM      7  C   UNL d   1      28.158 -12.405   5.386  0.00  0.00     0.010 A 
ATOM      8  C   UNL d   1      28.655 -14.885   5.215  0.00  0.00     0.050 C 
ATOM      9  C   UNL d   1      27.778 -11.163   4.841  0.00  0.00     0.017 A 
ATOM     10  C   UNL d   1      27.428 -11.083   3.501  0.00  0.00     0.034 A 
ATOM     11  C   UNL d   1      27.493 -12.288   2.780  0.00  0.00     0.047 A 
BRANCH  10  12
ATOM     12  C   UNL d   1      27.174  -9.717   2.876  0.00  0.00     0.251 C 
ATOM     13  N   UNL d   1      27.667  -9.386   1.622  0.00  0.00    -0.357 N 
ATOM     14  H   UNL d   1      27.770  -8.384   1.492  0.00  0.00     0.162 HD
ATOM     15  O   UNL d   1      26.655  -8.821   3.542  0.00  0.00    -0.268 OA
BRANCH  13  16
ATOM     16  C   UNL d   1      27.404 -10.134   0.411  0.00  0.00     0.118 C 
ATOM     17  C   UNL d   1      28.579 -10.992  -0.021  0.00  0.00     0.026 C 
ENDBRANCH  13  16
ENDBRANCH  10  12
ENDBRANCH   1   5
BRANCH   2  18
ATOM     18  C   UNL d   1      27.874 -15.808   0.050  0.00  0.00     0.310 C 
ATOM     19  O   UNL d   1      28.982 -16.337   0.142  0.00  0.00    -0.262 OA
ATOM     20  N   UNL d   1      26.956 -16.238  -0.915  0.00  0.00    -0.343 N 
ATOM     21  H   UNL d   1      27.186 -17.152  -1.284  0.00  0.00     0.163 HD
BRANCH  20  22
ATOM     22  C   UNL d   1      25.622 -15.732  -1.330  0.00  0.00     0.128 C 
BRANCH  22  23
ATOM     23  C   UNL d   1      25.525 -15.402  -2.870  0.00  0.00     0.005 C 
ATOM     24  C   UNL d   1      24.782 -14.084  -3.136  0.00  0.00     0.012 C 
ATOM     25  C   UNL d   1      26.892 -15.263  -3.541  0.00  0.00     0.012 C 
ENDBRANCH  22  23
BRANCH  22  26
ATOM     26  C   UNL d   1      24.566 -16.694  -0.828  0.00  0.00     0.005 C 
ATOM     27  C   UNL d   1      23.229 -16.429  -0.864  0.00  0.00     0.017 C 
ATOM     28  C   UNL d   1      22.403 -17.530  -0.613  0.00  0.00     0.008 C 
ATOM     29  C   UNL d   1      23.116 -18.590  -0.145  0.00  0.00     0.050 C 
ATOM     30  S   UNL d   1      24.802 -18.244  -0.145  0.00  0.00    -0.104 SA
ENDBRANCH  22  26
ENDBRANCH  20  22
ENDBRANCH   2  18
TORSDOF 7
ENDMDL
MODEL 4
REMARK VINA RESULT:    -7.796      3.795      7.318
REMARK INTER + INTRA:         -11.646
REMARK INTER:                  -9.884
REMARK INTRA:                  -1.762
REMARK CONF_INDEPENDENT:        2.088
REMARK UNBOUND:                -1.762
REMARK  7 active torsions:
REMARK  status: ('A' for Active; 'I' for Inactive)
REMARK    1  A    between atoms: C_2  and  N_3 
REMARK       I    between atoms: N_3  and  C_4 
REMARK    2  A    between atoms: C_4  and  C_6 
REMARK    3  A    between atoms: C_11  and  N_12 
REMARK       I    between atoms: N_12  and  C_13 
REMARK    4  A    between atoms: C_13  and  C_15 
REMARK       I    between atoms: C_15  and  N_17 
REMARK    5  A    between atoms: C_18  and  N_17 
REMARK    6  A    between atoms: C_18  and  C_24 
REMARK    7  A    between atoms: C_18  and  C_19 
ROOT
ATOM      1  N   UNL d   1      27.033 -15.936  -3.080  0.00  0.00    -0.318 N 
ATOM      2  C   UNL d   1      26.386 -15.437  -4.217  0.00  0.00     0.314 C 
ATOM      3  O   UNL d   1      25.272 -15.846  -4.574  0.00  0.00    -0.262 OA
ATOM      4  H   UNL d   1      28.043 -16.040  -3.154  0.00  0.00     0.169 HD
ENDROOT
BRANCH   1   5
ATOM      5  C   UNL d   1      26.337 -16.588  -1.985  0.00  0.00     0.042 A 
ATOM      6  C   UNL d   1      26.984 -17.084  -0.861  0.00  0.00    -0.035 A 
ATOM      7  C   UNL d   1      26.219 -17.627   0.208  0.00  0.00     0.010 A 
ATOM      8  C   UNL d   1      28.478 -17.101  -0.813  0.00  0.00     0.050 C 
ATOM      9  C   UNL d   1      24.810 -17.645   0.192  0.00  0.00     0.017 A 
ATOM     10  C   UNL d   1      24.134 -17.184  -0.928  0.00  0.00     0.034 A 
ATOM     11  C   UNL d   1      24.941 -16.718  -1.980  0.00  0.00     0.047 A 
BRANCH  10  12
ATOM     12  C   UNL d   1      22.617 -17.054  -0.882  0.00  0.00     0.251 C 
ATOM     13  N   UNL d   1      21.786 -18.159  -1.000  0.00  0.00    -0.357 N 
ATOM     14  H   UNL d   1      20.859 -17.919  -1.336  0.00  0.00     0.162 HD
ATOM     15  O   UNL d   1      22.092 -15.940  -0.895  0.00  0.00    -0.268 OA
BRANCH  13  16
ATOM     16  C   UNL d   1      21.842 -19.325  -0.146  0.00  0.00     0.118 C 
ATOM     17  C   UNL d   1      20.473 -19.772   0.335  0.00  0.00     0.026 C 
ENDBRANCH  13  16
ENDBRANCH  10  12
ENDBRANCH   1   5
BRANCH   2  18
ATOM     18  C   UNL d   1      27.090 -14.491  -5.213  0.00  0.00     0.310 C 
ATOM     19  O   UNL d   1      27.744 -14.982  -6.133  0.00  0.00    -0.262 OA
ATOM     20  N   UNL d   1      26.872 -13.109  -5.151  0.00  0.00    -0.343 N 
ATOM     21  H   UNL d   1      27.045 -12.653  -6.037  0.00  0.00     0.163 HD
BRANCH  20  22
ATOM     22  C   UNL d   1      26.237 -12.237  -4.130  0.00  0.00     0.128 C 
BRANCH  22  23
ATOM     23  C   UNL d   1      27.074 -12.116  -2.798  0.00  0.00     0.005 C 
ATOM     24  C   UNL d   1      26.576 -13.078  -1.708  0.00  0.00     0.012 C 
ATOM     25  C   UNL d   1      28.559 -12.423  -2.991  0.00  0.00     0.012 C 
ENDBRANCH  22  23
BRANCH  22  26
ATOM     26  C   UNL d   1      25.893 -10.912  -4.776  0.00  0.00     0.005 C 
ATOM     27  C   UNL d   1      25.539  -9.800  -4.071  0.00  0.00     0.017 C 
ATOM     28  C   UNL d   1      25.523  -8.613  -4.812  0.00  0.00     0.008 C 
ATOM     29  C   UNL d   1      25.631  -8.858  -6.146  0.00  0.00     0.050 C 
ATOM     30  S   UNL d   1      25.875 -10.534  -6.444  0.00  0.00    -0.104 SA
ENDBRANCH  22  26
ENDBRANCH  20  22
ENDBRANCH   2  18
TORSDOF 7
ENDMDL
MODEL 5
REMARK VINA RESULT:    -7.795      1.361      2.021
REMARK INTER + INTRA:         -11.646
REMARK INTER:                  -9.883
REMARK INTRA:                  -1.763
REMARK CONF_INDEPENDENT:        2.088
REMARK UNBOUND:                -1.763
REMARK  7 active torsions:
REMARK  status: ('A' for Active; 'I' for Inactive)
REMARK    1  A    between atoms: C_2  and  N_3 
REMARK       I    between atoms: N_3  and  C_4 
REMARK    2  A    between atoms: C_4  and  C_6 
REMARK    3  A    between atoms: C_11  and  N_12 
REMARK       I    between atoms: N_12  and  C_13 
REMARK    4  A    between atoms: C_13  and  C_15 
REMARK       I    between atoms: C_15  and  N_17 
REMARK    5  A    between atoms: C_18  and  N_17 
REMARK    6  A    between atoms: C_18  and  C_24 
REMARK    7  A    between atoms: C_18  and  C_19 
ROOT
ATOM      1  N   UNL d   1      28.021 -15.252  -3.663  0.00  0.00    -0.318 N 
ATOM      2  C   UNL d   1      26.844 -15.268  -4.421  0.00  0.00     0.314 C 
ATOM      3  O   UNL d   1      26.838 -15.569  -5.623  0.00  0.00    -0.262 OA
ATOM      4  H   UNL d   1      28.092 -14.509  -2.971  0.00  0.00     0.169 HD
ENDROOT
BRANCH   1   5
ATOM      5  C   UNL d   1      29.215 -15.995  -4.024  0.00  0.00     0.042 A 
ATOM      6  C   UNL d   1      29.825 -16.912  -3.179  0.00  0.00    -0.035 A 
ATOM      7  C   UNL d   1      30.938 -17.665  -3.644  0.00  0.00     0.010 A 
ATOM      8  C   UNL d   1      29.346 -17.052  -1.769  0.00  0.00     0.050 C 
ATOM      9  C   UNL d   1      31.429 -17.548  -4.959  0.00  0.00     0.017 A 
ATOM     10  C   UNL d   1      30.861 -16.621  -5.820  0.00  0.00     0.034 A 
ATOM     11  C   UNL d   1      29.806 -15.859  -5.288  0.00  0.00     0.047 A 
BRANCH  10  12
ATOM     12  C   UNL d   1      31.282 -16.606  -7.284  0.00  0.00     0.251 C 
ATOM     13  N   UNL d   1      31.643 -15.431  -7.927  0.00  0.00    -0.357 N 
ATOM     14  H   UNL d   1      31.523 -15.482  -8.935  0.00  0.00     0.162 HD
ATOM     15  O   UNL d   1      31.160 -17.621  -7.971  0.00  0.00    -0.268 OA
BRANCH  13  16
ATOM     16  C   UNL d   1      32.691 -14.538  -7.483  0.00  0.00     0.118 C 
ATOM     17  C   UNL d   1      32.943 -13.394  -8.449  0.00  0.00     0.026 C 
ENDBRANCH  13  16
ENDBRANCH  10  12
ENDBRANCH   1   5
BRANCH   2  18
ATOM     18  C   UNL d   1      25.507 -14.726  -3.872  0.00  0.00     0.310 C 
ATOM     19  O   UNL d   1      24.781 -14.074  -4.622  0.00  0.00    -0.262 OA
ATOM     20  N   UNL d   1      25.068 -15.089  -2.593  0.00  0.00    -0.343 N 
ATOM     21  H   UNL d   1      24.064 -15.014  -2.496  0.00  0.00     0.163 HD
BRANCH  20  22
ATOM     22  C   UNL d   1      25.743 -15.758  -1.452  0.00  0.00     0.128 C 
BRANCH  22  23
ATOM     23  C   UNL d   1      26.285 -14.753  -0.363  0.00  0.00     0.005 C 
ATOM     24  C   UNL d   1      27.296 -15.414   0.587  0.00  0.00     0.012 C 
ATOM     25  C   UNL d   1      26.997 -13.541  -0.966  0.00  0.00     0.012 C 
ENDBRANCH  22  23
BRANCH  22  26
ATOM     26  C   UNL d   1      24.821 -16.830  -0.910  0.00  0.00     0.005 C 
ATOM     27  C   UNL d   1      23.461 -16.748  -0.958  0.00  0.00     0.017 C 
ATOM     28  C   UNL d   1      22.788 -17.938  -0.660  0.00  0.00     0.008 C 
ATOM     29  C   UNL d   1      23.633 -18.872  -0.146  0.00  0.00     0.050 C 
ATOM     30  S   UNL d   1      25.257 -18.304  -0.158  0.00  0.00    -0.104 SA
ENDBRANCH  22  26
ENDBRANCH  20  22
ENDBRANCH   2  18
TORSDOF 7
ENDMDL
MODEL 6
REMARK VINA RESULT:    -7.738      2.995      7.609
REMARK INTER + INTRA:         -11.699
REMARK INTER:                  -9.826
REMARK INTRA:                  -1.873
REMARK CONF_INDEPENDENT:        2.088
REMARK UNBOUND:                -1.873
REMARK  7 active torsions:
REMARK  status: ('A' for Active; 'I' for Inactive)
REMARK    1  A    between atoms: C_2  and  N_3 
REMARK       I    between atoms: N_3  and  C_4 
REMARK    2  A    between atoms: C_4  and  C_6 
REMARK    3  A    between atoms: C_11  and  N_12 
REMARK       I    between atoms: N_12  and  C_13 
REMARK    4  A    between atoms: C_13  and  C_15 
REMARK       I    between atoms: C_15  and  N_17 
REMARK    5  A    between atoms: C_18  and  N_17 
REMARK    6  A    between atoms: C_18  and  C_24 
REMARK    7  A    between atoms: C_18  and  C_19 
ROOT
ATOM      1  N   UNL d   1      25.385 -15.367  -1.569  0.00  0.00    -0.318 N 
ATOM      2  C   UNL d   1      25.458 -15.084  -2.938  0.00  0.00     0.314 C 
ATOM      3  O   UNL d   1      25.383 -15.971  -3.799  0.00  0.00    -0.262 OA
ATOM      4  H   UNL d   1      25.990 -14.812  -0.968  0.00  0.00     0.169 HD
ENDROOT
BRANCH   1   5
ATOM      5  C   UNL d   1      24.774 -16.571  -1.032  0.00  0.00     0.042 A 
ATOM      6  C   UNL d   1      25.436 -17.443  -0.179  0.00  0.00    -0.035 A 
ATOM      7  C   UNL d   1      24.736 -18.551   0.375  0.00  0.00     0.010 A 
ATOM      8  C   UNL d   1      26.892 -17.247   0.099  0.00  0.00     0.050 C 
ATOM      9  C   UNL d   1      23.369 -18.780   0.123  0.00  0.00     0.017 A 
ATOM     10  C   UNL d   1      22.686 -17.943  -0.748  0.00  0.00     0.034 A 
ATOM     11  C   UNL d   1      23.442 -16.903  -1.315  0.00  0.00     0.047 A 
BRANCH  10  12
ATOM     12  C   UNL d   1      21.177 -18.091  -0.895  0.00  0.00     0.251 C 
ATOM     13  N   UNL d   1      20.551 -19.325  -0.785  0.00  0.00    -0.357 N 
ATOM     14  H   UNL d   1      19.658 -19.357  -1.267  0.00  0.00     0.162 HD
ATOM     15  O   UNL d   1      20.496 -17.136  -1.270  0.00  0.00    -0.268 OA
BRANCH  13  16
ATOM     16  C   UNL d   1      20.656 -20.202   0.362  0.00  0.00     0.118 C 
ATOM     17  C   UNL d   1      19.312 -20.736   0.823  0.00  0.00     0.026 C 
ENDBRANCH  13  16
ENDBRANCH  10  12
ENDBRANCH   1   5
BRANCH   2  18
ATOM     18  C   UNL d   1      25.830 -13.683  -3.467  0.00  0.00     0.310 C 
ATOM     19  O   UNL d   1      25.155 -12.718  -3.110  0.00  0.00    -0.262 OA
ATOM     20  N   UNL d   1      26.994 -13.498  -4.224  0.00  0.00    -0.343 N 
ATOM     21  H   UNL d   1      27.335 -12.546  -4.178  0.00  0.00     0.163 HD
BRANCH  20  22
ATOM     22  C   UNL d   1      27.928 -14.449  -4.879  0.00  0.00     0.128 C 
BRANCH  22  23
ATOM     23  C   UNL d   1      28.904 -13.763  -5.911  0.00  0.00     0.005 C 
ATOM     24  C   UNL d   1      29.482 -14.766  -6.921  0.00  0.00     0.012 C 
ATOM     25  C   UNL d   1      28.231 -12.666  -6.737  0.00  0.00     0.012 C 
ENDBRANCH  22  23
BRANCH  22  26
ATOM     26  C   UNL d   1      28.622 -15.259  -3.803  0.00  0.00     0.005 C 
ATOM     27  C   UNL d   1      29.285 -16.424  -4.049  0.00  0.00     0.017 C 
ATOM     28  C   UNL d   1      30.084 -16.881  -2.995  0.00  0.00     0.008 C 
ATOM     29  C   UNL d   1      29.841 -16.188  -1.850  0.00  0.00     0.050 C 
ATOM     30  S   UNL d   1      28.725 -14.908  -2.132  0.00  0.00    -0.104 SA
ENDBRANCH  22  26
ENDBRANCH  20  22
ENDBRANCH   2  18
TORSDOF 7
ENDMDL
MODEL 7
REMARK VINA RESULT:    -7.575      1.896      3.055
REMARK INTER + INTRA:         -11.680
REMARK INTER:                  -9.663
REMARK INTRA:                  -2.017
REMARK CONF_INDEPENDENT:        2.088
REMARK UNBOUND:                -2.017
REMARK  7 active torsions:
REMARK  status: ('A' for Active; 'I' for Inactive)
REMARK    1  A    between atoms: C_2  and  N_3 
REMARK       I    between atoms: N_3  and  C_4 
REMARK    2  A    between atoms: C_4  and  C_6 
REMARK    3  A    between atoms: C_11  and  N_12 
REMARK       I    between atoms: N_12  and  C_13 
REMARK    4  A    between atoms: C_13  and  C_15 
REMARK       I    between atoms: C_15  and  N_17 
REMARK    5  A    between atoms: C_18  and  N_17 
REMARK    6  A    between atoms: C_18  and  C_24 
REMARK    7  A    between atoms: C_18  and  C_19 
ROOT
ATOM      1  N   UNL d   1      27.619 -14.790  -4.393  0.00  0.00    -0.318 N 
ATOM      2  C   UNL d   1      26.280 -15.181  -4.517  0.00  0.00     0.314 C 
ATOM      3  O   UNL d   1      25.898 -15.950  -5.410  0.00  0.00    -0.262 OA
ATOM      4  H   UNL d   1      27.774 -13.826  -4.109  0.00  0.00     0.169 HD
ENDROOT
BRANCH   1   5
ATOM      5  C   UNL d   1      28.728 -15.550  -4.943  0.00  0.00     0.042 A 
ATOM      6  C   UNL d   1      29.343 -15.233  -6.146  0.00  0.00    -0.035 A 
ATOM      7  C   UNL d   1      30.482 -15.973  -6.569  0.00  0.00     0.010 A 
ATOM      8  C   UNL d   1      28.766 -14.162  -7.015  0.00  0.00     0.050 C 
ATOM      9  C   UNL d   1      31.045 -17.000  -5.787  0.00  0.00     0.017 A 
ATOM     10  C   UNL d   1      30.438 -17.361  -4.593  0.00  0.00     0.034 A 
ATOM     11  C   UNL d   1      29.279 -16.640  -4.255  0.00  0.00     0.047 A 
BRANCH  10  12
ATOM     12  C   UNL d   1      31.132 -18.356  -3.673  0.00  0.00     0.251 C 
ATOM     13  N   UNL d   1      31.334 -18.087  -2.327  0.00  0.00    -0.357 N 
ATOM     14  H   UNL d   1      32.109 -18.612  -1.933  0.00  0.00     0.162 HD
ATOM     15  O   UNL d   1      31.669 -19.360  -4.142  0.00  0.00    -0.268 OA
BRANCH  13  16
ATOM     16  C   UNL d   1      30.285 -17.753  -1.388  0.00  0.00     0.118 C 
ATOM     17  C   UNL d   1      30.451 -16.370  -0.783  0.00  0.00     0.026 C 
ENDBRANCH  13  16
ENDBRANCH  10  12
ENDBRANCH   1   5
BRANCH   2  18
ATOM     18  C   UNL d   1      25.156 -14.534  -3.679  0.00  0.00     0.310 C 
ATOM     19  O   UNL d   1      24.562 -13.559  -4.139  0.00  0.00    -0.262 OA
ATOM     20  N   UNL d   1      24.729 -15.132  -2.486  0.00  0.00    -0.343 N 
ATOM     21  H   UNL d   1      23.782 -14.871  -2.244  0.00  0.00     0.163 HD
BRANCH  20  22
ATOM     22  C   UNL d   1      25.296 -16.221  -1.650  0.00  0.00     0.128 C 
BRANCH  22  23
ATOM     23  C   UNL d   1      26.284 -15.707  -0.533  0.00  0.00     0.005 C 
ATOM     24  C   UNL d   1      27.113 -16.846   0.080  0.00  0.00     0.012 C 
ATOM     25  C   UNL d   1      27.290 -14.677  -1.048  0.00  0.00     0.012 C 
ENDBRANCH  22  23
BRANCH  22  26
ATOM     26  C   UNL d   1      24.156 -17.073  -1.134  0.00  0.00     0.005 C 
ATOM     27  C   UNL d   1      24.274 -18.404  -0.862  0.00  0.00     0.017 C 
ATOM     28  C   UNL d   1      23.206 -18.956  -0.145  0.00  0.00     0.008 C 
ATOM     29  C   UNL d   1      22.155 -18.096  -0.078  0.00  0.00     0.050 C 
ATOM     30  S   UNL d   1      22.553 -16.582  -0.792  0.00  0.00    -0.104 SA
ENDBRANCH  22  26
ENDBRANCH  20  22
ENDBRANCH   2  18
TORSDOF 7
ENDMDL
MODEL 8
REMARK VINA RESULT:    -6.739      2.569      5.056
REMARK INTER + INTRA:         -11.019
REMARK INTER:                  -8.827
REMARK INTRA:                  -2.192
REMARK CONF_INDEPENDENT:        2.088
REMARK UNBOUND:                -2.192
REMARK  7 active torsions:
REMARK  status: ('A' for Active; 'I' for Inactive)
REMARK    1  A    between atoms: C_2  and  N_3 
REMARK       I    between atoms: N_3  and  C_4 
REMARK    2  A    between atoms: C_4  and  C_6 
REMARK    3  A    between atoms: C_11  and  N_12 
REMARK       I    between atoms: N_12  and  C_13 
REMARK    4  A    between atoms: C_13  and  C_15 
REMARK       I    between atoms: C_15  and  N_17 
REMARK    5  A    between atoms: C_18  and  N_17 
REMARK    6  A    between atoms: C_18  and  C_24 
REMARK    7  A    between atoms: C_18  and  C_19 
ROOT
ATOM      1  N   UNL d   1      29.280 -16.587  -3.710  0.00  0.00    -0.318 N 
ATOM      2  C   UNL d   1      29.641 -16.337  -2.381  0.00  0.00     0.314 C 
ATOM      3  O   UNL d   1      30.127 -15.256  -2.022  0.00  0.00    -0.262 OA
ATOM      4  H   UNL d   1      29.457 -17.530  -4.048  0.00  0.00     0.169 HD
ENDROOT
BRANCH   1   5
ATOM      5  C   UNL d   1      28.995 -15.537  -4.673  0.00  0.00     0.042 A 
ATOM      6  C   UNL d   1      29.418 -15.581  -5.994  0.00  0.00    -0.035 A 
ATOM      7  C   UNL d   1      29.019 -14.555  -6.895  0.00  0.00     0.010 A 
ATOM      8  C   UNL d   1      30.340 -16.670  -6.441  0.00  0.00     0.050 C 
ATOM      9  C   UNL d   1      28.165 -13.504  -6.507  0.00  0.00     0.017 A 
ATOM     10  C   UNL d   1      27.748 -13.414  -5.187  0.00  0.00     0.034 A 
ATOM     11  C   UNL d   1      28.224 -14.418  -4.327  0.00  0.00     0.047 A 
BRANCH  10  12
ATOM     12  C   UNL d   1      26.702 -12.375  -4.805  0.00  0.00     0.251 C 
ATOM     13  N   UNL d   1      25.343 -12.637  -4.906  0.00  0.00    -0.357 N 
ATOM     14  H   UNL d   1      24.786 -11.793  -5.000  0.00  0.00     0.162 HD
ATOM     15  O   UNL d   1      27.044 -11.222  -4.542  0.00  0.00    -0.268 OA
BRANCH  13  16
ATOM     16  C   UNL d   1      24.668 -13.744  -4.263  0.00  0.00     0.118 C 
ATOM     17  C   UNL d   1      25.003 -13.865  -2.787  0.00  0.00     0.026 C 
ENDBRANCH  13  16
ENDBRANCH  10  12
ENDBRANCH   1   5
BRANCH   2  18
ATOM     18  C   UNL d   1      29.642 -17.448  -1.309  0.00  0.00     0.310 C 
ATOM     19  O   UNL d   1      30.458 -18.364  -1.409  0.00  0.00    -0.262 OA
ATOM     20  N   UNL d   1      28.828 -17.338  -0.175  0.00  0.00    -0.343 N 
ATOM     21  H   UNL d   1      29.180 -17.879   0.604  0.00  0.00     0.163 HD
BRANCH  20  22
ATOM     22  C   UNL d   1      27.703 -16.431   0.170  0.00  0.00     0.128 C 
BRANCH  22  23
ATOM     23  C   UNL d   1      27.985 -14.919  -0.181  0.00  0.00     0.005 C 
ATOM     24  C   UNL d   1      26.754 -14.029   0.054  0.00  0.00     0.012 C 
ATOM     25  C   UNL d   1      29.116 -14.310   0.648  0.00  0.00     0.012 C 
ENDBRANCH  22  23
BRANCH  22  26
ATOM     26  C   UNL d   1      26.432 -16.989  -0.435  0.00  0.00     0.005 C 
ATOM     27  C   UNL d   1      25.591 -17.831   0.228  0.00  0.00     0.017 C 
ATOM     28  C   UNL d   1      24.346 -18.022  -0.384  0.00  0.00     0.008 C 
ATOM     29  C   UNL d   1      24.329 -17.511  -1.645  0.00  0.00     0.050 C 
ATOM     30  S   UNL d   1      25.803 -16.699  -1.999  0.00  0.00    -0.104 SA
ENDBRANCH  22  26
ENDBRANCH  20  22
ENDBRANCH   2  18
TORSDOF 7
ENDMDL
MODEL 9
REMARK VINA RESULT:    -6.438      3.427      5.997
REMARK INTER + INTRA:         -11.166
REMARK INTER:                  -8.526
REMARK INTRA:                  -2.640
REMARK CONF_INDEPENDENT:        2.088
REMARK UNBOUND:                -2.640
REMARK  7 active torsions:
REMARK  status: ('A' for Active; 'I' for Inactive)
REMARK    1  A    between atoms: C_2  and  N_3 
REMARK       I    between atoms: N_3  and  C_4 
REMARK    2  A    between atoms: C_4  and  C_6 
REMARK    3  A    between atoms: C_11  and  N_12 
REMARK       I    between atoms: N_12  and  C_13 
REMARK    4  A    between atoms: C_13  and  C_15 
REMARK       I    between atoms: C_15  and  N_17 
REMARK    5  A    between atoms: C_18  and  N_17 
REMARK    6  A    between atoms: C_18  and  C_24 
REMARK    7  A    between atoms: C_18  and  C_19 
ROOT
ATOM      1  N   UNL d   1      24.775 -15.695  -2.348  0.00  0.00    -0.318 N 
ATOM      2  C   UNL d   1      25.179 -14.408  -2.722  0.00  0.00     0.314 C 
ATOM      3  O   UNL d   1      25.900 -13.707  -1.998  0.00  0.00    -0.262 OA
ATOM      4  H   UNL d   1      23.827 -15.955  -2.610  0.00  0.00     0.169 HD
ENDROOT
BRANCH   1   5
ATOM      5  C   UNL d   1      25.482 -16.503  -1.370  0.00  0.00     0.042 A 
ATOM      6  C   UNL d   1      24.850 -17.419  -0.541  0.00  0.00    -0.035 A 
ATOM      7  C   UNL d   1      25.628 -18.237   0.326  0.00  0.00     0.010 A 
ATOM      8  C   UNL d   1      23.357 -17.492  -0.519  0.00  0.00     0.050 C 
ATOM      9  C   UNL d   1      27.035 -18.185   0.347  0.00  0.00     0.017 A 
ATOM     10  C   UNL d   1      27.697 -17.261  -0.449  0.00  0.00     0.034 A 
ATOM     11  C   UNL d   1      26.876 -16.436  -1.237  0.00  0.00     0.047 A 
BRANCH  10  12
ATOM     12  C   UNL d   1      29.216 -17.313  -0.548  0.00  0.00     0.251 C 
ATOM     13  N   UNL d   1      29.991 -16.164  -0.484  0.00  0.00    -0.357 N 
ATOM     14  H   UNL d   1      30.895 -16.274  -0.934  0.00  0.00     0.162 HD
ATOM     15  O   UNL d   1      29.780 -18.367  -0.842  0.00  0.00    -0.268 OA
BRANCH  13  16
ATOM     16  C   UNL d   1      29.964 -15.212   0.606  0.00  0.00     0.118 C 
ATOM     17  C   UNL d   1      28.713 -14.353   0.611  0.00  0.00     0.026 C 
ENDBRANCH  13  16
ENDBRANCH  10  12
ENDBRANCH   1   5
BRANCH   2  18
ATOM     18  C   UNL d   1      24.602 -13.695  -3.964  0.00  0.00     0.310 C 
ATOM     19  O   UNL d   1      23.428 -13.900  -4.270  0.00  0.00    -0.262 OA
ATOM     20  N   UNL d   1      25.359 -12.731  -4.642  0.00  0.00    -0.343 N 
ATOM     21  H   UNL d   1      24.779 -12.080  -5.156  0.00  0.00     0.163 HD
BRANCH  20  22
ATOM     22  C   UNL d   1      26.793 -12.350  -4.575  0.00  0.00     0.128 C 
BRANCH  22  23
ATOM     23  C   UNL d   1      27.122 -11.343  -3.405  0.00  0.00     0.005 C 
ATOM     24  C   UNL d   1      28.424 -10.567  -3.655  0.00  0.00     0.012 C 
ATOM     25  C   UNL d   1      26.033 -10.291  -3.195  0.00  0.00     0.012 C 
ENDBRANCH  22  23
BRANCH  22  26
ATOM     26  C   UNL d   1      27.626 -13.614  -4.566  0.00  0.00     0.005 C 
ATOM     27  C   UNL d   1      28.458 -13.959  -3.542  0.00  0.00     0.017 C 
ATOM     28  C   UNL d   1      28.932 -15.275  -3.586  0.00  0.00     0.008 C 
ATOM     29  C   UNL d   1      28.652 -15.865  -4.780  0.00  0.00     0.050 C 
ATOM     30  S   UNL d   1      27.704 -14.825  -5.770  0.00  0.00    -0.104 SA
ENDBRANCH  22  26
ENDBRANCH  20  22
ENDBRANCH   2  18
TORSDOF 7
ENDMDL
