MODEL 1
REMARK VINA RESULT:    -8.249      0.000      0.000
REMARK INTER + INTRA:         -11.795
REMARK INTER:                  -9.741
REMARK INTRA:                  -2.055
REMARK CONF_INDEPENDENT:        1.492
REMARK UNBOUND:                -2.055
REMARK  5 active torsions:
REMARK  status: ('A' for Active; 'I' for Inactive)
REMARK    1  A    between atoms: C_5  and  C_6 
REMARK    2  A    between atoms: C_9  and  S_10 
REMARK    3  A    between atoms: S_10  and  C_11 
REMARK    4  A    between atoms: C_11  and  C_12 
REMARK       I    between atoms: C_12  and  N_14 
REMARK    5  A    between atoms: N_14  and  C_15 
ROOT
ATOM      1  C   UNL d   1      27.345 -13.483  -0.163  0.00  0.00     0.229 C 
ATOM      2  O   UNL d   1      28.152 -12.565  -0.046  0.00  0.00    -0.273 OA
ATOM      3  N   UNL d   1      26.457 -13.576  -1.219  0.00  0.00    -0.330 N 
ATOM      4  H   UNL d   1      25.653 -14.184  -1.165  0.00  0.00     0.165 HD
ENDROOT
BRANCH   1   5
ATOM      5  C   UNL d   1      27.257 -14.535   0.928  0.00  0.00     0.180 C 
BRANCH   5   6
ATOM      6  S   UNL d   1      28.589 -15.793   0.628  0.00  0.00    -0.112 SA
BRANCH   6   7
ATOM      7  C   UNL d   1      27.800 -16.753  -0.650  0.00  0.00     0.267 A 
ATOM      8  N   UNL d   1      27.268 -15.949  -1.725  0.00  0.00    -0.279 N 
ATOM      9  N   UNL d   1      25.941 -16.184  -1.944  0.00  0.00    -0.158 NA
ATOM     10  H   UNL d   1      27.799 -15.244  -2.213  0.00  0.00     0.185 HD
ATOM     11  C   UNL d   1      25.594 -17.052  -1.005  0.00  0.00     0.157 A 
ATOM     12  N   UNL d   1      26.633 -17.454  -0.177  0.00  0.00    -0.337 N 
ATOM     13  C   UNL d   1      26.571 -18.181   1.053  0.00  0.00     0.154 C 
BRANCH  11  14
ATOM     14  C   UNL d   1      24.209 -17.558  -0.886  0.00  0.00     0.011 A 
ATOM     15  C   UNL d   1      23.986 -18.895  -0.552  0.00  0.00     0.016 A 
ATOM     16  C   UNL d   1      22.677 -19.357  -0.374  0.00  0.00     0.007 A 
ATOM     17  C   UNL d   1      21.587 -18.491  -0.539  0.00  0.00    -0.062 A 
ATOM     18  C   UNL d   1      20.178 -18.970  -0.342  0.00  0.00     0.048 C 
ATOM     19  C   UNL d   1      21.824 -17.157  -0.895  0.00  0.00     0.007 A 
ATOM     20  C   UNL d   1      23.130 -16.692  -1.070  0.00  0.00     0.016 A 
ENDBRANCH  11  14
ENDBRANCH   6   7
ENDBRANCH   5   6
ENDBRANCH   1   5
BRANCH   3  21
ATOM     21  C   UNL d   1      26.532 -12.764  -2.426  0.00  0.00     0.264 C 
ATOM     22  O   UNL d   1      27.792 -12.045  -2.374  0.00  0.00    -0.353 OA
ATOM     23  C   UNL d   1      28.577 -12.405  -3.545  0.00  0.00     0.152 C 
ATOM     24  C   UNL d   1      27.751 -13.390  -4.277  0.00  0.00    -0.017 C 
ATOM     25  C   UNL d   1      29.927 -12.941  -3.109  0.00  0.00     0.044 C 
ATOM     26  C   UNL d   1      26.568 -13.502  -3.689  0.00  0.00     0.066 C 
ATOM     27  C   UNL d   1      28.161 -14.162  -5.468  0.00  0.00     0.105 C 
ATOM     28  C   UNL d   1      25.549 -14.412  -4.195  0.00  0.00     0.266 C 
ATOM     29  O   UNL d   1      24.416 -14.452  -3.709  0.00  0.00    -0.266 OA
ATOM     30  N   UNL d   1      25.958 -15.253  -5.205  0.00  0.00    -0.287 N 
ATOM     31  N   UNL d   1      27.174 -15.160  -5.926  0.00  0.00    -0.229 NA
ATOM     32  H   UNL d   1      25.326 -16.021  -5.409  0.00  0.00     0.184 HD
ATOM     33  H   UNL d   1      26.920 -14.951  -6.892  0.00  0.00     0.147 HD
ATOM     34  C   UNL d   1      28.397 -13.170  -6.598  0.00  0.00     0.033 C 
ENDBRANCH   3  21
TORSDOF 5
ENDMDL
MODEL 2
REMARK VINA RESULT:    -7.981      4.803      7.888
REMARK INTER + INTRA:         -10.722
REMARK INTER:                  -9.472
REMARK INTRA:                  -1.250
REMARK CONF_INDEPENDENT:        1.492
REMARK UNBOUND:                -1.250
REMARK  5 active torsions:
REMARK  status: ('A' for Active; 'I' for Inactive)
REMARK    1  A    between atoms: C_5  and  C_6 
REMARK    2  A    between atoms: C_9  and  S_10 
REMARK    3  A    between atoms: S_10  and  C_11 
REMARK    4  A    between atoms: C_11  and  C_12 
REMARK       I    between atoms: C_12  and  N_14 
REMARK    5  A    between atoms: N_14  and  C_15 
ROOT
ATOM      1  C   UNL d   1      27.260 -14.706   0.074  0.00  0.00     0.229 C 
ATOM      2  O   UNL d   1      27.128 -15.539   0.966  0.00  0.00    -0.273 OA
ATOM      3  N   UNL d   1      27.128 -15.012  -1.268  0.00  0.00    -0.330 N 
ATOM      4  H   UNL d   1      27.480 -14.386  -1.978  0.00  0.00     0.165 HD
ENDROOT
BRANCH   1   5
ATOM      5  C   UNL d   1      27.656 -13.287   0.438  0.00  0.00     0.180 C 
BRANCH   5   6
ATOM      6  S   UNL d   1      27.002 -12.921   2.136  0.00  0.00    -0.112 SA
BRANCH   6   7
ATOM      7  C   UNL d   1      28.403 -13.448   3.107  0.00  0.00     0.267 A 
ATOM      8  N   UNL d   1      28.308 -14.818   3.551  0.00  0.00    -0.279 N 
ATOM      9  N   UNL d   1      28.435 -14.936   4.906  0.00  0.00    -0.158 NA
ATOM     10  H   UNL d   1      28.102 -15.593   2.940  0.00  0.00     0.185 HD
ATOM     11  C   UNL d   1      28.534 -13.690   5.344  0.00  0.00     0.157 A 
ATOM     12  N   UNL d   1      28.523 -12.724   4.346  0.00  0.00    -0.337 N 
ATOM     13  C   UNL d   1      28.381 -11.307   4.472  0.00  0.00     0.154 C 
BRANCH  11  14
ATOM     14  C   UNL d   1      28.673 -13.379   6.783  0.00  0.00     0.011 A 
ATOM     15  C   UNL d   1      28.155 -12.185   7.288  0.00  0.00     0.016 A 
ATOM     16  C   UNL d   1      28.227 -11.922   8.661  0.00  0.00     0.007 A 
ATOM     17  C   UNL d   1      28.827 -12.843   9.532  0.00  0.00    -0.062 A 
ATOM     18  C   UNL d   1      28.903 -12.579  11.008  0.00  0.00     0.048 C 
ATOM     19  C   UNL d   1      29.361 -14.027   9.009  0.00  0.00     0.007 A 
ATOM     20  C   UNL d   1      29.288 -14.294   7.640  0.00  0.00     0.016 A 
ENDBRANCH  11  14
ENDBRANCH   6   7
ENDBRANCH   5   6
ENDBRANCH   1   5
BRANCH   3  21
ATOM     21  C   UNL d   1      26.578 -16.263  -1.773  0.00  0.00     0.264 C 
ATOM     22  O   UNL d   1      27.271 -17.337  -1.084  0.00  0.00    -0.353 OA
ATOM     23  C   UNL d   1      26.289 -18.137  -0.370  0.00  0.00     0.152 C 
ATOM     24  C   UNL d   1      24.989 -17.479  -0.633  0.00  0.00    -0.017 C 
ATOM     25  C   UNL d   1      26.656 -18.204   1.100  0.00  0.00     0.044 C 
ATOM     26  C   UNL d   1      25.160 -16.492  -1.502  0.00  0.00     0.066 C 
ATOM     27  C   UNL d   1      23.692 -17.830  -0.019  0.00  0.00     0.105 C 
ATOM     28  C   UNL d   1      24.044 -15.662  -1.939  0.00  0.00     0.266 C 
ATOM     29  O   UNL d   1      24.179 -14.806  -2.816  0.00  0.00    -0.266 OA
ATOM     30  N   UNL d   1      22.859 -15.867  -1.270  0.00  0.00    -0.287 N 
ATOM     31  N   UNL d   1      22.577 -16.931  -0.379  0.00  0.00    -0.229 NA
ATOM     32  H   UNL d   1      22.151 -15.155  -1.422  0.00  0.00     0.184 HD
ATOM     33  H   UNL d   1      21.838 -17.483  -0.816  0.00  0.00     0.147 HD
ATOM     34  C   UNL d   1      23.336 -19.238  -0.475  0.00  0.00     0.033 C 
ENDBRANCH   3  21
TORSDOF 5
ENDMDL
MODEL 3
REMARK VINA RESULT:    -7.850      3.102      4.997
REMARK INTER + INTRA:         -10.739
REMARK INTER:                  -9.342
REMARK INTRA:                  -1.397
REMARK CONF_INDEPENDENT:        1.492
REMARK UNBOUND:                -1.397
REMARK  5 active torsions:
REMARK  status: ('A' for Active; 'I' for Inactive)
REMARK    1  A    between atoms: C_5  and  C_6 
REMARK    2  A    between atoms: C_9  and  S_10 
REMARK    3  A    between atoms: S_10  and  C_11 
REMARK    4  A    between atoms: C_11  and  C_12 
REMARK       I    between atoms: C_12  and  N_14 
REMARK    5  A    between atoms: N_14  and  C_15 
ROOT
ATOM      1  C   UNL d   1      26.930 -11.104  -6.383  0.00  0.00     0.229 C 
ATOM      2  O   UNL d   1      26.164 -11.145  -7.342  0.00  0.00    -0.273 OA
ATOM      3  N   UNL d   1      27.961 -12.009  -6.205  0.00  0.00    -0.330 N 
ATOM      4  H   UNL d   1      28.410 -12.109  -5.306  0.00  0.00     0.165 HD
ENDROOT
BRANCH   1   5
ATOM      5  C   UNL d   1      26.708 -10.065  -5.300  0.00  0.00     0.180 C 
BRANCH   5   6
ATOM      6  S   UNL d   1      25.732 -10.854  -3.932  0.00  0.00    -0.112 SA
BRANCH   6   7
ATOM      7  C   UNL d   1      25.997 -12.570  -4.339  0.00  0.00     0.267 A 
ATOM      8  N   UNL d   1      24.775 -13.292  -4.600  0.00  0.00    -0.279 N 
ATOM      9  N   UNL d   1      24.648 -14.403  -3.816  0.00  0.00    -0.158 NA
ATOM     10  H   UNL d   1      24.062 -12.975  -5.239  0.00  0.00     0.185 HD
ATOM     11  C   UNL d   1      25.706 -14.375  -3.019  0.00  0.00     0.157 A 
ATOM     12  N   UNL d   1      26.575 -13.316  -3.250  0.00  0.00    -0.337 N 
ATOM     13  C   UNL d   1      27.664 -12.858  -2.445  0.00  0.00     0.154 C 
BRANCH  11  14
ATOM     14  C   UNL d   1      25.936 -15.414  -1.993  0.00  0.00     0.011 A 
ATOM     15  C   UNL d   1      24.865 -16.177  -1.527  0.00  0.00     0.016 A 
ATOM     16  C   UNL d   1      25.093 -17.206  -0.605  0.00  0.00     0.007 A 
ATOM     17  C   UNL d   1      26.389 -17.469  -0.138  0.00  0.00    -0.062 A 
ATOM     18  C   UNL d   1      26.651 -18.575   0.843  0.00  0.00     0.048 C 
ATOM     19  C   UNL d   1      27.452 -16.682  -0.598  0.00  0.00     0.007 A 
ATOM     20  C   UNL d   1      27.227 -15.657  -1.520  0.00  0.00     0.016 A 
ENDBRANCH  11  14
ENDBRANCH   6   7
ENDBRANCH   5   6
ENDBRANCH   1   5
BRANCH   3  21
ATOM     21  C   UNL d   1      28.420 -12.940  -7.226  0.00  0.00     0.264 C 
ATOM     22  O   UNL d   1      29.507 -12.289  -7.934  0.00  0.00    -0.353 OA
ATOM     23  C   UNL d   1      30.700 -13.110  -7.805  0.00  0.00     0.152 C 
ATOM     24  C   UNL d   1      30.291 -14.257  -6.964  0.00  0.00    -0.017 C 
ATOM     25  C   UNL d   1      31.826 -12.284  -7.209  0.00  0.00     0.044 C 
ATOM     26  C   UNL d   1      28.987 -14.196  -6.735  0.00  0.00     0.066 C 
ATOM     27  C   UNL d   1      31.180 -15.310  -6.430  0.00  0.00     0.105 C 
ATOM     28  C   UNL d   1      28.309 -15.200  -5.925  0.00  0.00     0.266 C 
ATOM     29  O   UNL d   1      27.083 -15.201  -5.786  0.00  0.00    -0.266 OA
ATOM     30  N   UNL d   1      29.134 -16.101  -5.290  0.00  0.00    -0.287 N 
ATOM     31  N   UNL d   1      30.520 -16.272  -5.525  0.00  0.00    -0.229 NA
ATOM     32  H   UNL d   1      28.687 -16.657  -4.566  0.00  0.00     0.184 HD
ATOM     33  H   UNL d   1      30.632 -17.212  -5.907  0.00  0.00     0.147 HD
ATOM     34  C   UNL d   1      31.744 -16.079  -7.616  0.00  0.00     0.033 C 
ENDBRANCH   3  21
TORSDOF 5
ENDMDL
MODEL 4
REMARK VINA RESULT:    -7.836      1.597      2.147
REMARK INTER + INTRA:         -11.734
REMARK INTER:                  -9.328
REMARK INTRA:                  -2.406
REMARK CONF_INDEPENDENT:        1.492
REMARK UNBOUND:                -2.406
REMARK  5 active torsions:
REMARK  status: ('A' for Active; 'I' for Inactive)
REMARK    1  A    between atoms: C_5  and  C_6 
REMARK    2  A    between atoms: C_9  and  S_10 
REMARK    3  A    between atoms: S_10  and  C_11 
REMARK    4  A    between atoms: C_11  and  C_12 
REMARK       I    between atoms: C_12  and  N_14 
REMARK    5  A    between atoms: N_14  and  C_15 
ROOT
ATOM      1  C   UNL d   1      26.579 -12.719  -2.155  0.00  0.00     0.229 C 
ATOM      2  O   UNL d   1      26.942 -11.563  -2.351  0.00  0.00    -0.273 OA
ATOM      3  N   UNL d   1      25.839 -13.443  -3.073  0.00  0.00    -0.330 N 
ATOM      4  H   UNL d   1      25.348 -14.280  -2.795  0.00  0.00     0.165 HD
ENDROOT
BRANCH   1   5
ATOM      5  C   UNL d   1      26.885 -13.375  -0.822  0.00  0.00     0.180 C 
BRANCH   5   6
ATOM      6  S   UNL d   1      28.499 -14.281  -0.979  0.00  0.00    -0.112 SA
BRANCH   6   7
ATOM      7  C   UNL d   1      27.894 -15.850  -1.573  0.00  0.00     0.267 A 
ATOM      8  N   UNL d   1      27.181 -15.753  -2.824  0.00  0.00    -0.279 N 
ATOM      9  N   UNL d   1      25.927 -16.287  -2.752  0.00  0.00    -0.158 NA
ATOM     10  H   UNL d   1      27.542 -15.282  -3.640  0.00  0.00     0.185 HD
ATOM     11  C   UNL d   1      25.790 -16.654  -1.486  0.00  0.00     0.157 A 
ATOM     12  N   UNL d   1      26.910 -16.433  -0.696  0.00  0.00    -0.337 N 
ATOM     13  C   UNL d   1      27.030 -16.492   0.727  0.00  0.00     0.154 C 
BRANCH  11  14
ATOM     14  C   UNL d   1      24.544 -17.273  -0.985  0.00  0.00     0.011 A 
ATOM     15  C   UNL d   1      23.359 -16.535  -0.976  0.00  0.00     0.016 A 
ATOM     16  C   UNL d   1      22.166 -17.142  -0.565  0.00  0.00     0.007 A 
ATOM     17  C   UNL d   1      22.154 -18.482  -0.151  0.00  0.00    -0.062 A 
ATOM     18  C   UNL d   1      20.881 -19.149   0.283  0.00  0.00     0.048 C 
ATOM     19  C   UNL d   1      23.354 -19.204  -0.145  0.00  0.00     0.007 A 
ATOM     20  C   UNL d   1      24.545 -18.601  -0.558  0.00  0.00     0.016 A 
ENDBRANCH  11  14
ENDBRANCH   6   7
ENDBRANCH   5   6
ENDBRANCH   1   5
BRANCH   3  21
ATOM     21  C   UNL d   1      25.621 -13.034  -4.453  0.00  0.00     0.264 C 
ATOM     22  O   UNL d   1      25.655 -11.583  -4.475  0.00  0.00    -0.353 OA
ATOM     23  C   UNL d   1      26.719 -11.160  -5.373  0.00  0.00     0.152 C 
ATOM     24  C   UNL d   1      27.337 -12.414  -5.859  0.00  0.00    -0.017 C 
ATOM     25  C   UNL d   1      27.680 -10.250  -4.633  0.00  0.00     0.044 C 
ATOM     26  C   UNL d   1      26.644 -13.452  -5.412  0.00  0.00     0.066 C 
ATOM     27  C   UNL d   1      28.552 -12.524  -6.692  0.00  0.00     0.105 C 
ATOM     28  C   UNL d   1      27.032 -14.820  -5.730  0.00  0.00     0.266 C 
ATOM     29  O   UNL d   1      26.340 -15.785  -5.396  0.00  0.00    -0.266 OA
ATOM     30  N   UNL d   1      28.242 -14.956  -6.373  0.00  0.00    -0.287 N 
ATOM     31  N   UNL d   1      29.010 -13.906  -6.935  0.00  0.00    -0.229 NA
ATOM     32  H   UNL d   1      28.610 -15.902  -6.403  0.00  0.00     0.184 HD
ATOM     33  H   UNL d   1      29.032 -14.074  -7.942  0.00  0.00     0.147 HD
ATOM     34  C   UNL d   1      28.243 -11.881  -8.038  0.00  0.00     0.033 C 
ENDBRANCH   3  21
TORSDOF 5
ENDMDL
MODEL 5
REMARK VINA RESULT:    -7.313      2.790      5.599
REMARK INTER + INTRA:         -10.375
REMARK INTER:                  -8.805
REMARK INTRA:                  -1.571
REMARK CONF_INDEPENDENT:        1.492
REMARK UNBOUND:                -1.571
REMARK  5 active torsions:
REMARK  status: ('A' for Active; 'I' for Inactive)
REMARK    1  A    between atoms: C_5  and  C_6 
REMARK    2  A    between atoms: C_9  and  S_10 
REMARK    3  A    between atoms: S_10  and  C_11 
REMARK    4  A    between atoms: C_11  and  C_12 
REMARK       I    between atoms: C_12  and  N_14 
REMARK    5  A    between atoms: N_14  and  C_15 
ROOT
ATOM      1  C   UNL d   1      27.147 -10.943  -2.124  0.00  0.00     0.229 C 
ATOM      2  O   UNL d   1      27.791  -9.906  -2.259  0.00  0.00    -0.273 OA
ATOM      3  N   UNL d   1      27.465 -11.910  -1.187  0.00  0.00    -0.330 N 
ATOM      4  H   UNL d   1      27.087 -12.843  -1.259  0.00  0.00     0.165 HD
ENDROOT
BRANCH   1   5
ATOM      5  C   UNL d   1      25.991 -11.226  -3.065  0.00  0.00     0.180 C 
BRANCH   5   6
ATOM      6  S   UNL d   1      26.690 -11.597  -4.745  0.00  0.00    -0.112 SA
BRANCH   6   7
ATOM      7  C   UNL d   1      26.162 -13.292  -4.911  0.00  0.00     0.267 A 
ATOM      8  N   UNL d   1      24.756 -13.483  -4.644  0.00  0.00    -0.279 N 
ATOM      9  N   UNL d   1      24.531 -14.423  -3.681  0.00  0.00    -0.158 NA
ATOM     10  H   UNL d   1      24.025 -12.934  -5.071  0.00  0.00     0.185 HD
ATOM     11  C   UNL d   1      25.739 -14.785  -3.275  0.00  0.00     0.157 A 
ATOM     12  N   UNL d   1      26.784 -14.164  -3.946  0.00  0.00    -0.337 N 
ATOM     13  C   UNL d   1      28.175 -14.144  -3.618  0.00  0.00     0.154 C 
BRANCH  11  14
ATOM     14  C   UNL d   1      25.933 -15.792  -2.209  0.00  0.00     0.011 A 
ATOM     15  C   UNL d   1      27.214 -16.034  -1.710  0.00  0.00     0.016 A 
ATOM     16  C   UNL d   1      27.389 -16.938  -0.656  0.00  0.00     0.007 A 
ATOM     17  C   UNL d   1      26.290 -17.611  -0.104  0.00  0.00    -0.062 A 
ATOM     18  C   UNL d   1      26.461 -18.576   1.033  0.00  0.00     0.048 C 
ATOM     19  C   UNL d   1      25.013 -17.374  -0.629  0.00  0.00     0.007 A 
ATOM     20  C   UNL d   1      24.835 -16.470  -1.679  0.00  0.00     0.016 A 
ENDBRANCH  11  14
ENDBRANCH   6   7
ENDBRANCH   5   6
ENDBRANCH   1   5
BRANCH   3  21
ATOM     21  C   UNL d   1      28.415 -11.717  -0.100  0.00  0.00     0.264 C 
ATOM     22  O   UNL d   1      27.938 -10.592   0.684  0.00  0.00    -0.353 OA
ATOM     23  C   UNL d   1      27.711 -11.042   2.048  0.00  0.00     0.152 C 
ATOM     24  C   UNL d   1      28.039 -12.486   2.039  0.00  0.00    -0.017 C 
ATOM     25  C   UNL d   1      26.280 -10.742   2.454  0.00  0.00     0.044 C 
ATOM     26  C   UNL d   1      28.528 -12.821   0.852  0.00  0.00     0.066 C 
ATOM     27  C   UNL d   1      27.842 -13.434   3.154  0.00  0.00     0.105 C 
ATOM     28  C   UNL d   1      28.931 -14.190   0.555  0.00  0.00     0.266 C 
ATOM     29  O   UNL d   1      29.472 -14.489  -0.512  0.00  0.00    -0.266 OA
ATOM     30  N   UNL d   1      28.615 -15.120   1.520  0.00  0.00    -0.287 N 
ATOM     31  N   UNL d   1      28.152 -14.840   2.829  0.00  0.00    -0.229 NA
ATOM     32  H   UNL d   1      28.700 -16.089   1.227  0.00  0.00     0.184 HD
ATOM     33  H   UNL d   1      28.876 -15.173   3.467  0.00  0.00     0.147 HD
ATOM     34  C   UNL d   1      28.752 -12.996   4.294  0.00  0.00     0.033 C 
ENDBRANCH   3  21
TORSDOF 5
ENDMDL
MODEL 6
REMARK VINA RESULT:    -7.153      1.472      2.137
REMARK INTER + INTRA:         -11.297
REMARK INTER:                  -8.644
REMARK INTRA:                  -2.653
REMARK CONF_INDEPENDENT:        1.492
REMARK UNBOUND:                -2.653
REMARK  5 active torsions:
REMARK  status: ('A' for Active; 'I' for Inactive)
REMARK    1  A    between atoms: C_5  and  C_6 
REMARK    2  A    between atoms: C_9  and  S_10 
REMARK    3  A    between atoms: S_10  and  C_11 
REMARK    4  A    between atoms: C_11  and  C_12 
REMARK       I    between atoms: C_12  and  N_14 
REMARK    5  A    between atoms: N_14  and  C_15 
ROOT
ATOM      1  C   UNL d   1      27.223 -11.635  -1.121  0.00  0.00     0.229 C 
ATOM      2  O   UNL d   1      27.433 -10.435  -1.269  0.00  0.00    -0.273 OA
ATOM      3  N   UNL d   1      26.715 -12.441  -2.124  0.00  0.00    -0.330 N 
ATOM      4  H   UNL d   1      26.323 -13.346  -1.910  0.00  0.00     0.165 HD
ENDROOT
BRANCH   1   5
ATOM      5  C   UNL d   1      27.458 -12.266   0.239  0.00  0.00     0.180 C 
BRANCH   5   6
ATOM      6  S   UNL d   1      29.233 -12.803   0.330  0.00  0.00    -0.112 SA
BRANCH   6   7
ATOM      7  C   UNL d   1      29.089 -14.409  -0.431  0.00  0.00     0.267 A 
ATOM      8  N   UNL d   1      28.723 -14.351  -1.827  0.00  0.00    -0.279 N 
ATOM      9  N   UNL d   1      27.607 -15.087  -2.103  0.00  0.00    -0.158 NA
ATOM     10  H   UNL d   1      29.196 -13.777  -2.507  0.00  0.00     0.185 HD
ATOM     11  C   UNL d   1      27.209 -15.551  -0.928  0.00  0.00     0.157 A 
ATOM     12  N   UNL d   1      28.027 -15.200   0.138  0.00  0.00    -0.337 N 
ATOM     13  C   UNL d   1      27.779 -15.329   1.540  0.00  0.00     0.154 C 
BRANCH  11  14
ATOM     14  C   UNL d   1      26.004 -16.396  -0.791  0.00  0.00     0.011 A 
ATOM     15  C   UNL d   1      24.782 -15.948  -1.295  0.00  0.00     0.016 A 
ATOM     16  C   UNL d   1      23.655 -16.776  -1.225  0.00  0.00     0.007 A 
ATOM     17  C   UNL d   1      23.742 -18.048  -0.642  0.00  0.00    -0.062 A 
ATOM     18  C   UNL d   1      22.545 -18.952  -0.570  0.00  0.00     0.048 C 
ATOM     19  C   UNL d   1      24.969 -18.477  -0.122  0.00  0.00     0.007 A 
ATOM     20  C   UNL d   1      26.096 -17.654  -0.193  0.00  0.00     0.016 A 
ENDBRANCH  11  14
ENDBRANCH   6   7
ENDBRANCH   5   6
ENDBRANCH   1   5
BRANCH   3  21
ATOM     21  C   UNL d   1      26.610 -12.042  -3.520  0.00  0.00     0.264 C 
ATOM     22  O   UNL d   1      27.678 -11.091  -3.770  0.00  0.00    -0.353 OA
ATOM     23  C   UNL d   1      28.525 -11.616  -4.829  0.00  0.00     0.152 C 
ATOM     24  C   UNL d   1      27.940 -12.931  -5.177  0.00  0.00    -0.017 C 
ATOM     25  C   UNL d   1      29.961 -11.694  -4.344  0.00  0.00     0.044 C 
ATOM     26  C   UNL d   1      26.811 -13.105  -4.504  0.00  0.00     0.066 C 
ATOM     27  C   UNL d   1      28.514 -13.924  -6.107  0.00  0.00     0.105 C 
ATOM     28  C   UNL d   1      26.021 -14.322  -4.646  0.00  0.00     0.266 C 
ATOM     29  O   UNL d   1      24.925 -14.450  -4.096  0.00  0.00    -0.266 OA
ATOM     30  N   UNL d   1      26.609 -15.324  -5.384  0.00  0.00    -0.287 N 
ATOM     31  N   UNL d   1      27.775 -15.200  -6.179  0.00  0.00    -0.229 NA
ATOM     32  H   UNL d   1      26.164 -16.234  -5.306  0.00  0.00     0.184 HD
ATOM     33  H   UNL d   1      27.482 -15.356  -7.145  0.00  0.00     0.147 HD
ATOM     34  C   UNL d   1      28.525 -13.299  -7.496  0.00  0.00     0.033 C 
ENDBRANCH   3  21
TORSDOF 5
ENDMDL
MODEL 7
REMARK VINA RESULT:    -6.987      1.930      2.870
REMARK INTER + INTRA:         -10.880
REMARK INTER:                  -8.478
REMARK INTRA:                  -2.402
REMARK CONF_INDEPENDENT:        1.492
REMARK UNBOUND:                -2.402
REMARK  5 active torsions:
REMARK  status: ('A' for Active; 'I' for Inactive)
REMARK    1  A    between atoms: C_5  and  C_6 
REMARK    2  A    between atoms: C_9  and  S_10 
REMARK    3  A    between atoms: S_10  and  C_11 
REMARK    4  A    between atoms: C_11  and  C_12 
REMARK       I    between atoms: C_12  and  N_14 
REMARK    5  A    between atoms: N_14  and  C_15 
ROOT
ATOM      1  C   UNL d   1      29.054 -13.972  -2.732  0.00  0.00     0.229 C 
ATOM      2  O   UNL d   1      29.046 -12.783  -3.039  0.00  0.00    -0.273 OA
ATOM      3  N   UNL d   1      27.958 -14.800  -2.894  0.00  0.00    -0.330 N 
ATOM      4  H   UNL d   1      27.906 -15.687  -2.415  0.00  0.00     0.165 HD
ENDROOT
BRANCH   1   5
ATOM      5  C   UNL d   1      30.292 -14.560  -2.080  0.00  0.00     0.180 C 
BRANCH   5   6
ATOM      6  S   UNL d   1      30.138 -14.339  -0.243  0.00  0.00    -0.112 SA
BRANCH   6   7
ATOM      7  C   UNL d   1      29.453 -15.929   0.185  0.00  0.00     0.267 A 
ATOM      8  N   UNL d   1      29.533 -16.894  -0.886  0.00  0.00    -0.279 N 
ATOM      9  N   UNL d   1      28.316 -17.430  -1.196  0.00  0.00    -0.158 NA
ATOM     10  H   UNL d   1      30.380 -17.098  -1.395  0.00  0.00     0.185 HD
ATOM     11  C   UNL d   1      27.458 -16.792  -0.414  0.00  0.00     0.157 A 
ATOM     12  N   UNL d   1      28.038 -15.871   0.449  0.00  0.00    -0.337 N 
ATOM     13  C   UNL d   1      27.405 -14.866   1.245  0.00  0.00     0.154 C 
BRANCH  11  14
ATOM     14  C   UNL d   1      26.008 -17.076  -0.455  0.00  0.00     0.011 A 
ATOM     15  C   UNL d   1      25.157 -16.237  -1.176  0.00  0.00     0.016 A 
ATOM     16  C   UNL d   1      23.794 -16.543  -1.270  0.00  0.00     0.007 A 
ATOM     17  C   UNL d   1      23.274 -17.680  -0.636  0.00  0.00    -0.062 A 
ATOM     18  C   UNL d   1      21.817 -18.026  -0.736  0.00  0.00     0.048 C 
ATOM     19  C   UNL d   1      24.135 -18.501   0.103  0.00  0.00     0.007 A 
ATOM     20  C   UNL d   1      25.496 -18.200   0.195  0.00  0.00     0.016 A 
ENDBRANCH  11  14
ENDBRANCH   6   7
ENDBRANCH   5   6
ENDBRANCH   1   5
BRANCH   3  21
ATOM     21  C   UNL d   1      26.772 -14.448  -3.662  0.00  0.00     0.264 C 
ATOM     22  O   UNL d   1      26.015 -13.502  -2.861  0.00  0.00    -0.353 OA
ATOM     23  C   UNL d   1      25.876 -12.266  -3.616  0.00  0.00     0.152 C 
ATOM     24  C   UNL d   1      26.606 -12.501  -4.882  0.00  0.00    -0.017 C 
ATOM     25  C   UNL d   1      26.419 -11.107  -2.802  0.00  0.00     0.044 C 
ATOM     26  C   UNL d   1      27.014 -13.762  -4.931  0.00  0.00     0.066 C 
ATOM     27  C   UNL d   1      26.875 -11.500  -5.935  0.00  0.00     0.105 C 
ATOM     28  C   UNL d   1      27.769 -14.274  -6.067  0.00  0.00     0.266 C 
ATOM     29  O   UNL d   1      28.069 -15.466  -6.162  0.00  0.00    -0.266 OA
ATOM     30  N   UNL d   1      28.165 -13.328  -6.986  0.00  0.00    -0.287 N 
ATOM     31  N   UNL d   1      27.726 -11.983  -7.040  0.00  0.00    -0.229 NA
ATOM     32  H   UNL d   1      28.863 -13.643  -7.654  0.00  0.00     0.184 HD
ATOM     33  H   UNL d   1      27.213 -11.884  -7.918  0.00  0.00     0.147 HD
ATOM     34  C   UNL d   1      25.533 -11.075  -6.516  0.00  0.00     0.033 C 
ENDBRANCH   3  21
TORSDOF 5
ENDMDL
MODEL 8
REMARK VINA RESULT:    -6.335      2.328      3.634
REMARK INTER + INTRA:         -10.712
REMARK INTER:                  -7.827
REMARK INTRA:                  -2.885
REMARK CONF_INDEPENDENT:        1.492
REMARK UNBOUND:                -2.885
REMARK  5 active torsions:
REMARK  status: ('A' for Active; 'I' for Inactive)
REMARK    1  A    between atoms: C_5  and  C_6 
REMARK    2  A    between atoms: C_9  and  S_10 
REMARK    3  A    between atoms: S_10  and  C_11 
REMARK    4  A    between atoms: C_11  and  C_12 
REMARK       I    between atoms: C_12  and  N_14 
REMARK    5  A    between atoms: N_14  and  C_15 
ROOT
ATOM      1  C   UNL d   1      29.964 -11.474  -2.074  0.00  0.00     0.229 C 
ATOM      2  O   UNL d   1      30.411 -10.794  -2.994  0.00  0.00    -0.273 OA
ATOM      3  N   UNL d   1      29.125 -12.555  -2.275  0.00  0.00    -0.330 N 
ATOM      4  H   UNL d   1      28.581 -12.935  -1.514  0.00  0.00     0.165 HD
ENDROOT
BRANCH   1   5
ATOM      5  C   UNL d   1      30.279 -11.082  -0.643  0.00  0.00     0.180 C 
BRANCH   5   6
ATOM      6  S   UNL d   1      28.701 -11.142   0.334  0.00  0.00    -0.112 SA
BRANCH   6   7
ATOM      7  C   UNL d   1      28.799 -12.816   0.942  0.00  0.00     0.267 A 
ATOM      8  N   UNL d   1      29.605 -13.680   0.112  0.00  0.00    -0.279 N 
ATOM      9  N   UNL d   1      28.927 -14.794  -0.292  0.00  0.00    -0.158 NA
ATOM     10  H   UNL d   1      30.539 -13.453  -0.191  0.00  0.00     0.185 HD
ATOM     11  C   UNL d   1      27.703 -14.636   0.188  0.00  0.00     0.157 A 
ATOM     12  N   UNL d   1      27.521 -13.482   0.939  0.00  0.00    -0.337 N 
ATOM     13  C   UNL d   1      26.302 -12.894   1.399  0.00  0.00     0.154 C 
BRANCH  11  14
ATOM     14  C   UNL d   1      26.639 -15.636  -0.047  0.00  0.00     0.011 A 
ATOM     15  C   UNL d   1      25.524 -15.294  -0.814  0.00  0.00     0.016 A 
ATOM     16  C   UNL d   1      24.549 -16.261  -1.092  0.00  0.00     0.007 A 
ATOM     17  C   UNL d   1      24.679 -17.566  -0.597  0.00  0.00    -0.062 A 
ATOM     18  C   UNL d   1      23.648 -18.615  -0.896  0.00  0.00     0.048 C 
ATOM     19  C   UNL d   1      25.793 -17.889   0.188  0.00  0.00     0.007 A 
ATOM     20  C   UNL d   1      26.768 -16.928   0.465  0.00  0.00     0.016 A 
ENDBRANCH  11  14
ENDBRANCH   6   7
ENDBRANCH   5   6
ENDBRANCH   1   5
BRANCH   3  21
ATOM     21  C   UNL d   1      28.876 -13.169  -3.572  0.00  0.00     0.264 C 
ATOM     22  O   UNL d   1      29.424 -14.512  -3.516  0.00  0.00    -0.353 OA
ATOM     23  C   UNL d   1      28.351 -15.460  -3.771  0.00  0.00     0.152 C 
ATOM     24  C   UNL d   1      27.137 -14.632  -3.948  0.00  0.00    -0.017 C 
ATOM     25  C   UNL d   1      28.258 -16.447  -2.623  0.00  0.00     0.044 C 
ATOM     26  C   UNL d   1      27.470 -13.348  -3.933  0.00  0.00     0.066 C 
ATOM     27  C   UNL d   1      25.754 -15.129  -4.096  0.00  0.00     0.105 C 
ATOM     28  C   UNL d   1      26.468 -12.300  -4.079  0.00  0.00     0.266 C 
ATOM     29  O   UNL d   1      26.781 -11.111  -4.160  0.00  0.00    -0.266 OA
ATOM     30  N   UNL d   1      25.160 -12.729  -4.064  0.00  0.00    -0.287 N 
ATOM     31  N   UNL d   1      24.722 -14.074  -4.142  0.00  0.00    -0.229 NA
ATOM     32  H   UNL d   1      24.467 -11.995  -3.950  0.00  0.00     0.184 HD
ATOM     33  H   UNL d   1      24.206 -14.157  -5.019  0.00  0.00     0.147 HD
ATOM     34  C   UNL d   1      25.688 -15.919  -5.396  0.00  0.00     0.033 C 
ENDBRANCH   3  21
TORSDOF 5
ENDMDL
MODEL 9
REMARK VINA RESULT:    -6.216      2.774      3.819
REMARK INTER + INTRA:         -10.568
REMARK INTER:                  -7.707
REMARK INTRA:                  -2.861
REMARK CONF_INDEPENDENT:        1.492
REMARK UNBOUND:                -2.861
REMARK  5 active torsions:
REMARK  status: ('A' for Active; 'I' for Inactive)
REMARK    1  A    between atoms: C_5  and  C_6 
REMARK    2  A    between atoms: C_9  and  S_10 
REMARK    3  A    between atoms: S_10  and  C_11 
REMARK    4  A    between atoms: C_11  and  C_12 
REMARK       I    between atoms: C_12  and  N_14 
REMARK    5  A    between atoms: N_14  and  C_15 
ROOT
ATOM      1  C   UNL d   1      28.685 -13.953  -3.137  0.00  0.00     0.229 C 
ATOM      2  O   UNL d   1      29.274 -13.230  -3.935  0.00  0.00    -0.273 OA
ATOM      3  N   UNL d   1      28.244 -15.224  -3.455  0.00  0.00    -0.330 N 
ATOM      4  H   UNL d   1      27.558 -15.692  -2.881  0.00  0.00     0.165 HD
ENDROOT
BRANCH   1   5
ATOM      5  C   UNL d   1      28.354 -13.416  -1.757  0.00  0.00     0.180 C 
BRANCH   5   6
ATOM      6  S   UNL d   1      29.756 -13.845  -0.617  0.00  0.00    -0.112 SA
BRANCH   6   7
ATOM      7  C   UNL d   1      29.221 -15.464  -0.095  0.00  0.00     0.267 A 
ATOM      8  N   UNL d   1      29.371 -16.474  -1.117  0.00  0.00    -0.279 N 
ATOM      9  N   UNL d   1      28.202 -17.130  -1.375  0.00  0.00    -0.158 NA
ATOM     10  H   UNL d   1      30.224 -16.629  -1.630  0.00  0.00     0.185 HD
ATOM     11  C   UNL d   1      27.302 -16.529  -0.610  0.00  0.00     0.157 A 
ATOM     12  N   UNL d   1      27.810 -15.516   0.192  0.00  0.00    -0.337 N 
ATOM     13  C   UNL d   1      27.102 -14.530   0.948  0.00  0.00     0.154 C 
BRANCH  11  14
ATOM     14  C   UNL d   1      25.882 -16.941  -0.608  0.00  0.00     0.011 A 
ATOM     15  C   UNL d   1      24.923 -16.126  -1.212  0.00  0.00     0.016 A 
ATOM     16  C   UNL d   1      23.589 -16.547  -1.269  0.00  0.00     0.007 A 
ATOM     17  C   UNL d   1      23.206 -17.777  -0.715  0.00  0.00    -0.062 A 
ATOM     18  C   UNL d   1      21.782 -18.247  -0.777  0.00  0.00     0.048 C 
ATOM     19  C   UNL d   1      24.175 -18.575  -0.094  0.00  0.00     0.007 A 
ATOM     20  C   UNL d   1      25.507 -18.159  -0.038  0.00  0.00     0.016 A 
ENDBRANCH  11  14
ENDBRANCH   6   7
ENDBRANCH   5   6
ENDBRANCH   1   5
BRANCH   3  21
ATOM     21  C   UNL d   1      28.634 -15.950  -4.656  0.00  0.00     0.264 C 
ATOM     22  O   UNL d   1      28.013 -15.272  -5.780  0.00  0.00    -0.353 OA
ATOM     23  C   UNL d   1      29.060 -14.832  -6.689  0.00  0.00     0.152 C 
ATOM     24  C   UNL d   1      30.329 -15.244  -6.047  0.00  0.00    -0.017 C 
ATOM     25  C   UNL d   1      28.945 -13.336  -6.913  0.00  0.00     0.044 C 
ATOM     26  C   UNL d   1      30.064 -15.957  -4.961  0.00  0.00     0.066 C 
ATOM     27  C   UNL d   1      31.691 -14.908  -6.508  0.00  0.00     0.105 C 
ATOM     28  C   UNL d   1      31.131 -16.490  -4.122  0.00  0.00     0.266 C 
ATOM     29  O   UNL d   1      30.894 -17.231  -3.166  0.00  0.00    -0.266 OA
ATOM     30  N   UNL d   1      32.400 -16.064  -4.441  0.00  0.00    -0.287 N 
ATOM     31  N   UNL d   1      32.774 -15.357  -5.611  0.00  0.00    -0.229 NA
ATOM     32  H   UNL d   1      33.109 -16.259  -3.739  0.00  0.00     0.184 HD
ATOM     33  H   UNL d   1      33.398 -15.974  -6.132  0.00  0.00     0.147 HD
ATOM     34  C   UNL d   1      31.891 -15.570  -7.865  0.00  0.00     0.033 C 
ENDBRANCH   3  21
TORSDOF 5
ENDMDL
