MODEL 1
REMARK VINA RESULT:    -7.301      0.000      0.000
REMARK INTER + INTRA:         -13.258
REMARK INTER:                  -9.986
REMARK INTRA:                  -3.272
REMARK CONF_INDEPENDENT:        2.685
REMARK UNBOUND:                -3.272
REMARK  9 active torsions:
REMARK  status: ('A' for Active; 'I' for Inactive)
REMARK    1  A    between atoms: O_2  and  C_3 
REMARK    2  A    between atoms: C_3  and  C_4 
REMARK    3  A    between atoms: C_4  and  O_5 
REMARK    4  A    between atoms: O_5  and  C_6 
REMARK    5  A    between atoms: C_12  and  C_13 
REMARK       I    between atoms: C_13  and  N_15 
REMARK    6  A    between atoms: N_15  and  C_16 
REMARK    7  A    between atoms: C_16  and  N_18 
REMARK    8  A    between atoms: N_18  and  C_19 
REMARK    9  A    between atoms: C_25  and  O_26 
ROOT
ATOM      1  C   UNL d   1      25.473 -15.441  -2.973  0.00  0.00     0.260 C 
ATOM      2  O   UNL d   1      24.429 -14.826  -3.227  0.00  0.00    -0.267 OA
ATOM      3  N   UNL d   1      26.682 -15.275  -3.688  0.00  0.00    -0.299 N 
ATOM      4  H   UNL d   1      27.477 -15.790  -3.331  0.00  0.00     0.171 HD
ENDROOT
BRANCH   3   5
ATOM      5  C   UNL d   1      26.846 -14.484  -4.850  0.00  0.00     0.179 C 
ATOM      6  S   UNL d   1      28.120 -14.749  -5.943  0.00  0.00    -0.040 SA
BRANCH   5   7
ATOM      7  N   UNL d   1      25.883 -13.446  -5.014  0.00  0.00    -0.331 N 
ATOM      8  H   UNL d   1      24.896 -13.676  -5.049  0.00  0.00     0.168 HD
BRANCH   7   9
ATOM      9  C   UNL d   1      26.159 -12.086  -4.600  0.00  0.00     0.068 C 
ATOM     10  C   UNL d   1      26.793 -11.883  -3.367  0.00  0.00     0.039 C 
ATOM     11  C   UNL d   1      26.899 -10.624  -2.770  0.00  0.00    -0.060 C 
ATOM     12  C   UNL d   1      27.404 -10.516  -1.361  0.00  0.00     0.048 C 
ATOM     13  C   UNL d   1      26.479  -9.504  -3.486  0.00  0.00     0.009 C 
ATOM     14  C   UNL d   1      25.931  -9.661  -4.764  0.00  0.00     0.039 C 
ATOM     15  C   UNL d   1      25.767 -10.947  -5.320  0.00  0.00     0.092 C 
BRANCH  15  16
ATOM     16  O   UNL d   1      25.149 -11.071  -6.537  0.00  0.00    -0.358 OA
ATOM     17  H   UNL d   1      24.398 -11.684  -6.426  0.00  0.00     0.217 HD
ENDBRANCH  15  16
ENDBRANCH   7   9
ENDBRANCH   5   7
ENDBRANCH   3   5
BRANCH   1  18
ATOM     18  C   UNL d   1      25.341 -16.376  -1.815  0.00  0.00     0.067 A 
ATOM     19  C   UNL d   1      24.060 -16.951  -1.610  0.00  0.00     0.039 A 
ATOM     20  C   UNL d   1      23.824 -17.843  -0.569  0.00  0.00     0.012 A 
ATOM     21  C   UNL d   1      24.859 -18.186   0.287  0.00  0.00     0.022 A 
ATOM     22 BR   UNL d   1      22.100 -18.576  -0.308  0.00  0.00    -0.051 Br
ATOM     23  C   UNL d   1      26.128 -17.626   0.100  0.00  0.00     0.039 A 
ATOM     24  C   UNL d   1      26.380 -16.728  -0.951  0.00  0.00     0.084 A 
BRANCH  24  25
ATOM     25  O   UNL d   1      27.583 -16.098  -1.104  0.00  0.00    -0.348 OA
BRANCH  25  26
ATOM     26  C   UNL d   1      28.695 -16.776  -0.515  0.00  0.00     0.201 C 
BRANCH  26  27
ATOM     27  C   UNL d   1      29.576 -17.247  -1.664  0.00  0.00     0.193 C 
BRANCH  27  28
ATOM     28  O   UNL d   1      29.221 -16.567  -2.860  0.00  0.00    -0.394 OA
ATOM     29  C   UNL d   1      30.026 -17.008  -3.947  0.00  0.00     0.201 C 
ENDBRANCH  27  28
ENDBRANCH  26  27
ENDBRANCH  25  26
ENDBRANCH  24  25
ENDBRANCH   1  18
TORSDOF 9
ENDMDL
MODEL 2
REMARK VINA RESULT:    -7.005      2.336      3.708
REMARK INTER + INTRA:         -13.139
REMARK INTER:                  -9.690
REMARK INTRA:                  -3.449
REMARK CONF_INDEPENDENT:        2.685
REMARK UNBOUND:                -3.449
REMARK  9 active torsions:
REMARK  status: ('A' for Active; 'I' for Inactive)
REMARK    1  A    between atoms: O_2  and  C_3 
REMARK    2  A    between atoms: C_3  and  C_4 
REMARK    3  A    between atoms: C_4  and  O_5 
REMARK    4  A    between atoms: O_5  and  C_6 
REMARK    5  A    between atoms: C_12  and  C_13 
REMARK       I    between atoms: C_13  and  N_15 
REMARK    6  A    between atoms: N_15  and  C_16 
REMARK    7  A    between atoms: C_16  and  N_18 
REMARK    8  A    between atoms: N_18  and  C_19 
REMARK    9  A    between atoms: C_25  and  O_26 
ROOT
ATOM      1  C   UNL d   1      25.457 -14.815  -2.468  0.00  0.00     0.260 C 
ATOM      2  O   UNL d   1      24.780 -15.019  -3.485  0.00  0.00    -0.267 OA
ATOM      3  N   UNL d   1      26.160 -13.615  -2.215  0.00  0.00    -0.299 N 
ATOM      4  H   UNL d   1      26.617 -13.556  -1.313  0.00  0.00     0.171 HD
ENDROOT
BRANCH   3   5
ATOM      5  C   UNL d   1      26.289 -12.532  -3.118  0.00  0.00     0.179 C 
ATOM      6  S   UNL d   1      26.675 -10.964  -2.589  0.00  0.00    -0.040 SA
BRANCH   5   7
ATOM      7  N   UNL d   1      26.049 -12.856  -4.485  0.00  0.00    -0.331 N 
ATOM      8  H   UNL d   1      25.224 -12.494  -4.950  0.00  0.00     0.168 HD
BRANCH   7   9
ATOM      9  C   UNL d   1      27.132 -13.198  -5.383  0.00  0.00     0.068 C 
ATOM     10  C   UNL d   1      27.784 -12.160  -6.062  0.00  0.00     0.039 C 
ATOM     11  C   UNL d   1      28.676 -12.389  -7.113  0.00  0.00    -0.060 C 
ATOM     12  C   UNL d   1      29.171 -11.228  -7.925  0.00  0.00     0.048 C 
ATOM     13  C   UNL d   1      29.039 -13.700  -7.413  0.00  0.00     0.009 C 
ATOM     14  C   UNL d   1      28.482 -14.759  -6.686  0.00  0.00     0.039 C 
ATOM     15  C   UNL d   1      27.529 -14.511  -5.677  0.00  0.00     0.092 C 
BRANCH  15  16
ATOM     16  O   UNL d   1      26.940 -15.574  -5.043  0.00  0.00    -0.358 OA
ATOM     17  H   UNL d   1      26.028 -15.315  -4.816  0.00  0.00     0.217 HD
ENDBRANCH  15  16
ENDBRANCH   7   9
ENDBRANCH   5   7
ENDBRANCH   3   5
BRANCH   1  18
ATOM     18  C   UNL d   1      25.449 -15.964  -1.513  0.00  0.00     0.067 A 
ATOM     19  C   UNL d   1      24.285 -16.777  -1.512  0.00  0.00     0.039 A 
ATOM     20  C   UNL d   1      24.172 -17.879  -0.671  0.00  0.00     0.012 A 
ATOM     21  C   UNL d   1      25.216 -18.200   0.182  0.00  0.00     0.022 A 
ATOM     22 BR   UNL d   1      22.599 -18.929  -0.676  0.00  0.00    -0.051 Br
ATOM     23  C   UNL d   1      26.370 -17.408   0.194  0.00  0.00     0.039 A 
ATOM     24  C   UNL d   1      26.498 -16.295  -0.654  0.00  0.00     0.084 A 
BRANCH  24  25
ATOM     25  O   UNL d   1      27.573 -15.453  -0.600  0.00  0.00    -0.348 OA
BRANCH  25  26
ATOM     26  C   UNL d   1      28.314 -15.503   0.621  0.00  0.00     0.201 C 
BRANCH  26  27
ATOM     27  C   UNL d   1      27.729 -14.431   1.530  0.00  0.00     0.193 C 
BRANCH  27  28
ATOM     28  O   UNL d   1      26.737 -13.690   0.834  0.00  0.00    -0.394 OA
ATOM     29  C   UNL d   1      26.665 -12.358   1.329  0.00  0.00     0.201 C 
ENDBRANCH  27  28
ENDBRANCH  26  27
ENDBRANCH  25  26
ENDBRANCH  24  25
ENDBRANCH   1  18
TORSDOF 9
ENDMDL
MODEL 3
REMARK VINA RESULT:    -6.693      1.914      2.876
REMARK INTER + INTRA:         -12.534
REMARK INTER:                  -9.378
REMARK INTRA:                  -3.156
REMARK CONF_INDEPENDENT:        2.685
REMARK UNBOUND:                -3.156
REMARK  9 active torsions:
REMARK  status: ('A' for Active; 'I' for Inactive)
REMARK    1  A    between atoms: O_2  and  C_3 
REMARK    2  A    between atoms: C_3  and  C_4 
REMARK    3  A    between atoms: C_4  and  O_5 
REMARK    4  A    between atoms: O_5  and  C_6 
REMARK    5  A    between atoms: C_12  and  C_13 
REMARK       I    between atoms: C_13  and  N_15 
REMARK    6  A    between atoms: N_15  and  C_16 
REMARK    7  A    between atoms: C_16  and  N_18 
REMARK    8  A    between atoms: N_18  and  C_19 
REMARK    9  A    between atoms: C_25  and  O_26 
ROOT
ATOM      1  C   UNL d   1      25.053 -14.861  -2.146  0.00  0.00     0.260 C 
ATOM      2  O   UNL d   1      24.169 -14.747  -3.006  0.00  0.00    -0.267 OA
ATOM      3  N   UNL d   1      26.036 -13.878  -1.889  0.00  0.00    -0.299 N 
ATOM      4  H   UNL d   1      26.656 -14.070  -1.112  0.00  0.00     0.171 HD
ENDROOT
BRANCH   3   5
ATOM      5  C   UNL d   1      26.228 -12.692  -2.638  0.00  0.00     0.179 C 
ATOM      6  S   UNL d   1      27.030 -11.341  -1.990  0.00  0.00    -0.040 SA
BRANCH   5   7
ATOM      7  N   UNL d   1      25.679 -12.715  -3.954  0.00  0.00    -0.331 N 
ATOM      8  H   UNL d   1      24.780 -12.283  -4.131  0.00  0.00     0.168 HD
BRANCH   7   9
ATOM      9  C   UNL d   1      26.525 -12.821  -5.124  0.00  0.00     0.068 C 
ATOM     10  C   UNL d   1      27.337 -13.955  -5.256  0.00  0.00     0.039 C 
ATOM     11  C   UNL d   1      28.350 -14.052  -6.215  0.00  0.00    -0.060 C 
ATOM     12  C   UNL d   1      29.309 -15.205  -6.160  0.00  0.00     0.048 C 
ATOM     13  C   UNL d   1      28.473 -13.041  -7.166  0.00  0.00     0.009 C 
ATOM     14  C   UNL d   1      27.611 -11.939  -7.124  0.00  0.00     0.039 C 
ATOM     15  C   UNL d   1      26.643 -11.825  -6.105  0.00  0.00     0.092 C 
BRANCH  15  16
ATOM     16  O   UNL d   1      25.873 -10.693  -6.044  0.00  0.00    -0.358 OA
ATOM     17  H   UNL d   1      25.141 -10.866  -5.422  0.00  0.00     0.217 HD
ENDBRANCH  15  16
ENDBRANCH   7   9
ENDBRANCH   5   7
ENDBRANCH   3   5
BRANCH   1  18
ATOM     18  C   UNL d   1      24.972 -16.142  -1.383  0.00  0.00     0.067 A 
ATOM     19  C   UNL d   1      23.692 -16.752  -1.304  0.00  0.00     0.039 A 
ATOM     20  C   UNL d   1      23.502 -17.952  -0.627  0.00  0.00     0.012 A 
ATOM     21  C   UNL d   1      24.580 -18.575  -0.020  0.00  0.00     0.022 A 
ATOM     22 BR   UNL d   1      21.780 -18.727  -0.520  0.00  0.00    -0.051 Br
ATOM     23  C   UNL d   1      25.849 -17.986  -0.087  0.00  0.00     0.039 A 
ATOM     24  C   UNL d   1      26.055 -16.777  -0.772  0.00  0.00     0.084 A 
BRANCH  24  25
ATOM     25  O   UNL d   1      27.261 -16.135  -0.778  0.00  0.00    -0.348 OA
BRANCH  25  26
ATOM     26  C   UNL d   1      28.153 -16.543  -1.817  0.00  0.00     0.201 C 
BRANCH  26  27
ATOM     27  C   UNL d   1      29.206 -15.451  -1.941  0.00  0.00     0.193 C 
BRANCH  27  28
ATOM     28  O   UNL d   1      28.775 -14.278  -1.264  0.00  0.00    -0.394 OA
ATOM     29  C   UNL d   1      29.378 -14.188   0.020  0.00  0.00     0.201 C 
ENDBRANCH  27  28
ENDBRANCH  26  27
ENDBRANCH  25  26
ENDBRANCH  24  25
ENDBRANCH   1  18
TORSDOF 9
ENDMDL
MODEL 4
REMARK VINA RESULT:    -6.271      1.507      2.109
REMARK INTER + INTRA:         -13.534
REMARK INTER:                  -8.956
REMARK INTRA:                  -4.578
REMARK CONF_INDEPENDENT:        2.685
REMARK UNBOUND:                -4.578
REMARK  9 active torsions:
REMARK  status: ('A' for Active; 'I' for Inactive)
REMARK    1  A    between atoms: O_2  and  C_3 
REMARK    2  A    between atoms: C_3  and  C_4 
REMARK    3  A    between atoms: C_4  and  O_5 
REMARK    4  A    between atoms: O_5  and  C_6 
REMARK    5  A    between atoms: C_12  and  C_13 
REMARK       I    between atoms: C_13  and  N_15 
REMARK    6  A    between atoms: N_15  and  C_16 
REMARK    7  A    between atoms: C_16  and  N_18 
REMARK    8  A    between atoms: N_18  and  C_19 
REMARK    9  A    between atoms: C_25  and  O_26 
ROOT
ATOM      1  C   UNL d   1      25.447 -15.506  -2.939  0.00  0.00     0.260 C 
ATOM      2  O   UNL d   1      24.405 -14.862  -3.116  0.00  0.00    -0.267 OA
ATOM      3  N   UNL d   1      26.624 -15.330  -3.703  0.00  0.00    -0.299 N 
ATOM      4  H   UNL d   1      27.425 -15.874  -3.407  0.00  0.00     0.171 HD
ENDROOT
BRANCH   3   5
ATOM      5  C   UNL d   1      26.750 -14.491  -4.836  0.00  0.00     0.179 C 
ATOM      6  S   UNL d   1      28.094 -14.578  -5.872  0.00  0.00    -0.040 SA
BRANCH   5   7
ATOM      7  N   UNL d   1      25.684 -13.563  -5.020  0.00  0.00    -0.331 N 
ATOM      8  H   UNL d   1      24.725 -13.891  -5.019  0.00  0.00     0.168 HD
BRANCH   7   9
ATOM      9  C   UNL d   1      25.830 -12.165  -4.673  0.00  0.00     0.068 C 
ATOM     10  C   UNL d   1      25.905 -11.227  -5.711  0.00  0.00     0.039 C 
ATOM     11  C   UNL d   1      26.273  -9.895  -5.501  0.00  0.00    -0.060 C 
ATOM     12  C   UNL d   1      26.532  -9.007  -6.682  0.00  0.00     0.048 C 
ATOM     13  C   UNL d   1      26.442  -9.443  -4.194  0.00  0.00     0.009 C 
ATOM     14  C   UNL d   1      26.276 -10.331  -3.124  0.00  0.00     0.039 C 
ATOM     15  C   UNL d   1      25.976 -11.688  -3.361  0.00  0.00     0.092 C 
BRANCH  15  16
ATOM     16  O   UNL d   1      25.905 -12.549  -2.296  0.00  0.00    -0.358 OA
ATOM     17  H   UNL d   1      26.029 -13.454  -2.639  0.00  0.00     0.217 HD
ENDBRANCH  15  16
ENDBRANCH   7   9
ENDBRANCH   5   7
ENDBRANCH   3   5
BRANCH   1  18
ATOM     18  C   UNL d   1      25.351 -16.489  -1.819  0.00  0.00     0.067 A 
ATOM     19  C   UNL d   1      24.057 -17.001  -1.536  0.00  0.00     0.039 A 
ATOM     20  C   UNL d   1      23.850 -17.929  -0.522  0.00  0.00     0.012 A 
ATOM     21  C   UNL d   1      24.926 -18.373   0.230  0.00  0.00     0.022 A 
ATOM     22 BR   UNL d   1      22.111 -18.575  -0.154  0.00  0.00    -0.051 Br
ATOM     23  C   UNL d   1      26.209 -17.878  -0.034  0.00  0.00     0.039 A 
ATOM     24  C   UNL d   1      26.431 -16.943  -1.060  0.00  0.00     0.084 A 
BRANCH  24  25
ATOM     25  O   UNL d   1      27.654 -16.376  -1.282  0.00  0.00    -0.348 OA
BRANCH  25  26
ATOM     26  C   UNL d   1      28.140 -15.560  -0.214  0.00  0.00     0.201 C 
BRANCH  26  27
ATOM     27  C   UNL d   1      28.064 -14.119  -0.698  0.00  0.00     0.193 C 
BRANCH  27  28
ATOM     28  O   UNL d   1      28.055 -14.081  -2.118  0.00  0.00    -0.394 OA
ATOM     29  C   UNL d   1      29.105 -13.257  -2.606  0.00  0.00     0.201 C 
ENDBRANCH  27  28
ENDBRANCH  26  27
ENDBRANCH  25  26
ENDBRANCH  24  25
ENDBRANCH   1  18
TORSDOF 9
ENDMDL
MODEL 5
REMARK VINA RESULT:    -6.161      2.157      3.860
REMARK INTER + INTRA:         -12.943
REMARK INTER:                  -8.846
REMARK INTRA:                  -4.097
REMARK CONF_INDEPENDENT:        2.685
REMARK UNBOUND:                -4.097
REMARK  9 active torsions:
REMARK  status: ('A' for Active; 'I' for Inactive)
REMARK    1  A    between atoms: O_2  and  C_3 
REMARK    2  A    between atoms: C_3  and  C_4 
REMARK    3  A    between atoms: C_4  and  O_5 
REMARK    4  A    between atoms: O_5  and  C_6 
REMARK    5  A    between atoms: C_12  and  C_13 
REMARK       I    between atoms: C_13  and  N_15 
REMARK    6  A    between atoms: N_15  and  C_16 
REMARK    7  A    between atoms: C_16  and  N_18 
REMARK    8  A    between atoms: N_18  and  C_19 
REMARK    9  A    between atoms: C_25  and  O_26 
ROOT
ATOM      1  C   UNL d   1      25.554 -14.774  -2.658  0.00  0.00     0.260 C 
ATOM      2  O   UNL d   1      24.780 -14.825  -3.623  0.00  0.00    -0.267 OA
ATOM      3  N   UNL d   1      26.467 -13.718  -2.433  0.00  0.00    -0.299 N 
ATOM      4  H   UNL d   1      26.992 -13.768  -1.570  0.00  0.00     0.171 HD
ENDROOT
BRANCH   3   5
ATOM      5  C   UNL d   1      26.711 -12.641  -3.319  0.00  0.00     0.179 C 
ATOM      6  S   UNL d   1      25.900 -11.155  -3.171  0.00  0.00    -0.040 SA
BRANCH   5   7
ATOM      7  N   UNL d   1      27.663 -12.909  -4.346  0.00  0.00    -0.331 N 
ATOM      8  H   UNL d   1      28.048 -12.143  -4.887  0.00  0.00     0.168 HD
BRANCH   7   9
ATOM      9  C   UNL d   1      28.502 -14.088  -4.310  0.00  0.00     0.068 C 
ATOM     10  C   UNL d   1      29.716 -14.019  -3.614  0.00  0.00     0.039 C 
ATOM     11  C   UNL d   1      30.698 -15.009  -3.707  0.00  0.00    -0.060 C 
ATOM     12  C   UNL d   1      32.049 -14.766  -3.101  0.00  0.00     0.048 C 
ATOM     13  C   UNL d   1      30.410 -16.177  -4.410  0.00  0.00     0.009 C 
ATOM     14  C   UNL d   1      29.166 -16.323  -5.035  0.00  0.00     0.039 C 
ATOM     15  C   UNL d   1      28.215 -15.282  -4.990  0.00  0.00     0.092 C 
BRANCH  15  16
ATOM     16  O   UNL d   1      27.042 -15.423  -5.684  0.00  0.00    -0.358 OA
ATOM     17  H   UNL d   1      26.324 -15.068  -5.127  0.00  0.00     0.217 HD
ENDBRANCH  15  16
ENDBRANCH   7   9
ENDBRANCH   5   7
ENDBRANCH   3   5
BRANCH   1  18
ATOM     18  C   UNL d   1      25.422 -15.938  -1.732  0.00  0.00     0.067 A 
ATOM     19  C   UNL d   1      24.136 -16.535  -1.647  0.00  0.00     0.039 A 
ATOM     20  C   UNL d   1      23.899 -17.631  -0.824  0.00  0.00     0.012 A 
ATOM     21  C   UNL d   1      24.936 -18.161  -0.073  0.00  0.00     0.022 A 
ATOM     22 BR   UNL d   1      22.170 -18.390  -0.715  0.00  0.00    -0.051 Br
ATOM     23  C   UNL d   1      26.210 -17.583  -0.144  0.00  0.00     0.039 A 
ATOM     24  C   UNL d   1      26.462 -16.478  -0.975  0.00  0.00     0.084 A 
BRANCH  24  25
ATOM     25  O   UNL d   1      27.670 -15.840  -0.997  0.00  0.00    -0.348 OA
BRANCH  25  26
ATOM     26  C   UNL d   1      28.444 -15.977   0.198  0.00  0.00     0.201 C 
BRANCH  26  27
ATOM     27  C   UNL d   1      28.707 -14.568   0.710  0.00  0.00     0.193 C 
BRANCH  27  28
ATOM     28  O   UNL d   1      27.783 -13.657   0.131  0.00  0.00    -0.394 OA
ATOM     29  C   UNL d   1      26.654 -13.481   0.977  0.00  0.00     0.201 C 
ENDBRANCH  27  28
ENDBRANCH  26  27
ENDBRANCH  25  26
ENDBRANCH  24  25
ENDBRANCH   1  18
TORSDOF 9
ENDMDL
MODEL 6
REMARK VINA RESULT:    -5.851      2.201      3.635
REMARK INTER + INTRA:         -13.477
REMARK INTER:                  -8.536
REMARK INTRA:                  -4.941
REMARK CONF_INDEPENDENT:        2.685
REMARK UNBOUND:                -4.941
REMARK  9 active torsions:
REMARK  status: ('A' for Active; 'I' for Inactive)
REMARK    1  A    between atoms: O_2  and  C_3 
REMARK    2  A    between atoms: C_3  and  C_4 
REMARK    3  A    between atoms: C_4  and  O_5 
REMARK    4  A    between atoms: O_5  and  C_6 
REMARK    5  A    between atoms: C_12  and  C_13 
REMARK       I    between atoms: C_13  and  N_15 
REMARK    6  A    between atoms: N_15  and  C_16 
REMARK    7  A    between atoms: C_16  and  N_18 
REMARK    8  A    between atoms: N_18  and  C_19 
REMARK    9  A    between atoms: C_25  and  O_26 
ROOT
ATOM      1  C   UNL d   1      25.134 -14.829  -2.659  0.00  0.00     0.260 C 
ATOM      2  O   UNL d   1      23.977 -14.450  -2.887  0.00  0.00    -0.267 OA
ATOM      3  N   UNL d   1      26.290 -14.173  -3.142  0.00  0.00    -0.299 N 
ATOM      4  H   UNL d   1      27.174 -14.550  -2.824  0.00  0.00     0.171 HD
ENDROOT
BRANCH   3   5
ATOM      5  C   UNL d   1      26.298 -13.076  -4.036  0.00  0.00     0.179 C 
ATOM      6  S   UNL d   1      25.942 -11.496  -3.521  0.00  0.00    -0.040 SA
BRANCH   5   7
ATOM      7  N   UNL d   1      26.602 -13.403  -5.390  0.00  0.00    -0.331 N 
ATOM      8  H   UNL d   1      26.111 -12.935  -6.143  0.00  0.00     0.168 HD
BRANCH   7   9
ATOM      9  C   UNL d   1      27.896 -13.933  -5.767  0.00  0.00     0.068 C 
ATOM     10  C   UNL d   1      28.680 -13.195  -6.664  0.00  0.00     0.039 C 
ATOM     11  C   UNL d   1      29.828 -13.715  -7.268  0.00  0.00    -0.060 C 
ATOM     12  C   UNL d   1      30.493 -12.944  -8.371  0.00  0.00     0.048 C 
ATOM     13  C   UNL d   1      30.292 -14.965  -6.865  0.00  0.00     0.009 C 
ATOM     14  C   UNL d   1      29.587 -15.688  -5.895  0.00  0.00     0.039 C 
ATOM     15  C   UNL d   1      28.391 -15.178  -5.350  0.00  0.00     0.092 C 
BRANCH  15  16
ATOM     16  O   UNL d   1      27.681 -15.949  -4.467  0.00  0.00    -0.358 OA
ATOM     17  H   UNL d   1      28.009 -15.749  -3.570  0.00  0.00     0.217 HD
ENDBRANCH  15  16
ENDBRANCH   7   9
ENDBRANCH   5   7
ENDBRANCH   3   5
BRANCH   1  18
ATOM     18  C   UNL d   1      25.197 -16.051  -1.802  0.00  0.00     0.067 A 
ATOM     19  C   UNL d   1      23.963 -16.702  -1.537  0.00  0.00     0.039 A 
ATOM     20  C   UNL d   1      23.904 -17.853  -0.759  0.00  0.00     0.012 A 
ATOM     21  C   UNL d   1      25.070 -18.385  -0.233  0.00  0.00     0.022 A 
ATOM     22 BR   UNL d   1      22.243 -18.685  -0.406  0.00  0.00    -0.051 Br
ATOM     23  C   UNL d   1      26.295 -17.754  -0.482  0.00  0.00     0.039 A 
ATOM     24  C   UNL d   1      26.368 -16.593  -1.271  0.00  0.00     0.084 A 
BRANCH  24  25
ATOM     25  O   UNL d   1      27.535 -15.907  -1.457  0.00  0.00    -0.348 OA
BRANCH  25  26
ATOM     26  C   UNL d   1      28.723 -16.680  -1.269  0.00  0.00     0.201 C 
BRANCH  26  27
ATOM     27  C   UNL d   1      29.833 -15.964  -2.024  0.00  0.00     0.193 C 
BRANCH  27  28
ATOM     28  O   UNL d   1      29.328 -14.781  -2.628  0.00  0.00    -0.394 OA
ATOM     29  C   UNL d   1      29.558 -13.653  -1.794  0.00  0.00     0.201 C 
ENDBRANCH  27  28
ENDBRANCH  26  27
ENDBRANCH  25  26
ENDBRANCH  24  25
ENDBRANCH   1  18
TORSDOF 9
ENDMDL
MODEL 7
REMARK VINA RESULT:    -5.800      2.492      4.914
REMARK INTER + INTRA:         -13.779
REMARK INTER:                  -8.485
REMARK INTRA:                  -5.294
REMARK CONF_INDEPENDENT:        2.685
REMARK UNBOUND:                -5.294
REMARK  9 active torsions:
REMARK  status: ('A' for Active; 'I' for Inactive)
REMARK    1  A    between atoms: O_2  and  C_3 
REMARK    2  A    between atoms: C_3  and  C_4 
REMARK    3  A    between atoms: C_4  and  O_5 
REMARK    4  A    between atoms: O_5  and  C_6 
REMARK    5  A    between atoms: C_12  and  C_13 
REMARK       I    between atoms: C_13  and  N_15 
REMARK    6  A    between atoms: N_15  and  C_16 
REMARK    7  A    between atoms: C_16  and  N_18 
REMARK    8  A    between atoms: N_18  and  C_19 
REMARK    9  A    between atoms: C_25  and  O_26 
ROOT
ATOM      1  C   UNL d   1      26.116 -15.695  -3.041  0.00  0.00     0.260 C 
ATOM      2  O   UNL d   1      25.156 -15.491  -3.796  0.00  0.00    -0.267 OA
ATOM      3  N   UNL d   1      27.406 -15.151  -3.240  0.00  0.00    -0.299 N 
ATOM      4  H   UNL d   1      28.080 -15.342  -2.509  0.00  0.00     0.171 HD
ENDROOT
BRANCH   3   5
ATOM      5  C   UNL d   1      27.817 -14.404  -4.370  0.00  0.00     0.179 C 
ATOM      6  S   UNL d   1      26.862 -13.157  -5.017  0.00  0.00    -0.040 SA
BRANCH   5   7
ATOM      7  N   UNL d   1      29.070 -14.795  -4.927  0.00  0.00    -0.331 N 
ATOM      8  H   UNL d   1      29.648 -14.107  -5.396  0.00  0.00     0.168 HD
BRANCH   7   9
ATOM      9  C   UNL d   1      29.803 -15.933  -4.415  0.00  0.00     0.068 C 
ATOM     10  C   UNL d   1      29.969 -17.046  -5.250  0.00  0.00     0.039 C 
ATOM     11  C   UNL d   1      30.453 -18.273  -4.786  0.00  0.00    -0.060 C 
ATOM     12  C   UNL d   1      30.406 -19.471  -5.688  0.00  0.00     0.048 C 
ATOM     13  C   UNL d   1      30.917 -18.360  -3.476  0.00  0.00     0.009 C 
ATOM     14  C   UNL d   1      30.859 -17.237  -2.642  0.00  0.00     0.039 C 
ATOM     15  C   UNL d   1      30.301 -16.028  -3.106  0.00  0.00     0.092 C 
BRANCH  15  16
ATOM     16  O   UNL d   1      30.181 -14.974  -2.238  0.00  0.00    -0.358 OA
ATOM     17  H   UNL d   1      29.366 -15.110  -1.719  0.00  0.00     0.217 HD
ENDBRANCH  15  16
ENDBRANCH   7   9
ENDBRANCH   5   7
ENDBRANCH   3   5
BRANCH   1  18
ATOM     18  C   UNL d   1      25.777 -16.565  -1.875  0.00  0.00     0.067 A 
ATOM     19  C   UNL d   1      24.412 -16.930  -1.735  0.00  0.00     0.039 A 
ATOM     20  C   UNL d   1      23.984 -17.745  -0.693  0.00  0.00     0.012 A 
ATOM     21  C   UNL d   1      24.903 -18.220   0.229  0.00  0.00     0.022 A 
ATOM     22 BR   UNL d   1      22.155 -18.195  -0.519  0.00  0.00    -0.051 Br
ATOM     23  C   UNL d   1      26.253 -17.868   0.106  0.00  0.00     0.039 A 
ATOM     24  C   UNL d   1      26.699 -17.049  -0.945  0.00  0.00     0.084 A 
BRANCH  24  25
ATOM     25  O   UNL d   1      27.992 -16.617  -1.039  0.00  0.00    -0.348 OA
BRANCH  25  26
ATOM     26  C   UNL d   1      28.630 -16.355   0.212  0.00  0.00     0.201 C 
BRANCH  26  27
ATOM     27  C   UNL d   1      28.422 -14.877   0.507  0.00  0.00     0.193 C 
BRANCH  27  28
ATOM     28  O   UNL d   1      28.018 -14.196  -0.673  0.00  0.00    -0.394 OA
ATOM     29  C   UNL d   1      26.854 -13.416  -0.430  0.00  0.00     0.201 C 
ENDBRANCH  27  28
ENDBRANCH  26  27
ENDBRANCH  25  26
ENDBRANCH  24  25
ENDBRANCH   1  18
TORSDOF 9
ENDMDL
MODEL 8
REMARK VINA RESULT:    -5.760      3.545      6.214
REMARK INTER + INTRA:         -13.443
REMARK INTER:                  -8.444
REMARK INTRA:                  -4.999
REMARK CONF_INDEPENDENT:        2.685
REMARK UNBOUND:                -4.999
REMARK  9 active torsions:
REMARK  status: ('A' for Active; 'I' for Inactive)
REMARK    1  A    between atoms: O_2  and  C_3 
REMARK    2  A    between atoms: C_3  and  C_4 
REMARK    3  A    between atoms: C_4  and  O_5 
REMARK    4  A    between atoms: O_5  and  C_6 
REMARK    5  A    between atoms: C_12  and  C_13 
REMARK       I    between atoms: C_13  and  N_15 
REMARK    6  A    between atoms: N_15  and  C_16 
REMARK    7  A    between atoms: C_16  and  N_18 
REMARK    8  A    between atoms: N_18  and  C_19 
REMARK    9  A    between atoms: C_25  and  O_26 
ROOT
ATOM      1  C   UNL d   1      27.542 -15.512  -4.623  0.00  0.00     0.260 C 
ATOM      2  O   UNL d   1      27.075 -15.440  -5.768  0.00  0.00    -0.267 OA
ATOM      3  N   UNL d   1      26.854 -15.092  -3.461  0.00  0.00    -0.299 N 
ATOM      4  H   UNL d   1      27.325 -15.271  -2.583  0.00  0.00     0.171 HD
ENDROOT
BRANCH   3   5
ATOM      5  C   UNL d   1      25.602 -14.432  -3.442  0.00  0.00     0.179 C 
ATOM      6  S   UNL d   1      25.156 -13.318  -4.645  0.00  0.00    -0.040 SA
BRANCH   5   7
ATOM      7  N   UNL d   1      24.767 -14.755  -2.332  0.00  0.00    -0.331 N 
ATOM      8  H   UNL d   1      23.815 -14.409  -2.301  0.00  0.00     0.168 HD
BRANCH   7   9
ATOM      9  C   UNL d   1      24.989 -15.948  -1.542  0.00  0.00     0.068 C 
ATOM     10  C   UNL d   1      24.063 -16.994  -1.644  0.00  0.00     0.039 C 
ATOM     11  C   UNL d   1      24.052 -18.082  -0.767  0.00  0.00    -0.060 C 
ATOM     12  C   UNL d   1      22.907 -19.051  -0.810  0.00  0.00     0.048 C 
ATOM     13  C   UNL d   1      25.082 -18.205   0.164  0.00  0.00     0.009 C 
ATOM     14  C   UNL d   1      26.081 -17.227   0.227  0.00  0.00     0.039 C 
ATOM     15  C   UNL d   1      26.035 -16.099  -0.619  0.00  0.00     0.092 C 
BRANCH  15  16
ATOM     16  O   UNL d   1      26.982 -15.119  -0.472  0.00  0.00    -0.358 OA
ATOM     17  H   UNL d   1      27.663 -15.262  -1.156  0.00  0.00     0.217 HD
ENDBRANCH  15  16
ENDBRANCH   7   9
ENDBRANCH   5   7
ENDBRANCH   3   5
BRANCH   1  18
ATOM     18  C   UNL d   1      28.911 -16.108  -4.580  0.00  0.00     0.067 A 
ATOM     19  C   UNL d   1      29.646 -16.091  -5.795  0.00  0.00     0.039 A 
ATOM     20  C   UNL d   1      30.934 -16.609  -5.869  0.00  0.00     0.012 A 
ATOM     21  C   UNL d   1      31.522 -17.150  -4.737  0.00  0.00     0.022 A 
ATOM     22 BR   UNL d   1      31.880 -16.592  -7.507  0.00  0.00    -0.051 Br
ATOM     23  C   UNL d   1      30.810 -17.177  -3.532  0.00  0.00     0.039 A 
ATOM     24  C   UNL d   1      29.509 -16.652  -3.443  0.00  0.00     0.084 A 
BRANCH  24  25
ATOM     25  O   UNL d   1      28.759 -16.745  -2.305  0.00  0.00    -0.348 OA
BRANCH  25  26
ATOM     26  C   UNL d   1      29.499 -16.640  -1.087  0.00  0.00     0.201 C 
BRANCH  26  27
ATOM     27  C   UNL d   1      29.968 -15.195  -0.985  0.00  0.00     0.193 C 
BRANCH  27  28
ATOM     28  O   UNL d   1      29.070 -14.341  -1.679  0.00  0.00    -0.394 OA
ATOM     29  C   UNL d   1      29.778 -13.309  -2.354  0.00  0.00     0.201 C 
ENDBRANCH  27  28
ENDBRANCH  26  27
ENDBRANCH  25  26
ENDBRANCH  24  25
ENDBRANCH   1  18
TORSDOF 9
ENDMDL
MODEL 9
REMARK VINA RESULT:    -5.097      1.521      2.284
REMARK INTER + INTRA:         -12.866
REMARK INTER:                  -7.782
REMARK INTRA:                  -5.084
REMARK CONF_INDEPENDENT:        2.685
REMARK UNBOUND:                -5.084
REMARK  9 active torsions:
REMARK  status: ('A' for Active; 'I' for Inactive)
REMARK    1  A    between atoms: O_2  and  C_3 
REMARK    2  A    between atoms: C_3  and  C_4 
REMARK    3  A    between atoms: C_4  and  O_5 
REMARK    4  A    between atoms: O_5  and  C_6 
REMARK    5  A    between atoms: C_12  and  C_13 
REMARK       I    between atoms: C_13  and  N_15 
REMARK    6  A    between atoms: N_15  and  C_16 
REMARK    7  A    between atoms: C_16  and  N_18 
REMARK    8  A    between atoms: N_18  and  C_19 
REMARK    9  A    between atoms: C_25  and  O_26 
ROOT
ATOM      1  C   UNL d   1      26.132 -15.370  -3.104  0.00  0.00     0.260 C 
ATOM      2  O   UNL d   1      25.130 -15.026  -3.747  0.00  0.00    -0.267 OA
ATOM      3  N   UNL d   1      27.447 -14.952  -3.408  0.00  0.00    -0.299 N 
ATOM      4  H   UNL d   1      28.164 -15.253  -2.760  0.00  0.00     0.171 HD
ENDROOT
BRANCH   3   5
ATOM      5  C   UNL d   1      27.826 -14.187  -4.537  0.00  0.00     0.179 C 
ATOM      6  S   UNL d   1      27.778 -14.825  -6.111  0.00  0.00    -0.040 SA
BRANCH   5   7
ATOM      7  N   UNL d   1      28.267 -12.863  -4.248  0.00  0.00    -0.331 N 
ATOM      8  H   UNL d   1      28.430 -12.209  -5.005  0.00  0.00     0.168 HD
BRANCH   7   9
ATOM      9  C   UNL d   1      27.985 -12.233  -2.975  0.00  0.00     0.068 C 
ATOM     10  C   UNL d   1      27.176 -11.089  -2.965  0.00  0.00     0.039 C 
ATOM     11  C   UNL d   1      27.029 -10.277  -1.837  0.00  0.00    -0.060 C 
ATOM     12  C   UNL d   1      26.317  -8.962  -1.963  0.00  0.00     0.048 C 
ATOM     13  C   UNL d   1      27.599 -10.689  -0.634  0.00  0.00     0.009 C 
ATOM     14  C   UNL d   1      28.332 -11.881  -0.584  0.00  0.00     0.039 C 
ATOM     15  C   UNL d   1      28.529 -12.650  -1.750  0.00  0.00     0.092 C 
BRANCH  15  16
ATOM     16  O   UNL d   1      29.322 -13.765  -1.685  0.00  0.00    -0.358 OA
ATOM     17  H   UNL d   1      28.740 -14.534  -1.536  0.00  0.00     0.217 HD
ENDBRANCH  15  16
ENDBRANCH   7   9
ENDBRANCH   5   7
ENDBRANCH   3   5
BRANCH   1  18
ATOM     18  C   UNL d   1      25.815 -16.268  -1.953  0.00  0.00     0.067 A 
ATOM     19  C   UNL d   1      24.511 -16.829  -1.929  0.00  0.00     0.039 A 
ATOM     20  C   UNL d   1      24.109 -17.686  -0.911  0.00  0.00     0.012 A 
ATOM     21  C   UNL d   1      24.997 -18.009   0.103  0.00  0.00     0.022 A 
ATOM     22 BR   UNL d   1      22.358 -18.401  -0.895  0.00  0.00    -0.051 Br
ATOM     23  C   UNL d   1      26.286 -17.462   0.096  0.00  0.00     0.039 A 
ATOM     24  C   UNL d   1      26.705 -16.598  -0.930  0.00  0.00     0.084 A 
BRANCH  24  25
ATOM     25  O   UNL d   1      27.924 -15.981  -0.916  0.00  0.00    -0.348 OA
BRANCH  25  26
ATOM     26  C   UNL d   1      28.946 -16.687  -0.209  0.00  0.00     0.201 C 
BRANCH  26  27
ATOM     27  C   UNL d   1      30.097 -16.881  -1.187  0.00  0.00     0.193 C 
BRANCH  27  28
ATOM     28  O   UNL d   1      29.825 -16.197  -2.402  0.00  0.00    -0.394 OA
ATOM     29  C   UNL d   1      29.936 -17.079  -3.512  0.00  0.00     0.201 C 
ENDBRANCH  27  28
ENDBRANCH  26  27
ENDBRANCH  25  26
ENDBRANCH  24  25
ENDBRANCH   1  18
TORSDOF 9
ENDMDL
