MODEL 1
REMARK VINA RESULT:    -7.682      0.000      0.000
REMARK INTER + INTRA:         -10.232
REMARK INTER:                  -9.472
REMARK INTRA:                  -0.760
REMARK CONF_INDEPENDENT:        1.790
REMARK UNBOUND:                -0.760
REMARK  6 active torsions:
REMARK  status: ('A' for Active; 'I' for Inactive)
REMARK       I    between atoms: C_2  and  N_3 
REMARK    1  A    between atoms: C_2  and  C_15 
REMARK    2  A    between atoms: N_3  and  C_4 
REMARK    3  A    between atoms: C_4  and  C_5 
REMARK    4  A    between atoms: C_5  and  C_6 
REMARK       I    between atoms: C_15  and  N_17 
REMARK    5  A    between atoms: N_17  and  C_18 
REMARK    6  A    between atoms: C_23  and  N_24 
ROOT
ATOM      1  O   UNL d   1      27.386 -12.885   4.444  0.00  0.00    -0.262 OA
ATOM      2  C   UNL d   1      27.754 -13.890   3.836  0.00  0.00     0.309 C 
ATOM      3  N   UNL d   1      28.412 -14.926   4.478  0.00  0.00    -0.353 N 
ATOM      4  H   UNL d   1      28.740 -15.736   3.982  0.00  0.00     0.162 HD
ENDROOT
BRANCH   2   5
ATOM      5  C   UNL d   1      27.480 -13.985   2.311  0.00  0.00     0.313 C 
ATOM      6  O   UNL d   1      26.780 -13.104   1.810  0.00  0.00    -0.262 OA
ATOM      7  N   UNL d   1      27.976 -15.081   1.581  0.00  0.00    -0.319 N 
ATOM      8  H   UNL d   1      28.299 -15.897   2.075  0.00  0.00     0.169 HD
BRANCH   7   9
ATOM      9  C   UNL d   1      27.706 -15.197   0.186  0.00  0.00     0.037 A 
ATOM     10  C   UNL d   1      28.764 -15.234  -0.725  0.00  0.00     0.031 A 
ATOM     11  C   UNL d   1      28.535 -15.259  -2.102  0.00  0.00     0.029 A 
ATOM     12  C   UNL d   1      27.236 -15.242  -2.616  0.00  0.00     0.067 A 
ATOM     13 CL   UNL d   1      27.149 -15.200  -4.343  0.00  0.00    -0.082 Cl
ATOM     14  C   UNL d   1      26.156 -15.252  -1.720  0.00  0.00     0.126 A 
ATOM     15  C   UNL d   1      26.395 -15.256  -0.312  0.00  0.00     0.067 A 
BRANCH  14  16
ATOM     16  N   UNL d   1      24.755 -15.239  -2.185  0.00  0.00    -0.114 N 
ATOM     17  O   UNL d   1      23.966 -16.010  -1.618  0.00  0.00    -0.532 OA
ATOM     18  O   UNL d   1      24.420 -14.486  -3.106  0.00  0.00    -0.532 OA
ENDBRANCH  14  16
ENDBRANCH   7   9
ENDBRANCH   2   5
BRANCH   3  19
ATOM     19  C   UNL d   1      28.698 -14.815   5.911  0.00  0.00     0.128 C 
BRANCH  19  20
ATOM     20  C   UNL d   1      29.568 -13.605   6.236  0.00  0.00     0.060 C 
BRANCH  20  21
ATOM     21  C   UNL d   1      29.119 -12.855   7.448  0.00  0.00    -0.029 A 
ATOM     22  C   UNL d   1      28.889 -11.497   7.558  0.00  0.00     0.096 A 
ATOM     23  N   UNL d   1      28.528 -11.225   8.853  0.00  0.00    -0.365 N 
ATOM     24  C   UNL d   1      28.562 -12.374   9.608  0.00  0.00     0.042 A 
ATOM     25  H   UNL d   1      28.304 -10.307   9.214  0.00  0.00     0.165 HD
ATOM     26  C   UNL d   1      28.335 -12.578  10.976  0.00  0.00     0.030 A 
ATOM     27  C   UNL d   1      28.901 -13.415   8.744  0.00  0.00    -0.002 A 
ATOM     28  C   UNL d   1      28.477 -13.881  11.469  0.00  0.00     0.002 A 
ATOM     29  C   UNL d   1      28.797 -14.940  10.624  0.00  0.00     0.001 A 
ATOM     30  C   UNL d   1      28.997 -14.722   9.261  0.00  0.00     0.014 A 
ENDBRANCH  20  21
ENDBRANCH  19  20
ENDBRANCH   3  19
TORSDOF 6
ENDMDL
MODEL 2
REMARK VINA RESULT:    -7.563      3.487      9.350
REMARK INTER + INTRA:         -10.110
REMARK INTER:                  -9.353
REMARK INTRA:                  -0.758
REMARK CONF_INDEPENDENT:        1.790
REMARK UNBOUND:                -0.758
REMARK  6 active torsions:
REMARK  status: ('A' for Active; 'I' for Inactive)
REMARK       I    between atoms: C_2  and  N_3 
REMARK    1  A    between atoms: C_2  and  C_15 
REMARK    2  A    between atoms: N_3  and  C_4 
REMARK    3  A    between atoms: C_4  and  C_5 
REMARK    4  A    between atoms: C_5  and  C_6 
REMARK       I    between atoms: C_15  and  N_17 
REMARK    5  A    between atoms: N_17  and  C_18 
REMARK    6  A    between atoms: C_23  and  N_24 
ROOT
ATOM      1  O   UNL d   1      27.678 -13.823  -0.030  0.00  0.00    -0.262 OA
ATOM      2  C   UNL d   1      28.224 -14.458   0.872  0.00  0.00     0.309 C 
ATOM      3  N   UNL d   1      28.868 -15.660   0.627  0.00  0.00    -0.353 N 
ATOM      4  H   UNL d   1      29.291 -16.197   1.365  0.00  0.00     0.162 HD
ENDROOT
BRANCH   2   5
ATOM      5  C   UNL d   1      28.173 -13.897   2.319  0.00  0.00     0.313 C 
ATOM      6  O   UNL d   1      27.456 -12.915   2.516  0.00  0.00    -0.262 OA
ATOM      7  N   UNL d   1      28.977 -14.476   3.319  0.00  0.00    -0.319 N 
ATOM      8  H   UNL d   1      29.735 -15.083   3.053  0.00  0.00     0.169 HD
BRANCH   7   9
ATOM      9  C   UNL d   1      28.964 -13.950   4.644  0.00  0.00     0.037 A 
ATOM     10  C   UNL d   1      29.004 -14.820   5.736  0.00  0.00     0.031 A 
ATOM     11  C   UNL d   1      28.905 -14.346   7.045  0.00  0.00     0.029 A 
ATOM     12  C   UNL d   1      28.756 -12.982   7.308  0.00  0.00     0.067 A 
ATOM     13 CL   UNL d   1      28.573 -12.589   8.982  0.00  0.00    -0.082 Cl
ATOM     14  C   UNL d   1      28.760 -12.084   6.230  0.00  0.00     0.126 A 
ATOM     15  C   UNL d   1      28.891 -12.571   4.893  0.00  0.00     0.067 A 
BRANCH  14  16
ATOM     16  N   UNL d   1      28.612 -10.628   6.424  0.00  0.00    -0.114 N 
ATOM     17  O   UNL d   1      28.202  -9.968   5.458  0.00  0.00    -0.532 OA
ATOM     18  O   UNL d   1      28.903 -10.121   7.513  0.00  0.00    -0.532 OA
ENDBRANCH  14  16
ENDBRANCH   7   9
ENDBRANCH   2   5
BRANCH   3  19
ATOM     19  C   UNL d   1      28.882 -16.201  -0.734  0.00  0.00     0.128 C 
BRANCH  19  20
ATOM     20  C   UNL d   1      27.795 -17.247  -0.953  0.00  0.00     0.060 C 
BRANCH  20  21
ATOM     21  C   UNL d   1      26.449 -16.660  -1.233  0.00  0.00    -0.029 A 
ATOM     22  C   UNL d   1      26.168 -15.476  -1.888  0.00  0.00     0.096 A 
ATOM     23  N   UNL d   1      24.808 -15.298  -1.892  0.00  0.00    -0.365 N 
ATOM     24  C   UNL d   1      24.192 -16.321  -1.210  0.00  0.00     0.042 A 
ATOM     25  H   UNL d   1      24.326 -14.510  -2.304  0.00  0.00     0.165 HD
ATOM     26  C   UNL d   1      22.842 -16.533  -0.902  0.00  0.00     0.030 A 
ATOM     27  C   UNL d   1      25.197 -17.204  -0.812  0.00  0.00    -0.002 A 
ATOM     28  C   UNL d   1      22.519 -17.672  -0.154  0.00  0.00     0.002 A 
ATOM     29  C   UNL d   1      23.501 -18.578   0.240  0.00  0.00     0.001 A 
ATOM     30  C   UNL d   1      24.838 -18.361  -0.094  0.00  0.00     0.014 A 
ENDBRANCH  20  21
ENDBRANCH  19  20
ENDBRANCH   3  19
TORSDOF 6
ENDMDL
MODEL 3
REMARK VINA RESULT:    -7.472      7.212      9.405
REMARK INTER + INTRA:         -10.180
REMARK INTER:                  -9.262
REMARK INTRA:                  -0.917
REMARK CONF_INDEPENDENT:        1.790
REMARK UNBOUND:                -0.917
REMARK  6 active torsions:
REMARK  status: ('A' for Active; 'I' for Inactive)
REMARK       I    between atoms: C_2  and  N_3 
REMARK    1  A    between atoms: C_2  and  C_15 
REMARK    2  A    between atoms: N_3  and  C_4 
REMARK    3  A    between atoms: C_4  and  C_5 
REMARK    4  A    between atoms: C_5  and  C_6 
REMARK       I    between atoms: C_15  and  N_17 
REMARK    5  A    between atoms: N_17  and  C_18 
REMARK    6  A    between atoms: C_23  and  N_24 
ROOT
ATOM      1  O   UNL d   1      25.406 -14.877  -4.315  0.00  0.00    -0.262 OA
ATOM      2  C   UNL d   1      26.576 -14.968  -3.941  0.00  0.00     0.309 C 
ATOM      3  N   UNL d   1      26.939 -14.720  -2.628  0.00  0.00    -0.353 N 
ATOM      4  H   UNL d   1      27.896 -14.766  -2.323  0.00  0.00     0.162 HD
ENDROOT
BRANCH   2   5
ATOM      5  C   UNL d   1      27.664 -15.359  -4.977  0.00  0.00     0.313 C 
ATOM      6  O   UNL d   1      27.389 -15.200  -6.167  0.00  0.00    -0.262 OA
ATOM      7  N   UNL d   1      28.874 -15.927  -4.535  0.00  0.00    -0.319 N 
ATOM      8  H   UNL d   1      28.937 -16.284  -3.596  0.00  0.00     0.169 HD
BRANCH   7   9
ATOM      9  C   UNL d   1      29.868 -16.320  -5.478  0.00  0.00     0.037 A 
ATOM     10  C   UNL d   1      30.545 -15.347  -6.218  0.00  0.00     0.031 A 
ATOM     11  C   UNL d   1      31.462 -15.699  -7.210  0.00  0.00     0.029 A 
ATOM     12  C   UNL d   1      31.729 -17.039  -7.501  0.00  0.00     0.067 A 
ATOM     13 CL   UNL d   1      32.833 -17.282  -8.811  0.00  0.00    -0.082 Cl
ATOM     14  C   UNL d   1      31.097 -18.033  -6.740  0.00  0.00     0.126 A 
ATOM     15  C   UNL d   1      30.182 -17.668  -5.706  0.00  0.00     0.067 A 
BRANCH  14  16
ATOM     16  N   UNL d   1      31.331 -19.471  -6.982  0.00  0.00    -0.114 N 
ATOM     17  O   UNL d   1      32.475 -19.899  -6.772  0.00  0.00    -0.532 OA
ATOM     18  O   UNL d   1      30.405 -20.183  -7.386  0.00  0.00    -0.532 OA
ENDBRANCH  14  16
ENDBRANCH   7   9
ENDBRANCH   2   5
BRANCH   3  19
ATOM     19  C   UNL d   1      25.912 -14.318  -1.663  0.00  0.00     0.128 C 
BRANCH  19  20
ATOM     20  C   UNL d   1      26.156 -14.908  -0.278  0.00  0.00     0.060 C 
BRANCH  20  21
ATOM     21  C   UNL d   1      25.804 -16.357  -0.176  0.00  0.00    -0.029 A 
ATOM     22  C   UNL d   1      26.659 -17.414   0.068  0.00  0.00     0.096 A 
ATOM     23  N   UNL d   1      25.928 -18.575   0.042  0.00  0.00    -0.365 N 
ATOM     24  C   UNL d   1      24.615 -18.303  -0.262  0.00  0.00     0.042 A 
ATOM     25  H   UNL d   1      26.304 -19.502   0.188  0.00  0.00     0.165 HD
ATOM     26  C   UNL d   1      23.525 -19.161  -0.459  0.00  0.00     0.030 A 
ATOM     27  C   UNL d   1      24.505 -16.917  -0.375  0.00  0.00    -0.002 A 
ATOM     28  C   UNL d   1      22.295 -18.579  -0.794  0.00  0.00     0.002 A 
ATOM     29  C   UNL d   1      22.155 -17.197  -0.895  0.00  0.00     0.001 A 
ATOM     30  C   UNL d   1      23.246 -16.358  -0.674  0.00  0.00     0.014 A 
ENDBRANCH  20  21
ENDBRANCH  19  20
ENDBRANCH   3  19
TORSDOF 6
ENDMDL
MODEL 4
REMARK VINA RESULT:    -7.319      4.864      9.008
REMARK INTER + INTRA:         -10.279
REMARK INTER:                  -9.109
REMARK INTRA:                  -1.170
REMARK CONF_INDEPENDENT:        1.790
REMARK UNBOUND:                -1.170
REMARK  6 active torsions:
REMARK  status: ('A' for Active; 'I' for Inactive)
REMARK       I    between atoms: C_2  and  N_3 
REMARK    1  A    between atoms: C_2  and  C_15 
REMARK    2  A    between atoms: N_3  and  C_4 
REMARK    3  A    between atoms: C_4  and  C_5 
REMARK    4  A    between atoms: C_5  and  C_6 
REMARK       I    between atoms: C_15  and  N_17 
REMARK    5  A    between atoms: N_17  and  C_18 
REMARK    6  A    between atoms: C_23  and  N_24 
ROOT
ATOM      1  O   UNL d   1      26.330 -15.006   0.623  0.00  0.00    -0.262 OA
ATOM      2  C   UNL d   1      27.502 -14.647   0.738  0.00  0.00     0.309 C 
ATOM      3  N   UNL d   1      28.551 -15.456   0.332  0.00  0.00    -0.353 N 
ATOM      4  H   UNL d   1      29.511 -15.180   0.450  0.00  0.00     0.162 HD
ENDROOT
BRANCH   2   5
ATOM      5  C   UNL d   1      27.802 -13.259   1.366  0.00  0.00     0.313 C 
ATOM      6  O   UNL d   1      28.975 -12.884   1.367  0.00  0.00    -0.262 OA
ATOM      7  N   UNL d   1      26.757 -12.522   1.956  0.00  0.00    -0.319 N 
ATOM      8  H   UNL d   1      25.888 -12.983   2.171  0.00  0.00     0.169 HD
BRANCH   7   9
ATOM      9  C   UNL d   1      27.024 -11.261   2.564  0.00  0.00     0.037 A 
ATOM     10  C   UNL d   1      27.870 -11.192   3.674  0.00  0.00     0.031 A 
ATOM     11  C   UNL d   1      28.084  -9.988   4.348  0.00  0.00     0.029 A 
ATOM     12  C   UNL d   1      27.454  -8.811   3.937  0.00  0.00     0.067 A 
ATOM     13 CL   UNL d   1      27.779  -7.437   4.937  0.00  0.00    -0.082 Cl
ATOM     14  C   UNL d   1      26.636  -8.846   2.798  0.00  0.00     0.126 A 
ATOM     15  C   UNL d   1      26.443 -10.074   2.094  0.00  0.00     0.067 A 
BRANCH  14  16
ATOM     16  N   UNL d   1      25.939  -7.644   2.298  0.00  0.00    -0.114 N 
ATOM     17  O   UNL d   1      26.175  -6.574   2.877  0.00  0.00    -0.532 OA
ATOM     18  O   UNL d   1      25.155  -7.740   1.348  0.00  0.00    -0.532 OA
ENDBRANCH  14  16
ENDBRANCH   7   9
ENDBRANCH   2   5
BRANCH   3  19
ATOM     19  C   UNL d   1      28.262 -16.779  -0.228  0.00  0.00     0.128 C 
BRANCH  19  20
ATOM     20  C   UNL d   1      27.751 -16.701  -1.662  0.00  0.00     0.060 C 
BRANCH  20  21
ATOM     21  C   UNL d   1      26.304 -16.340  -1.761  0.00  0.00    -0.029 A 
ATOM     22  C   UNL d   1      25.750 -15.259  -2.421  0.00  0.00     0.096 A 
ATOM     23  N   UNL d   1      24.393 -15.285  -2.227  0.00  0.00    -0.365 N 
ATOM     24  C   UNL d   1      24.049 -16.338  -1.411  0.00  0.00     0.042 A 
ATOM     25  H   UNL d   1      23.739 -14.608  -2.597  0.00  0.00     0.165 HD
ATOM     26  C   UNL d   1      22.806 -16.725  -0.892  0.00  0.00     0.030 A 
ATOM     27  C   UNL d   1      25.226 -17.032  -1.130  0.00  0.00    -0.002 A 
ATOM     28  C   UNL d   1      22.777 -17.844  -0.050  0.00  0.00     0.002 A 
ATOM     29  C   UNL d   1      23.934 -18.565   0.232  0.00  0.00     0.001 A 
ATOM     30  C   UNL d   1      25.159 -18.177  -0.312  0.00  0.00     0.014 A 
ENDBRANCH  20  21
ENDBRANCH  19  20
ENDBRANCH   3  19
TORSDOF 6
ENDMDL
MODEL 5
REMARK VINA RESULT:    -7.258      1.368      1.580
REMARK INTER + INTRA:          -9.814
REMARK INTER:                  -9.048
REMARK INTRA:                  -0.766
REMARK CONF_INDEPENDENT:        1.790
REMARK UNBOUND:                -0.766
REMARK  6 active torsions:
REMARK  status: ('A' for Active; 'I' for Inactive)
REMARK       I    between atoms: C_2  and  N_3 
REMARK    1  A    between atoms: C_2  and  C_15 
REMARK    2  A    between atoms: N_3  and  C_4 
REMARK    3  A    between atoms: C_4  and  C_5 
REMARK    4  A    between atoms: C_5  and  C_6 
REMARK       I    between atoms: C_15  and  N_17 
REMARK    5  A    between atoms: N_17  and  C_18 
REMARK    6  A    between atoms: C_23  and  N_24 
ROOT
ATOM      1  O   UNL d   1      27.399 -13.415   5.321  0.00  0.00    -0.262 OA
ATOM      2  C   UNL d   1      27.996 -14.043   4.447  0.00  0.00     0.309 C 
ATOM      3  N   UNL d   1      29.179 -14.713   4.715  0.00  0.00    -0.353 N 
ATOM      4  H   UNL d   1      29.686 -15.204   3.998  0.00  0.00     0.162 HD
ENDROOT
BRANCH   2   5
ATOM      5  C   UNL d   1      27.409 -14.068   3.009  0.00  0.00     0.313 C 
ATOM      6  O   UNL d   1      26.494 -13.281   2.762  0.00  0.00    -0.262 OA
ATOM      7  N   UNL d   1      27.888 -15.009   2.078  0.00  0.00    -0.319 N 
ATOM      8  H   UNL d   1      28.429 -15.794   2.403  0.00  0.00     0.169 HD
BRANCH   7   9
ATOM      9  C   UNL d   1      27.336 -15.064   0.765  0.00  0.00     0.037 A 
ATOM     10  C   UNL d   1      27.065 -16.302   0.179  0.00  0.00     0.031 A 
ATOM     11  C   UNL d   1      26.607 -16.396  -1.137  0.00  0.00     0.029 A 
ATOM     12  C   UNL d   1      26.409 -15.252  -1.914  0.00  0.00     0.067 A 
ATOM     13 CL   UNL d   1      25.912 -15.568  -3.541  0.00  0.00    -0.082 Cl
ATOM     14  C   UNL d   1      26.630 -13.995  -1.332  0.00  0.00     0.126 A 
ATOM     15  C   UNL d   1      27.071 -13.903   0.024  0.00  0.00     0.067 A 
BRANCH  14  16
ATOM     16  N   UNL d   1      26.439 -12.740  -2.085  0.00  0.00    -0.114 N 
ATOM     17  O   UNL d   1      27.139 -11.772  -1.755  0.00  0.00    -0.532 OA
ATOM     18  O   UNL d   1      25.601 -12.690  -2.992  0.00  0.00    -0.532 OA
ENDBRANCH  14  16
ENDBRANCH   7   9
ENDBRANCH   2   5
BRANCH   3  19
ATOM     19  C   UNL d   1      29.745 -14.657   6.065  0.00  0.00     0.128 C 
BRANCH  19  20
ATOM     20  C   UNL d   1      30.270 -13.269   6.415  0.00  0.00     0.060 C 
BRANCH  20  21
ATOM     21  C   UNL d   1      29.527 -12.614   7.535  0.00  0.00    -0.029 A 
ATOM     22  C   UNL d   1      29.165 -11.285   7.639  0.00  0.00     0.096 A 
ATOM     23  N   UNL d   1      28.532 -11.103   8.842  0.00  0.00    -0.365 N 
ATOM     24  C   UNL d   1      28.514 -12.282   9.552  0.00  0.00     0.042 A 
ATOM     25  H   UNL d   1      28.164 -10.224   9.179  0.00  0.00     0.165 HD
ATOM     26  C   UNL d   1      28.040 -12.567  10.839  0.00  0.00     0.030 A 
ATOM     27  C   UNL d   1      29.106 -13.251   8.742  0.00  0.00    -0.002 A 
ATOM     28  C   UNL d   1      28.191 -13.878  11.310  0.00  0.00     0.002 A 
ATOM     29  C   UNL d   1      28.762 -14.867  10.514  0.00  0.00     0.001 A 
ATOM     30  C   UNL d   1      29.209 -14.570   9.227  0.00  0.00     0.014 A 
ENDBRANCH  20  21
ENDBRANCH  19  20
ENDBRANCH   3  19
TORSDOF 6
ENDMDL
MODEL 6
REMARK VINA RESULT:    -7.193      7.577     10.335
REMARK INTER + INTRA:          -9.794
REMARK INTER:                  -8.982
REMARK INTRA:                  -0.811
REMARK CONF_INDEPENDENT:        1.790
REMARK UNBOUND:                -0.811
REMARK  6 active torsions:
REMARK  status: ('A' for Active; 'I' for Inactive)
REMARK       I    between atoms: C_2  and  N_3 
REMARK    1  A    between atoms: C_2  and  C_15 
REMARK    2  A    between atoms: N_3  and  C_4 
REMARK    3  A    between atoms: C_4  and  C_5 
REMARK    4  A    between atoms: C_5  and  C_6 
REMARK       I    between atoms: C_15  and  N_17 
REMARK    5  A    between atoms: N_17  and  C_18 
REMARK    6  A    between atoms: C_23  and  N_24 
ROOT
ATOM      1  O   UNL d   1      32.927 -16.908  -0.120  0.00  0.00    -0.262 OA
ATOM      2  C   UNL d   1      32.064 -17.655   0.340  0.00  0.00     0.309 C 
ATOM      3  N   UNL d   1      30.906 -17.946  -0.362  0.00  0.00    -0.353 N 
ATOM      4  H   UNL d   1      30.185 -18.533   0.021  0.00  0.00     0.162 HD
ENDROOT
BRANCH   2   5
ATOM      5  C   UNL d   1      32.282 -18.272   1.749  0.00  0.00     0.313 C 
ATOM      6  O   UNL d   1      32.347 -17.491   2.700  0.00  0.00    -0.262 OA
ATOM      7  N   UNL d   1      32.456 -19.662   1.880  0.00  0.00    -0.319 N 
ATOM      8  H   UNL d   1      32.667 -20.213   1.064  0.00  0.00     0.169 HD
BRANCH   7   9
ATOM      9  C   UNL d   1      32.689 -20.238   3.164  0.00  0.00     0.037 A 
ATOM     10  C   UNL d   1      33.995 -20.519   3.571  0.00  0.00     0.031 A 
ATOM     11  C   UNL d   1      34.254 -21.162   4.783  0.00  0.00     0.029 A 
ATOM     12  C   UNL d   1      33.212 -21.552   5.628  0.00  0.00     0.067 A 
ATOM     13 CL   UNL d   1      33.720 -22.402   7.047  0.00  0.00    -0.082 Cl
ATOM     14  C   UNL d   1      31.895 -21.238   5.263  0.00  0.00     0.126 A 
ATOM     15  C   UNL d   1      31.636 -20.555   4.036  0.00  0.00     0.067 A 
BRANCH  14  16
ATOM     16  N   UNL d   1      30.740 -21.612   6.104  0.00  0.00    -0.114 N 
ATOM     17  O   UNL d   1      30.902 -21.576   7.332  0.00  0.00    -0.532 OA
ATOM     18  O   UNL d   1      29.677 -21.949   5.572  0.00  0.00    -0.532 OA
ENDBRANCH  14  16
ENDBRANCH   7   9
ENDBRANCH   2   5
BRANCH   3  19
ATOM     19  C   UNL d   1      30.692 -17.333  -1.676  0.00  0.00     0.128 C 
BRANCH  19  20
ATOM     20  C   UNL d   1      29.942 -16.009  -1.582  0.00  0.00     0.060 C 
BRANCH  20  21
ATOM     21  C   UNL d   1      28.483 -16.126  -1.886  0.00  0.00    -0.029 A 
ATOM     22  C   UNL d   1      27.794 -15.541  -2.931  0.00  0.00     0.096 A 
ATOM     23  N   UNL d   1      26.469 -15.877  -2.815  0.00  0.00    -0.365 N 
ATOM     24  C   UNL d   1      26.268 -16.635  -1.684  0.00  0.00     0.042 A 
ATOM     25  H   UNL d   1      25.736 -15.582  -3.446  0.00  0.00     0.165 HD
ATOM     26  C   UNL d   1      25.091 -17.150  -1.125  0.00  0.00     0.030 A 
ATOM     27  C   UNL d   1      27.520 -16.829  -1.101  0.00  0.00    -0.002 A 
ATOM     28  C   UNL d   1      25.203 -17.869   0.071  0.00  0.00     0.002 A 
ATOM     29  C   UNL d   1      26.443 -18.093   0.665  0.00  0.00     0.001 A 
ATOM     30  C   UNL d   1      27.606 -17.591   0.082  0.00  0.00     0.014 A 
ENDBRANCH  20  21
ENDBRANCH  19  20
ENDBRANCH   3  19
TORSDOF 6
ENDMDL
MODEL 7
REMARK VINA RESULT:    -7.076      4.165     10.167
REMARK INTER + INTRA:          -9.975
REMARK INTER:                  -8.866
REMARK INTRA:                  -1.109
REMARK CONF_INDEPENDENT:        1.790
REMARK UNBOUND:                -1.109
REMARK  6 active torsions:
REMARK  status: ('A' for Active; 'I' for Inactive)
REMARK       I    between atoms: C_2  and  N_3 
REMARK    1  A    between atoms: C_2  and  C_15 
REMARK    2  A    between atoms: N_3  and  C_4 
REMARK    3  A    between atoms: C_4  and  C_5 
REMARK    4  A    between atoms: C_5  and  C_6 
REMARK       I    between atoms: C_15  and  N_17 
REMARK    5  A    between atoms: N_17  and  C_18 
REMARK    6  A    between atoms: C_23  and  N_24 
ROOT
ATOM      1  O   UNL d   1      27.017 -12.747   3.291  0.00  0.00    -0.262 OA
ATOM      2  C   UNL d   1      27.668 -13.786   3.404  0.00  0.00     0.309 C 
ATOM      3  N   UNL d   1      27.823 -14.664   2.344  0.00  0.00    -0.353 N 
ATOM      4  H   UNL d   1      28.329 -15.528   2.439  0.00  0.00     0.162 HD
ENDROOT
BRANCH   2   5
ATOM      5  C   UNL d   1      28.315 -14.118   4.776  0.00  0.00     0.313 C 
ATOM      6  O   UNL d   1      28.633 -15.291   4.978  0.00  0.00    -0.262 OA
ATOM      7  N   UNL d   1      28.456 -13.104   5.742  0.00  0.00    -0.319 N 
ATOM      8  H   UNL d   1      27.941 -12.245   5.636  0.00  0.00     0.169 HD
BRANCH   7   9
ATOM      9  C   UNL d   1      29.019 -13.402   7.017  0.00  0.00     0.037 A 
ATOM     10  C   UNL d   1      30.243 -14.072   7.095  0.00  0.00     0.031 A 
ATOM     11  C   UNL d   1      30.781 -14.456   8.325  0.00  0.00     0.029 A 
ATOM     12  C   UNL d   1      30.110 -14.189   9.520  0.00  0.00     0.067 A 
ATOM     13 CL   UNL d   1      30.891 -14.807  10.935  0.00  0.00    -0.082 Cl
ATOM     14  C   UNL d   1      28.903 -13.477   9.470  0.00  0.00     0.126 A 
ATOM     15  C   UNL d   1      28.370 -13.059   8.213  0.00  0.00     0.067 A 
BRANCH  14  16
ATOM     16  N   UNL d   1      28.136 -13.151  10.690  0.00  0.00    -0.114 N 
ATOM     17  O   UNL d   1      27.343 -12.200  10.620  0.00  0.00    -0.532 OA
ATOM     18  O   UNL d   1      28.310 -13.811  11.719  0.00  0.00    -0.532 OA
ENDBRANCH  14  16
ENDBRANCH   7   9
ENDBRANCH   2   5
BRANCH   3  19
ATOM     19  C   UNL d   1      27.180 -14.362   1.062  0.00  0.00     0.128 C 
BRANCH  19  20
ATOM     20  C   UNL d   1      27.594 -15.334  -0.037  0.00  0.00     0.060 C 
BRANCH  20  21
ATOM     21  C   UNL d   1      26.874 -16.643   0.022  0.00  0.00    -0.029 A 
ATOM     22  C   UNL d   1      27.416 -17.889   0.278  0.00  0.00     0.096 A 
ATOM     23  N   UNL d   1      26.411 -18.819   0.200  0.00  0.00    -0.365 N 
ATOM     24  C   UNL d   1      25.227 -18.213  -0.150  0.00  0.00     0.042 A 
ATOM     25  H   UNL d   1      26.527 -19.814   0.342  0.00  0.00     0.165 HD
ATOM     26  C   UNL d   1      23.961 -18.756  -0.406  0.00  0.00     0.030 A 
ATOM     27  C   UNL d   1      25.485 -16.845  -0.239  0.00  0.00    -0.002 A 
ATOM     28  C   UNL d   1      22.940 -17.873  -0.778  0.00  0.00     0.002 A 
ATOM     29  C   UNL d   1      23.167 -16.501  -0.856  0.00  0.00     0.001 A 
ATOM     30  C   UNL d   1      24.428 -15.976  -0.576  0.00  0.00     0.014 A 
ENDBRANCH  20  21
ENDBRANCH  19  20
ENDBRANCH   3  19
TORSDOF 6
ENDMDL
MODEL 8
REMARK VINA RESULT:    -6.680      5.037      9.189
REMARK INTER + INTRA:          -9.642
REMARK INTER:                  -8.469
REMARK INTRA:                  -1.173
REMARK CONF_INDEPENDENT:        1.790
REMARK UNBOUND:                -1.173
REMARK  6 active torsions:
REMARK  status: ('A' for Active; 'I' for Inactive)
REMARK       I    between atoms: C_2  and  N_3 
REMARK    1  A    between atoms: C_2  and  C_15 
REMARK    2  A    between atoms: N_3  and  C_4 
REMARK    3  A    between atoms: C_4  and  C_5 
REMARK    4  A    between atoms: C_5  and  C_6 
REMARK       I    between atoms: C_15  and  N_17 
REMARK    5  A    between atoms: N_17  and  C_18 
REMARK    6  A    between atoms: C_23  and  N_24 
ROOT
ATOM      1  O   UNL d   1      27.561 -12.459  -3.674  0.00  0.00    -0.262 OA
ATOM      2  C   UNL d   1      26.728 -12.524  -2.769  0.00  0.00     0.309 C 
ATOM      3  N   UNL d   1      25.526 -13.192  -2.936  0.00  0.00    -0.353 N 
ATOM      4  H   UNL d   1      24.831 -13.225  -2.211  0.00  0.00     0.162 HD
ENDROOT
BRANCH   2   5
ATOM      5  C   UNL d   1      27.037 -11.827  -1.417  0.00  0.00     0.313 C 
ATOM      6  O   UNL d   1      27.375 -10.644  -1.459  0.00  0.00    -0.262 OA
ATOM      7  N   UNL d   1      26.981 -12.570  -0.222  0.00  0.00    -0.319 N 
ATOM      8  H   UNL d   1      26.970 -13.576  -0.266  0.00  0.00     0.169 HD
BRANCH   7   9
ATOM      9  C   UNL d   1      27.293 -11.950   1.023  0.00  0.00     0.037 A 
ATOM     10  C   UNL d   1      28.077 -12.629   1.958  0.00  0.00     0.031 A 
ATOM     11  C   UNL d   1      28.330 -12.090   3.221  0.00  0.00     0.029 A 
ATOM     12  C   UNL d   1      27.800 -10.852   3.595  0.00  0.00     0.067 A 
ATOM     13 CL   UNL d   1      28.155 -10.382   5.221  0.00  0.00    -0.082 Cl
ATOM     14  C   UNL d   1      27.047 -10.130   2.656  0.00  0.00     0.126 A 
ATOM     15  C   UNL d   1      26.816 -10.673   1.355  0.00  0.00     0.067 A 
BRANCH  14  16
ATOM     16  N   UNL d   1      26.457  -8.814   2.973  0.00  0.00    -0.114 N 
ATOM     17  O   UNL d   1      25.395  -8.521   2.404  0.00  0.00    -0.532 OA
ATOM     18  O   UNL d   1      27.030  -8.060   3.766  0.00  0.00    -0.532 OA
ENDBRANCH  14  16
ENDBRANCH   7   9
ENDBRANCH   2   5
BRANCH   3  19
ATOM     19  C   UNL d   1      25.227 -13.819  -4.227  0.00  0.00     0.128 C 
BRANCH  19  20
ATOM     20  C   UNL d   1      25.854 -15.202  -4.358  0.00  0.00     0.060 C 
BRANCH  20  21
ATOM     21  C   UNL d   1      26.460 -15.706  -3.088  0.00  0.00    -0.029 A 
ATOM     22  C   UNL d   1      27.793 -15.680  -2.725  0.00  0.00     0.096 A 
ATOM     23  N   UNL d   1      27.917 -16.279  -1.497  0.00  0.00    -0.365 N 
ATOM     24  C   UNL d   1      26.694 -16.741  -1.068  0.00  0.00     0.042 A 
ATOM     25  H   UNL d   1      28.785 -16.399  -0.993  0.00  0.00     0.165 HD
ATOM     26  C   UNL d   1      26.341 -17.464   0.079  0.00  0.00     0.030 A 
ATOM     27  C   UNL d   1      25.760 -16.369  -2.034  0.00  0.00    -0.002 A 
ATOM     28  C   UNL d   1      24.995 -17.825   0.228  0.00  0.00     0.002 A 
ATOM     29  C   UNL d   1      24.040 -17.450  -0.713  0.00  0.00     0.001 A 
ATOM     30  C   UNL d   1      24.408 -16.712  -1.838  0.00  0.00     0.014 A 
ENDBRANCH  20  21
ENDBRANCH  19  20
ENDBRANCH   3  19
TORSDOF 6
ENDMDL
MODEL 9
REMARK VINA RESULT:    -6.492      5.217     10.139
REMARK INTER + INTRA:          -9.776
REMARK INTER:                  -8.282
REMARK INTRA:                  -1.494
REMARK CONF_INDEPENDENT:        1.790
REMARK UNBOUND:                -1.494
REMARK  6 active torsions:
REMARK  status: ('A' for Active; 'I' for Inactive)
REMARK       I    between atoms: C_2  and  N_3 
REMARK    1  A    between atoms: C_2  and  C_15 
REMARK    2  A    between atoms: N_3  and  C_4 
REMARK    3  A    between atoms: C_4  and  C_5 
REMARK    4  A    between atoms: C_5  and  C_6 
REMARK       I    between atoms: C_15  and  N_17 
REMARK    5  A    between atoms: N_17  and  C_18 
REMARK    6  A    between atoms: C_23  and  N_24 
ROOT
ATOM      1  O   UNL d   1      27.898 -14.339  -1.512  0.00  0.00    -0.262 OA
ATOM      2  C   UNL d   1      27.193 -14.491  -0.514  0.00  0.00     0.309 C 
ATOM      3  N   UNL d   1      26.389 -15.608  -0.357  0.00  0.00    -0.353 N 
ATOM      4  H   UNL d   1      25.790 -15.724   0.443  0.00  0.00     0.162 HD
ENDROOT
BRANCH   2   5
ATOM      5  C   UNL d   1      27.201 -13.392   0.582  0.00  0.00     0.313 C 
ATOM      6  O   UNL d   1      26.572 -13.623   1.615  0.00  0.00    -0.262 OA
ATOM      7  N   UNL d   1      27.860 -12.171   0.339  0.00  0.00    -0.319 N 
ATOM      8  H   UNL d   1      28.117 -11.928  -0.604  0.00  0.00     0.169 HD
BRANCH   7   9
ATOM      9  C   UNL d   1      27.848 -11.141   1.324  0.00  0.00     0.037 A 
ATOM     10  C   UNL d   1      28.692 -11.234   2.434  0.00  0.00     0.031 A 
ATOM     11  C   UNL d   1      28.645 -10.289   3.461  0.00  0.00     0.029 A 
ATOM     12  C   UNL d   1      27.747  -9.220   3.416  0.00  0.00     0.067 A 
ATOM     13 CL   UNL d   1      27.780  -8.197   4.810  0.00  0.00    -0.082 Cl
ATOM     14  C   UNL d   1      26.923  -9.080   2.289  0.00  0.00     0.126 A 
ATOM     15  C   UNL d   1      26.994 -10.032   1.227  0.00  0.00     0.067 A 
BRANCH  14  16
ATOM     16  N   UNL d   1      25.951  -7.975   2.164  0.00  0.00    -0.114 N 
ATOM     17  O   UNL d   1      25.033  -8.122   1.344  0.00  0.00    -0.532 OA
ATOM     18  O   UNL d   1      26.084  -6.959   2.855  0.00  0.00    -0.532 OA
ENDBRANCH  14  16
ENDBRANCH   7   9
ENDBRANCH   2   5
BRANCH   3  19
ATOM     19  C   UNL d   1      26.360 -16.625  -1.412  0.00  0.00     0.128 C 
BRANCH  19  20
ATOM     20  C   UNL d   1      25.260 -16.367  -2.435  0.00  0.00     0.060 C 
BRANCH  20  21
ATOM     21  C   UNL d   1      25.449 -15.103  -3.210  0.00  0.00    -0.029 A 
ATOM     22  C   UNL d   1      24.618 -13.999  -3.234  0.00  0.00     0.096 A 
ATOM     23  N   UNL d   1      25.148 -13.081  -4.105  0.00  0.00    -0.365 N 
ATOM     24  C   UNL d   1      26.288 -13.581  -4.689  0.00  0.00     0.042 A 
ATOM     25  H   UNL d   1      24.741 -12.179  -4.317  0.00  0.00     0.165 HD
ATOM     26  C   UNL d   1      27.125 -13.040  -5.674  0.00  0.00     0.030 A 
ATOM     27  C   UNL d   1      26.514 -14.836  -4.123  0.00  0.00    -0.002 A 
ATOM     28  C   UNL d   1      28.213 -13.814  -6.097  0.00  0.00     0.002 A 
ATOM     29  C   UNL d   1      28.471 -15.062  -5.535  0.00  0.00     0.001 A 
ATOM     30  C   UNL d   1      27.639 -15.575  -4.540  0.00  0.00     0.014 A 
ENDBRANCH  20  21
ENDBRANCH  19  20
ENDBRANCH   3  19
TORSDOF 6
ENDMDL
