MODEL 1
REMARK VINA RESULT:    -7.559      0.000      0.000
REMARK INTER + INTRA:         -12.667
REMARK INTER:                 -10.542
REMARK INTRA:                  -2.125
REMARK CONF_INDEPENDENT:        2.983
REMARK UNBOUND:                -2.125
REMARK  10 active torsions:
REMARK  status: ('A' for Active; 'I' for Inactive)
REMARK    1  A    between atoms: O_2  and  C_3 
REMARK    2  A    between atoms: C_6  and  O_7 
REMARK    3  A    between atoms: O_7  and  C_8 
REMARK    4  A    between atoms: C_8  and  C_9 
REMARK    5  A    between atoms: C_9  and  N_10 
REMARK       I    between atoms: N_10  and  C_11 
REMARK       I    between atoms: C_11  and  N_13 
REMARK    6  A    between atoms: N_13  and  C_14 
REMARK    7  A    between atoms: C_14  and  C_15 
REMARK    8  A    between atoms: C_15  and  N_16 
REMARK    9  A    between atoms: N_16  and  C_17 
REMARK   10  A    between atoms: C_22  and  N_23 
ROOT
ATOM      1  N   UNL d   1      28.272 -15.229   1.505  0.00  0.00    -0.341 N 
ATOM      2  C   UNL d   1      27.713 -14.477   2.517  0.00  0.00     0.316 C 
ATOM      3  O   UNL d   1      26.868 -13.622   2.326  0.00  0.00    -0.247 OA
ATOM      4  N   UNL d   1      28.160 -14.814   3.774  0.00  0.00    -0.342 N 
ATOM      5  H   UNL d   1      28.988 -15.905   1.716  0.00  0.00     0.164 HD
ATOM      6  H   UNL d   1      28.992 -15.376   3.867  0.00  0.00     0.164 HD
ENDROOT
BRANCH   1   7
ATOM      7  C   UNL d   1      27.826 -15.038   0.119  0.00  0.00     0.151 C 
BRANCH   7   8
ATOM      8  C   UNL d   1      26.346 -15.376  -0.139  0.00  0.00     0.195 C 
BRANCH   8   9
ATOM      9  O   UNL d   1      26.177 -16.777  -0.421  0.00  0.00    -0.350 OA
BRANCH   9  10
ATOM     10  C   UNL d   1      24.885 -17.247  -0.482  0.00  0.00     0.069 A 
ATOM     11  C   UNL d   1      23.902 -16.327  -0.866  0.00  0.00     0.039 A 
ATOM     12  C   UNL d   1      22.547 -16.693  -0.889  0.00  0.00     0.039 A 
ATOM     13  C   UNL d   1      22.159 -18.003  -0.601  0.00  0.00     0.068 A 
ATOM     14  C   UNL d   1      23.134 -18.929  -0.247  0.00  0.00     0.039 A 
ATOM     15  C   UNL d   1      24.487 -18.553  -0.187  0.00  0.00     0.039 A 
BRANCH  13  16
ATOM     16  O   UNL d   1      20.838 -18.287  -0.812  0.00  0.00    -0.356 OA
ATOM     17  C   UNL d   1      20.382 -19.571  -0.402  0.00  0.00     0.210 C 
ENDBRANCH  13  16
ENDBRANCH   9  10
ENDBRANCH   8   9
ENDBRANCH   7   8
ENDBRANCH   1   7
BRANCH   4  18
ATOM     18  C   UNL d   1      27.677 -14.075   4.949  0.00  0.00     0.144 C 
BRANCH  18  19
ATOM     19  C   UNL d   1      28.380 -12.721   5.116  0.00  0.00     0.139 C 
BRANCH  19  20
ATOM     20  N   UNL d   1      27.782 -11.646   4.326  0.00  0.00    -0.386 N 
ATOM     21  H   UNL d   1      27.258 -11.890   3.488  0.00  0.00     0.159 HD
BRANCH  20  22
ATOM     22  C   UNL d   1      27.900 -10.291   4.615  0.00  0.00     0.061 A 
ATOM     23  C   UNL d   1      28.789  -9.947   5.669  0.00  0.00     0.031 A 
ATOM     24  C   UNL d   1      28.980  -8.625   6.101  0.00  0.00     0.002 A 
ATOM     25  C   UNL d   1      28.343  -7.585   5.443  0.00  0.00     0.003 A 
ATOM     26  C   UNL d   1      27.487  -7.877   4.389  0.00  0.00     0.038 A 
ATOM     27  C   UNL d   1      27.252  -9.210   3.976  0.00  0.00     0.129 A 
BRANCH  27  28
ATOM     28  N   UNL d   1      26.219  -9.350   2.934  0.00  0.00    -0.113 N 
ATOM     29  O   UNL d   1      25.543  -8.343   2.669  0.00  0.00    -0.532 OA
ATOM     30  O   UNL d   1      26.022 -10.452   2.404  0.00  0.00    -0.532 OA
ENDBRANCH  27  28
ENDBRANCH  20  22
ENDBRANCH  19  20
ENDBRANCH  18  19
ENDBRANCH   4  18
TORSDOF 10
ENDMDL
MODEL 2
REMARK VINA RESULT:    -6.855      4.610      7.251
REMARK INTER + INTRA:         -13.812
REMARK INTER:                  -9.838
REMARK INTRA:                  -3.974
REMARK CONF_INDEPENDENT:        2.983
REMARK UNBOUND:                -3.974
REMARK  10 active torsions:
REMARK  status: ('A' for Active; 'I' for Inactive)
REMARK    1  A    between atoms: O_2  and  C_3 
REMARK    2  A    between atoms: C_6  and  O_7 
REMARK    3  A    between atoms: O_7  and  C_8 
REMARK    4  A    between atoms: C_8  and  C_9 
REMARK    5  A    between atoms: C_9  and  N_10 
REMARK       I    between atoms: N_10  and  C_11 
REMARK       I    between atoms: C_11  and  N_13 
REMARK    6  A    between atoms: N_13  and  C_14 
REMARK    7  A    between atoms: C_14  and  C_15 
REMARK    8  A    between atoms: C_15  and  N_16 
REMARK    9  A    between atoms: N_16  and  C_17 
REMARK   10  A    between atoms: C_22  and  N_23 
ROOT
ATOM      1  N   UNL d   1      26.416 -14.403  -0.906  0.00  0.00    -0.341 N 
ATOM      2  C   UNL d   1      26.779 -13.082  -1.063  0.00  0.00     0.316 C 
ATOM      3  O   UNL d   1      27.446 -12.471  -0.249  0.00  0.00    -0.247 OA
ATOM      4  N   UNL d   1      26.360 -12.526  -2.250  0.00  0.00    -0.342 N 
ATOM      5  H   UNL d   1      25.839 -14.853  -1.599  0.00  0.00     0.164 HD
ATOM      6  H   UNL d   1      25.651 -12.996  -2.792  0.00  0.00     0.164 HD
ENDROOT
BRANCH   1   7
ATOM      7  C   UNL d   1      26.868 -15.151   0.274  0.00  0.00     0.151 C 
BRANCH   7   8
ATOM      8  C   UNL d   1      26.609 -16.668   0.220  0.00  0.00     0.195 C 
BRANCH   8   9
ATOM      9  O   UNL d   1      25.933 -17.034  -0.997  0.00  0.00    -0.350 OA
BRANCH   9  10
ATOM     10  C   UNL d   1      24.618 -17.424  -0.884  0.00  0.00     0.069 A 
ATOM     11  C   UNL d   1      23.652 -16.427  -1.061  0.00  0.00     0.039 A 
ATOM     12  C   UNL d   1      22.287 -16.712  -0.895  0.00  0.00     0.039 A 
ATOM     13  C   UNL d   1      21.861 -18.014  -0.625  0.00  0.00     0.068 A 
ATOM     14  C   UNL d   1      22.815 -19.016  -0.477  0.00  0.00     0.039 A 
ATOM     15  C   UNL d   1      24.183 -18.722  -0.605  0.00  0.00     0.039 A 
BRANCH  13  16
ATOM     16  O   UNL d   1      20.508 -18.208  -0.645  0.00  0.00    -0.356 OA
ATOM     17  C   UNL d   1      20.011 -19.355   0.036  0.00  0.00     0.210 C 
ENDBRANCH  13  16
ENDBRANCH   9  10
ENDBRANCH   8   9
ENDBRANCH   7   8
ENDBRANCH   1   7
BRANCH   4  18
ATOM     18  C   UNL d   1      26.645 -11.114  -2.542  0.00  0.00     0.144 C 
BRANCH  18  19
ATOM     19  C   UNL d   1      26.194 -10.708  -3.951  0.00  0.00     0.139 C 
BRANCH  19  20
ATOM     20  N   UNL d   1      25.757 -11.832  -4.777  0.00  0.00    -0.386 N 
ATOM     21  H   UNL d   1      24.782 -11.873  -5.069  0.00  0.00     0.159 HD
BRANCH  20  22
ATOM     22  C   UNL d   1      26.572 -12.885  -5.176  0.00  0.00     0.061 A 
ATOM     23  C   UNL d   1      27.636 -12.558  -6.060  0.00  0.00     0.031 A 
ATOM     24  C   UNL d   1      28.515 -13.521  -6.581  0.00  0.00     0.002 A 
ATOM     25  C   UNL d   1      28.409 -14.842  -6.177  0.00  0.00     0.003 A 
ATOM     26  C   UNL d   1      27.399 -15.199  -5.293  0.00  0.00     0.038 A 
ATOM     27  C   UNL d   1      26.479 -14.243  -4.798  0.00  0.00     0.129 A 
BRANCH  27  28
ATOM     28  N   UNL d   1      25.396 -14.813  -3.977  0.00  0.00    -0.113 N 
ATOM     29  O   UNL d   1      24.389 -14.109  -3.802  0.00  0.00    -0.532 OA
ATOM     30  O   UNL d   1      25.540 -15.925  -3.451  0.00  0.00    -0.532 OA
ENDBRANCH  27  28
ENDBRANCH  20  22
ENDBRANCH  19  20
ENDBRANCH  18  19
ENDBRANCH   4  18
TORSDOF 10
ENDMDL
MODEL 3
REMARK VINA RESULT:    -6.464      5.906      7.314
REMARK INTER + INTRA:         -13.344
REMARK INTER:                  -9.447
REMARK INTRA:                  -3.896
REMARK CONF_INDEPENDENT:        2.983
REMARK UNBOUND:                -3.896
REMARK  10 active torsions:
REMARK  status: ('A' for Active; 'I' for Inactive)
REMARK    1  A    between atoms: O_2  and  C_3 
REMARK    2  A    between atoms: C_6  and  O_7 
REMARK    3  A    between atoms: O_7  and  C_8 
REMARK    4  A    between atoms: C_8  and  C_9 
REMARK    5  A    between atoms: C_9  and  N_10 
REMARK       I    between atoms: N_10  and  C_11 
REMARK       I    between atoms: C_11  and  N_13 
REMARK    6  A    between atoms: N_13  and  C_14 
REMARK    7  A    between atoms: C_14  and  C_15 
REMARK    8  A    between atoms: C_15  and  N_16 
REMARK    9  A    between atoms: N_16  and  C_17 
REMARK   10  A    between atoms: C_22  and  N_23 
ROOT
ATOM      1  N   UNL d   1      27.792 -16.471  -2.020  0.00  0.00    -0.341 N 
ATOM      2  C   UNL d   1      28.865 -16.333  -2.875  0.00  0.00     0.316 C 
ATOM      3  O   UNL d   1      30.010 -16.597  -2.558  0.00  0.00    -0.247 OA
ATOM      4  N   UNL d   1      28.520 -15.916  -4.139  0.00  0.00    -0.342 N 
ATOM      5  H   UNL d   1      26.868 -16.212  -2.325  0.00  0.00     0.164 HD
ATOM      6  H   UNL d   1      27.605 -15.522  -4.297  0.00  0.00     0.164 HD
ENDROOT
BRANCH   1   7
ATOM      7  C   UNL d   1      28.000 -16.990  -0.662  0.00  0.00     0.151 C 
BRANCH   7   8
ATOM      8  C   UNL d   1      26.750 -16.980   0.235  0.00  0.00     0.195 C 
BRANCH   8   9
ATOM      9  O   UNL d   1      25.626 -16.396  -0.449  0.00  0.00    -0.350 OA
BRANCH   9  10
ATOM     10  C   UNL d   1      24.500 -17.177  -0.574  0.00  0.00     0.069 A 
ATOM     11  C   UNL d   1      23.297 -16.505  -0.822  0.00  0.00     0.039 A 
ATOM     12  C   UNL d   1      22.084 -17.208  -0.895  0.00  0.00     0.039 A 
ATOM     13  C   UNL d   1      22.062 -18.601  -0.795  0.00  0.00     0.068 A 
ATOM     14  C   UNL d   1      23.258 -19.277  -0.578  0.00  0.00     0.039 A 
ATOM     15  C   UNL d   1      24.468 -18.569  -0.467  0.00  0.00     0.039 A 
BRANCH  13  16
ATOM     16  O   UNL d   1      20.854 -19.192  -1.042  0.00  0.00    -0.356 OA
ATOM     17  C   UNL d   1      20.221 -19.846   0.052  0.00  0.00     0.210 C 
ENDBRANCH  13  16
ENDBRANCH   9  10
ENDBRANCH   8   9
ENDBRANCH   7   8
ENDBRANCH   1   7
BRANCH   4  18
ATOM     18  C   UNL d   1      29.563 -15.693  -5.151  0.00  0.00     0.144 C 
BRANCH  18  19
ATOM     19  C   UNL d   1      29.450 -14.312  -5.810  0.00  0.00     0.139 C 
BRANCH  19  20
ATOM     20  N   UNL d   1      28.083 -13.943  -6.173  0.00  0.00    -0.386 N 
ATOM     21  H   UNL d   1      27.750 -14.164  -7.109  0.00  0.00     0.159 HD
BRANCH  20  22
ATOM     22  C   UNL d   1      27.195 -13.274  -5.337  0.00  0.00     0.061 A 
ATOM     23  C   UNL d   1      27.406 -11.878  -5.182  0.00  0.00     0.031 A 
ATOM     24  C   UNL d   1      26.617 -11.079  -4.339  0.00  0.00     0.002 A 
ATOM     25  C   UNL d   1      25.535 -11.635  -3.676  0.00  0.00     0.003 A 
ATOM     26  C   UNL d   1      25.278 -12.992  -3.822  0.00  0.00     0.038 A 
ATOM     27  C   UNL d   1      26.096 -13.815  -4.633  0.00  0.00     0.129 A 
BRANCH  27  28
ATOM     28  N   UNL d   1      25.761 -15.249  -4.574  0.00  0.00    -0.113 N 
ATOM     29  O   UNL d   1      25.405 -15.702  -3.475  0.00  0.00    -0.532 OA
ATOM     30  O   UNL d   1      25.893 -15.955  -5.584  0.00  0.00    -0.532 OA
ENDBRANCH  27  28
ENDBRANCH  20  22
ENDBRANCH  19  20
ENDBRANCH  18  19
ENDBRANCH   4  18
TORSDOF 10
ENDMDL
MODEL 4
REMARK VINA RESULT:    -6.193      5.361      6.888
REMARK INTER + INTRA:         -12.468
REMARK INTER:                  -9.176
REMARK INTRA:                  -3.291
REMARK CONF_INDEPENDENT:        2.983
REMARK UNBOUND:                -3.291
REMARK  10 active torsions:
REMARK  status: ('A' for Active; 'I' for Inactive)
REMARK    1  A    between atoms: O_2  and  C_3 
REMARK    2  A    between atoms: C_6  and  O_7 
REMARK    3  A    between atoms: O_7  and  C_8 
REMARK    4  A    between atoms: C_8  and  C_9 
REMARK    5  A    between atoms: C_9  and  N_10 
REMARK       I    between atoms: N_10  and  C_11 
REMARK       I    between atoms: C_11  and  N_13 
REMARK    6  A    between atoms: N_13  and  C_14 
REMARK    7  A    between atoms: C_14  and  C_15 
REMARK    8  A    between atoms: C_15  and  N_16 
REMARK    9  A    between atoms: N_16  and  C_17 
REMARK   10  A    between atoms: C_22  and  N_23 
ROOT
ATOM      1  N   UNL d   1      25.428 -16.987  -1.572  0.00  0.00    -0.341 N 
ATOM      2  C   UNL d   1      26.554 -16.344  -1.103  0.00  0.00     0.316 C 
ATOM      3  O   UNL d   1      26.746 -16.108   0.075  0.00  0.00    -0.247 OA
ATOM      4  N   UNL d   1      27.468 -16.035  -2.083  0.00  0.00    -0.342 N 
ATOM      5  H   UNL d   1      25.306 -17.132  -2.562  0.00  0.00     0.164 HD
ATOM      6  H   UNL d   1      27.185 -16.064  -3.050  0.00  0.00     0.164 HD
ENDROOT
BRANCH   1   7
ATOM      7  C   UNL d   1      24.404 -17.454  -0.629  0.00  0.00     0.151 C 
BRANCH   7   8
ATOM      8  C   UNL d   1      23.498 -18.580  -1.159  0.00  0.00     0.195 C 
BRANCH   8   9
ATOM      9  O   UNL d   1      22.151 -18.112  -1.351  0.00  0.00    -0.350 OA
BRANCH   9  10
ATOM     10  C   UNL d   1      21.157 -18.787  -0.680  0.00  0.00     0.069 A 
ATOM     11  C   UNL d   1      21.336 -18.954   0.698  0.00  0.00     0.039 A 
ATOM     12  C   UNL d   1      20.412 -19.690   1.457  0.00  0.00     0.039 A 
ATOM     13  C   UNL d   1      19.257 -20.207   0.867  0.00  0.00     0.068 A 
ATOM     14  C   UNL d   1      19.059 -20.018  -0.497  0.00  0.00     0.039 A 
ATOM     15  C   UNL d   1      20.003 -19.315  -1.264  0.00  0.00     0.039 A 
BRANCH  13  16
ATOM     16  O   UNL d   1      18.351 -20.763   1.727  0.00  0.00    -0.356 OA
ATOM     17  C   UNL d   1      17.674 -21.932   1.283  0.00  0.00     0.210 C 
ENDBRANCH  13  16
ENDBRANCH   9  10
ENDBRANCH   8   9
ENDBRANCH   7   8
ENDBRANCH   1   7
BRANCH   4  18
ATOM     18  C   UNL d   1      28.704 -15.318  -1.736  0.00  0.00     0.144 C 
BRANCH  18  19
ATOM     19  C   UNL d   1      28.454 -13.830  -1.451  0.00  0.00     0.139 C 
BRANCH  19  20
ATOM     20  N   UNL d   1      27.110 -13.380  -1.808  0.00  0.00    -0.386 N 
ATOM     21  H   UNL d   1      26.351 -13.540  -1.149  0.00  0.00     0.159 HD
BRANCH  20  22
ATOM     22  C   UNL d   1      26.773 -12.767  -3.010  0.00  0.00     0.061 A 
ATOM     23  C   UNL d   1      26.774 -11.346  -3.014  0.00  0.00     0.031 A 
ATOM     24  C   UNL d   1      26.415 -10.589  -4.141  0.00  0.00     0.002 A 
ATOM     25  C   UNL d   1      26.113 -11.227  -5.333  0.00  0.00     0.003 A 
ATOM     26  C   UNL d   1      26.128 -12.615  -5.378  0.00  0.00     0.038 A 
ATOM     27  C   UNL d   1      26.443 -13.388  -4.235  0.00  0.00     0.129 A 
BRANCH  27  28
ATOM     28  N   UNL d   1      26.285 -14.841  -4.423  0.00  0.00    -0.113 N 
ATOM     29  O   UNL d   1      27.124 -15.414  -5.135  0.00  0.00    -0.532 OA
ATOM     30  O   UNL d   1      25.312 -15.425  -3.924  0.00  0.00    -0.532 OA
ENDBRANCH  27  28
ENDBRANCH  20  22
ENDBRANCH  19  20
ENDBRANCH  18  19
ENDBRANCH   4  18
TORSDOF 10
ENDMDL
MODEL 5
REMARK VINA RESULT:    -6.057      5.322      6.830
REMARK INTER + INTRA:         -12.686
REMARK INTER:                  -9.040
REMARK INTRA:                  -3.646
REMARK CONF_INDEPENDENT:        2.983
REMARK UNBOUND:                -3.646
REMARK  10 active torsions:
REMARK  status: ('A' for Active; 'I' for Inactive)
REMARK    1  A    between atoms: O_2  and  C_3 
REMARK    2  A    between atoms: C_6  and  O_7 
REMARK    3  A    between atoms: O_7  and  C_8 
REMARK    4  A    between atoms: C_8  and  C_9 
REMARK    5  A    between atoms: C_9  and  N_10 
REMARK       I    between atoms: N_10  and  C_11 
REMARK       I    between atoms: C_11  and  N_13 
REMARK    6  A    between atoms: N_13  and  C_14 
REMARK    7  A    between atoms: C_14  and  C_15 
REMARK    8  A    between atoms: C_15  and  N_16 
REMARK    9  A    between atoms: N_16  and  C_17 
REMARK   10  A    between atoms: C_22  and  N_23 
ROOT
ATOM      1  N   UNL d   1      26.439 -14.649  -3.107  0.00  0.00    -0.341 N 
ATOM      2  C   UNL d   1      26.847 -14.489  -4.414  0.00  0.00     0.316 C 
ATOM      3  O   UNL d   1      26.997 -15.418  -5.186  0.00  0.00    -0.247 OA
ATOM      4  N   UNL d   1      27.023 -13.177  -4.787  0.00  0.00    -0.342 N 
ATOM      5  H   UNL d   1      26.358 -13.847  -2.502  0.00  0.00     0.164 HD
ATOM      6  H   UNL d   1      27.084 -12.465  -4.074  0.00  0.00     0.164 HD
ENDROOT
BRANCH   1   7
ATOM      7  C   UNL d   1      26.130 -15.990  -2.595  0.00  0.00     0.151 C 
BRANCH   7   8
ATOM      8  C   UNL d   1      26.441 -16.203  -1.103  0.00  0.00     0.195 C 
BRANCH   8   9
ATOM      9  O   UNL d   1      25.256 -16.053  -0.300  0.00  0.00    -0.350 OA
BRANCH   9  10
ATOM     10  C   UNL d   1      24.241 -16.958  -0.514  0.00  0.00     0.069 A 
ATOM     11  C   UNL d   1      22.966 -16.426  -0.737  0.00  0.00     0.039 A 
ATOM     12  C   UNL d   1      21.854 -17.269  -0.895  0.00  0.00     0.039 A 
ATOM     13  C   UNL d   1      22.010 -18.656  -0.909  0.00  0.00     0.068 A 
ATOM     14  C   UNL d   1      23.280 -19.191  -0.718  0.00  0.00     0.039 A 
ATOM     15  C   UNL d   1      24.387 -18.347  -0.521  0.00  0.00     0.039 A 
BRANCH  13  16
ATOM     16  O   UNL d   1      20.892 -19.373  -1.232  0.00  0.00    -0.356 OA
ATOM     17  C   UNL d   1      20.002 -19.694  -0.168  0.00  0.00     0.210 C 
ENDBRANCH  13  16
ENDBRANCH   9  10
ENDBRANCH   8   9
ENDBRANCH   7   8
ENDBRANCH   1   7
BRANCH   4  18
ATOM     18  C   UNL d   1      27.488 -12.853  -6.143  0.00  0.00     0.144 C 
BRANCH  18  19
ATOM     19  C   UNL d   1      26.834 -11.579  -6.695  0.00  0.00     0.139 C 
BRANCH  19  20
ATOM     20  N   UNL d   1      25.705 -11.104  -5.897  0.00  0.00    -0.386 N 
ATOM     21  H   UNL d   1      24.783 -11.499  -6.073  0.00  0.00     0.159 HD
BRANCH  20  22
ATOM     22  C   UNL d   1      25.785 -10.116  -4.922  0.00  0.00     0.061 A 
ATOM     23  C   UNL d   1      25.816  -8.773  -5.387  0.00  0.00     0.031 A 
ATOM     24  C   UNL d   1      25.937  -7.673  -4.524  0.00  0.00     0.002 A 
ATOM     25  C   UNL d   1      25.956  -7.871  -3.153  0.00  0.00     0.003 A 
ATOM     26  C   UNL d   1      25.901  -9.166  -2.656  0.00  0.00     0.038 A 
ATOM     27  C   UNL d   1      25.825 -10.285  -3.520  0.00  0.00     0.129 A 
BRANCH  27  28
ATOM     28  N   UNL d   1      25.906 -11.587  -2.835  0.00  0.00    -0.113 N 
ATOM     29  O   UNL d   1      26.843 -11.750  -2.037  0.00  0.00    -0.532 OA
ATOM     30  O   UNL d   1      25.091 -12.479  -3.108  0.00  0.00    -0.532 OA
ENDBRANCH  27  28
ENDBRANCH  20  22
ENDBRANCH  19  20
ENDBRANCH  18  19
ENDBRANCH   4  18
TORSDOF 10
ENDMDL
MODEL 6
REMARK VINA RESULT:    -6.050      6.442      8.602
REMARK INTER + INTRA:         -12.578
REMARK INTER:                  -9.033
REMARK INTRA:                  -3.546
REMARK CONF_INDEPENDENT:        2.983
REMARK UNBOUND:                -3.546
REMARK  10 active torsions:
REMARK  status: ('A' for Active; 'I' for Inactive)
REMARK    1  A    between atoms: O_2  and  C_3 
REMARK    2  A    between atoms: C_6  and  O_7 
REMARK    3  A    between atoms: O_7  and  C_8 
REMARK    4  A    between atoms: C_8  and  C_9 
REMARK    5  A    between atoms: C_9  and  N_10 
REMARK       I    between atoms: N_10  and  C_11 
REMARK       I    between atoms: C_11  and  N_13 
REMARK    6  A    between atoms: N_13  and  C_14 
REMARK    7  A    between atoms: C_14  and  C_15 
REMARK    8  A    between atoms: C_15  and  N_16 
REMARK    9  A    between atoms: N_16  and  C_17 
REMARK   10  A    between atoms: C_22  and  N_23 
ROOT
ATOM      1  N   UNL d   1      26.637 -15.303  -3.263  0.00  0.00    -0.341 N 
ATOM      2  C   UNL d   1      25.985 -14.308  -3.959  0.00  0.00     0.316 C 
ATOM      3  O   UNL d   1      24.774 -14.194  -3.985  0.00  0.00    -0.247 OA
ATOM      4  N   UNL d   1      26.830 -13.421  -4.585  0.00  0.00    -0.342 N 
ATOM      5  H   UNL d   1      27.642 -15.368  -3.298  0.00  0.00     0.164 HD
ATOM      6  H   UNL d   1      27.801 -13.664  -4.704  0.00  0.00     0.164 HD
ENDROOT
BRANCH   1   7
ATOM      7  C   UNL d   1      25.864 -16.273  -2.475  0.00  0.00     0.151 C 
BRANCH   7   8
ATOM      8  C   UNL d   1      26.432 -16.571  -1.076  0.00  0.00     0.195 C 
BRANCH   8   9
ATOM      9  O   UNL d   1      25.729 -17.663  -0.454  0.00  0.00    -0.350 OA
BRANCH   9  10
ATOM     10  C   UNL d   1      24.359 -17.669  -0.576  0.00  0.00     0.069 A 
ATOM     11  C   UNL d   1      23.743 -18.925  -0.641  0.00  0.00     0.039 A 
ATOM     12  C   UNL d   1      22.357 -19.035  -0.837  0.00  0.00     0.039 A 
ATOM     13  C   UNL d   1      21.554 -17.894  -0.895  0.00  0.00     0.068 A 
ATOM     14  C   UNL d   1      22.157 -16.644  -0.801  0.00  0.00     0.039 A 
ATOM     15  C   UNL d   1      23.550 -16.534  -0.644  0.00  0.00     0.039 A 
BRANCH  13  16
ATOM     16  O   UNL d   1      20.206 -18.121  -0.924  0.00  0.00    -0.356 OA
ATOM     17  C   UNL d   1      19.775 -19.465  -0.740  0.00  0.00     0.210 C 
ENDBRANCH  13  16
ENDBRANCH   9  10
ENDBRANCH   8   9
ENDBRANCH   7   8
ENDBRANCH   1   7
BRANCH   4  18
ATOM     18  C   UNL d   1      26.277 -12.324  -5.393  0.00  0.00     0.144 C 
BRANCH  18  19
ATOM     19  C   UNL d   1      27.273 -11.817  -6.445  0.00  0.00     0.139 C 
BRANCH  19  20
ATOM     20  N   UNL d   1      28.672 -11.939  -6.039  0.00  0.00    -0.386 N 
ATOM     21  H   UNL d   1      29.026 -11.315  -5.317  0.00  0.00     0.159 HD
BRANCH  20  22
ATOM     22  C   UNL d   1      29.581 -12.833  -6.592  0.00  0.00     0.061 A 
ATOM     23  C   UNL d   1      30.339 -12.359  -7.697  0.00  0.00     0.031 A 
ATOM     24  C   UNL d   1      31.265 -13.160  -8.384  0.00  0.00     0.002 A 
ATOM     25  C   UNL d   1      31.524 -14.448  -7.942  0.00  0.00     0.003 A 
ATOM     26  C   UNL d   1      30.824 -14.940  -6.848  0.00  0.00     0.038 A 
ATOM     27  C   UNL d   1      29.855 -14.156  -6.178  0.00  0.00     0.129 A 
BRANCH  27  28
ATOM     28  N   UNL d   1      29.116 -14.875  -5.125  0.00  0.00    -0.113 N 
ATOM     29  O   UNL d   1      29.480 -14.693  -3.953  0.00  0.00    -0.532 OA
ATOM     30  O   UNL d   1      28.211 -15.663  -5.435  0.00  0.00    -0.532 OA
ENDBRANCH  27  28
ENDBRANCH  20  22
ENDBRANCH  19  20
ENDBRANCH  18  19
ENDBRANCH   4  18
TORSDOF 10
ENDMDL
MODEL 7
REMARK VINA RESULT:    -5.459      6.243      8.170
REMARK INTER + INTRA:         -12.402
REMARK INTER:                  -8.442
REMARK INTRA:                  -3.960
REMARK CONF_INDEPENDENT:        2.983
REMARK UNBOUND:                -3.960
REMARK  10 active torsions:
REMARK  status: ('A' for Active; 'I' for Inactive)
REMARK    1  A    between atoms: O_2  and  C_3 
REMARK    2  A    between atoms: C_6  and  O_7 
REMARK    3  A    between atoms: O_7  and  C_8 
REMARK    4  A    between atoms: C_8  and  C_9 
REMARK    5  A    between atoms: C_9  and  N_10 
REMARK       I    between atoms: N_10  and  C_11 
REMARK       I    between atoms: C_11  and  N_13 
REMARK    6  A    between atoms: N_13  and  C_14 
REMARK    7  A    between atoms: C_14  and  C_15 
REMARK    8  A    between atoms: C_15  and  N_16 
REMARK    9  A    between atoms: N_16  and  C_17 
REMARK   10  A    between atoms: C_22  and  N_23 
ROOT
ATOM      1  N   UNL d   1      28.936 -16.795  -2.764  0.00  0.00    -0.341 N 
ATOM      2  C   UNL d   1      29.861 -16.739  -3.785  0.00  0.00     0.316 C 
ATOM      3  O   UNL d   1      31.043 -16.984  -3.629  0.00  0.00    -0.247 OA
ATOM      4  N   UNL d   1      29.320 -16.429  -5.011  0.00  0.00    -0.342 N 
ATOM      5  H   UNL d   1      27.973 -16.555  -2.943  0.00  0.00     0.164 HD
ATOM      6  H   UNL d   1      28.390 -16.042  -5.057  0.00  0.00     0.164 HD
ENDROOT
BRANCH   1   7
ATOM      7  C   UNL d   1      29.355 -17.198  -1.416  0.00  0.00     0.151 C 
BRANCH   7   8
ATOM      8  C   UNL d   1      28.345 -16.879  -0.299  0.00  0.00     0.195 C 
BRANCH   8   9
ATOM      9  O   UNL d   1      27.247 -16.097  -0.803  0.00  0.00    -0.350 OA
BRANCH   9  10
ATOM     10  C   UNL d   1      25.992 -16.653  -0.709  0.00  0.00     0.069 A 
ATOM     11  C   UNL d   1      25.864 -17.770   0.125  0.00  0.00     0.039 A 
ATOM     12  C   UNL d   1      24.641 -18.451   0.230  0.00  0.00     0.039 A 
ATOM     13  C   UNL d   1      23.507 -17.983  -0.436  0.00  0.00     0.068 A 
ATOM     14  C   UNL d   1      23.621 -16.855  -1.243  0.00  0.00     0.039 A 
ATOM     15  C   UNL d   1      24.855 -16.197  -1.379  0.00  0.00     0.039 A 
BRANCH  13  16
ATOM     16  O   UNL d   1      22.337 -18.624  -0.134  0.00  0.00    -0.356 OA
ATOM     17  C   UNL d   1      21.481 -18.950  -1.223  0.00  0.00     0.210 C 
ENDBRANCH  13  16
ENDBRANCH   9  10
ENDBRANCH   8   9
ENDBRANCH   7   8
ENDBRANCH   1   7
BRANCH   4  18
ATOM     18  C   UNL d   1      30.192 -16.301  -6.188  0.00  0.00     0.144 C 
BRANCH  18  19
ATOM     19  C   UNL d   1      30.212 -14.872  -6.746  0.00  0.00     0.139 C 
BRANCH  19  20
ATOM     20  N   UNL d   1      28.914 -14.412  -7.236  0.00  0.00    -0.386 N 
ATOM     21  H   UNL d   1      28.537 -14.831  -8.084  0.00  0.00     0.159 HD
BRANCH  20  22
ATOM     22  C   UNL d   1      28.154 -13.410  -6.644  0.00  0.00     0.061 A 
ATOM     23  C   UNL d   1      28.389 -12.086  -7.104  0.00  0.00     0.031 A 
ATOM     24  C   UNL d   1      27.728 -10.968  -6.571  0.00  0.00     0.002 A 
ATOM     25  C   UNL d   1      26.748 -11.140  -5.607  0.00  0.00     0.003 A 
ATOM     26  C   UNL d   1      26.468 -12.421  -5.150  0.00  0.00     0.038 A 
ATOM     27  C   UNL d   1      27.162 -13.550  -5.648  0.00  0.00     0.129 A 
BRANCH  27  28
ATOM     28  N   UNL d   1      26.835 -14.814  -4.963  0.00  0.00    -0.113 N 
ATOM     29  O   UNL d   1      27.154 -14.909  -3.768  0.00  0.00    -0.532 OA
ATOM     30  O   UNL d   1      26.313 -15.742  -5.597  0.00  0.00    -0.532 OA
ENDBRANCH  27  28
ENDBRANCH  20  22
ENDBRANCH  19  20
ENDBRANCH  18  19
ENDBRANCH   4  18
TORSDOF 10
ENDMDL
MODEL 8
REMARK VINA RESULT:    -5.183      5.852      8.403
REMARK INTER + INTRA:         -12.425
REMARK INTER:                  -8.166
REMARK INTRA:                  -4.259
REMARK CONF_INDEPENDENT:        2.983
REMARK UNBOUND:                -4.259
REMARK  10 active torsions:
REMARK  status: ('A' for Active; 'I' for Inactive)
REMARK    1  A    between atoms: O_2  and  C_3 
REMARK    2  A    between atoms: C_6  and  O_7 
REMARK    3  A    between atoms: O_7  and  C_8 
REMARK    4  A    between atoms: C_8  and  C_9 
REMARK    5  A    between atoms: C_9  and  N_10 
REMARK       I    between atoms: N_10  and  C_11 
REMARK       I    between atoms: C_11  and  N_13 
REMARK    6  A    between atoms: N_13  and  C_14 
REMARK    7  A    between atoms: C_14  and  C_15 
REMARK    8  A    between atoms: C_15  and  N_16 
REMARK    9  A    between atoms: N_16  and  C_17 
REMARK   10  A    between atoms: C_22  and  N_23 
ROOT
ATOM      1  N   UNL d   1      28.633 -15.993  -3.666  0.00  0.00    -0.341 N 
ATOM      2  C   UNL d   1      29.094 -16.540  -2.488  0.00  0.00     0.316 C 
ATOM      3  O   UNL d   1      30.213 -17.000  -2.357  0.00  0.00    -0.247 OA
ATOM      4  N   UNL d   1      28.190 -16.477  -1.452  0.00  0.00    -0.342 N 
ATOM      5  H   UNL d   1      27.686 -15.651  -3.726  0.00  0.00     0.164 HD
ATOM      6  H   UNL d   1      27.222 -16.278  -1.653  0.00  0.00     0.164 HD
ENDROOT
BRANCH   1   7
ATOM      7  C   UNL d   1      29.520 -15.913  -4.833  0.00  0.00     0.151 C 
BRANCH   7   8
ATOM      8  C   UNL d   1      28.865 -15.353  -6.109  0.00  0.00     0.195 C 
BRANCH   8   9
ATOM      9  O   UNL d   1      27.444 -15.199  -5.937  0.00  0.00    -0.350 OA
BRANCH   9  10
ATOM     10  C   UNL d   1      27.010 -14.017  -5.382  0.00  0.00     0.069 A 
ATOM     11  C   UNL d   1      25.810 -14.067  -4.663  0.00  0.00     0.039 A 
ATOM     12  C   UNL d   1      25.248 -12.900  -4.121  0.00  0.00     0.039 A 
ATOM     13  C   UNL d   1      25.914 -11.677  -4.223  0.00  0.00     0.068 A 
ATOM     14  C   UNL d   1      27.122 -11.626  -4.911  0.00  0.00     0.039 A 
ATOM     15  C   UNL d   1      27.664 -12.788  -5.487  0.00  0.00     0.039 A 
BRANCH  13  16
ATOM     16  O   UNL d   1      25.360 -10.643  -3.521  0.00  0.00    -0.356 OA
ATOM     17  C   UNL d   1      25.492  -9.341  -4.080  0.00  0.00     0.210 C 
ENDBRANCH  13  16
ENDBRANCH   9  10
ENDBRANCH   8   9
ENDBRANCH   7   8
ENDBRANCH   1   7
BRANCH   4  18
ATOM     18  C   UNL d   1      28.531 -17.052  -0.143  0.00  0.00     0.144 C 
BRANCH  18  19
ATOM     19  C   UNL d   1      27.302 -17.618   0.582  0.00  0.00     0.139 C 
BRANCH  19  20
ATOM     20  N   UNL d   1      26.323 -18.234  -0.311  0.00  0.00    -0.386 N 
ATOM     21  H   UNL d   1      26.618 -19.015  -0.894  0.00  0.00     0.159 HD
BRANCH  20  22
ATOM     22  C   UNL d   1      25.005 -17.812  -0.453  0.00  0.00     0.061 A 
ATOM     23  C   UNL d   1      24.022 -18.573   0.234  0.00  0.00     0.031 A 
ATOM     24  C   UNL d   1      22.649 -18.293   0.150  0.00  0.00     0.002 A 
ATOM     25  C   UNL d   1      22.212 -17.190  -0.566  0.00  0.00     0.003 A 
ATOM     26  C   UNL d   1      23.144 -16.404  -1.230  0.00  0.00     0.038 A 
ATOM     27  C   UNL d   1      24.527 -16.705  -1.190  0.00  0.00     0.129 A 
BRANCH  27  28
ATOM     28  N   UNL d   1      25.359 -15.848  -2.053  0.00  0.00    -0.113 N 
ATOM     29  O   UNL d   1      25.717 -16.321  -3.143  0.00  0.00    -0.532 OA
ATOM     30  O   UNL d   1      25.716 -14.731  -1.653  0.00  0.00    -0.532 OA
ENDBRANCH  27  28
ENDBRANCH  20  22
ENDBRANCH  19  20
ENDBRANCH  18  19
ENDBRANCH   4  18
TORSDOF 10
ENDMDL
MODEL 9
REMARK VINA RESULT:    -4.802      6.311      9.635
REMARK INTER + INTRA:         -12.635
REMARK INTER:                  -7.785
REMARK INTRA:                  -4.851
REMARK CONF_INDEPENDENT:        2.983
REMARK UNBOUND:                -4.851
REMARK  10 active torsions:
REMARK  status: ('A' for Active; 'I' for Inactive)
REMARK    1  A    between atoms: O_2  and  C_3 
REMARK    2  A    between atoms: C_6  and  O_7 
REMARK    3  A    between atoms: O_7  and  C_8 
REMARK    4  A    between atoms: C_8  and  C_9 
REMARK    5  A    between atoms: C_9  and  N_10 
REMARK       I    between atoms: N_10  and  C_11 
REMARK       I    between atoms: C_11  and  N_13 
REMARK    6  A    between atoms: N_13  and  C_14 
REMARK    7  A    between atoms: C_14  and  C_15 
REMARK    8  A    between atoms: C_15  and  N_16 
REMARK    9  A    between atoms: N_16  and  C_17 
REMARK   10  A    between atoms: C_22  and  N_23 
ROOT
ATOM      1  N   UNL d   1      26.884 -13.148  -4.740  0.00  0.00    -0.341 N 
ATOM      2  C   UNL d   1      27.872 -12.451  -5.402  0.00  0.00     0.316 C 
ATOM      3  O   UNL d   1      27.711 -11.333  -5.855  0.00  0.00    -0.247 OA
ATOM      4  N   UNL d   1      29.075 -13.114  -5.464  0.00  0.00    -0.342 N 
ATOM      5  H   UNL d   1      27.062 -14.084  -4.409  0.00  0.00     0.164 HD
ATOM      6  H   UNL d   1      29.107 -14.101  -5.260  0.00  0.00     0.164 HD
ENDROOT
BRANCH   1   7
ATOM      7  C   UNL d   1      25.570 -12.529  -4.523  0.00  0.00     0.151 C 
BRANCH   7   8
ATOM      8  C   UNL d   1      24.505 -13.461  -3.918  0.00  0.00     0.195 C 
BRANCH   8   9
ATOM      9  O   UNL d   1      24.957 -14.828  -3.911  0.00  0.00    -0.350 OA
BRANCH   9  10
ATOM     10  C   UNL d   1      25.440 -15.317  -2.720  0.00  0.00     0.069 A 
ATOM     11  C   UNL d   1      25.087 -16.631  -2.394  0.00  0.00     0.039 A 
ATOM     12  C   UNL d   1      25.472 -17.195  -1.167  0.00  0.00     0.039 A 
ATOM     13  C   UNL d   1      26.279 -16.482  -0.279  0.00  0.00     0.068 A 
ATOM     14  C   UNL d   1      26.657 -15.184  -0.610  0.00  0.00     0.039 A 
ATOM     15  C   UNL d   1      26.239 -14.607  -1.821  0.00  0.00     0.039 A 
BRANCH  13  16
ATOM     16  O   UNL d   1      26.726 -17.183   0.806  0.00  0.00    -0.356 OA
ATOM     17  C   UNL d   1      27.030 -18.558   0.605  0.00  0.00     0.210 C 
ENDBRANCH  13  16
ENDBRANCH   9  10
ENDBRANCH   8   9
ENDBRANCH   7   8
ENDBRANCH   1   7
BRANCH   4  18
ATOM     18  C   UNL d   1      30.213 -12.507  -6.170  0.00  0.00     0.144 C 
BRANCH  18  19
ATOM     19  C   UNL d   1      30.880 -13.483  -7.149  0.00  0.00     0.139 C 
BRANCH  19  20
ATOM     20  N   UNL d   1      30.112 -14.706  -7.375  0.00  0.00    -0.386 N 
ATOM     21  H   UNL d   1      29.332 -14.678  -8.029  0.00  0.00     0.159 HD
BRANCH  20  22
ATOM     22  C   UNL d   1      30.347 -15.918  -6.735  0.00  0.00     0.061 A 
ATOM     23  C   UNL d   1      31.411 -16.706  -7.250  0.00  0.00     0.031 A 
ATOM     24  C   UNL d   1      31.738 -17.971  -6.735  0.00  0.00     0.002 A 
ATOM     25  C   UNL d   1      31.060 -18.463  -5.631  0.00  0.00     0.003 A 
ATOM     26  C   UNL d   1      30.030 -17.711  -5.081  0.00  0.00     0.038 A 
ATOM     27  C   UNL d   1      29.662 -16.456  -5.623  0.00  0.00     0.129 A 
BRANCH  27  28
ATOM     28  N   UNL d   1      28.469 -15.854  -5.001  0.00  0.00    -0.113 N 
ATOM     29  O   UNL d   1      27.520 -15.574  -5.751  0.00  0.00    -0.532 OA
ATOM     30  O   UNL d   1      28.468 -15.598  -3.789  0.00  0.00    -0.532 OA
ENDBRANCH  27  28
ENDBRANCH  20  22
ENDBRANCH  19  20
ENDBRANCH  18  19
ENDBRANCH   4  18
TORSDOF 10
ENDMDL
