MODEL 1
REMARK VINA RESULT:    -7.531      0.000      0.000
REMARK INTER + INTRA:         -10.857
REMARK INTER:                  -9.918
REMARK INTRA:                  -0.939
REMARK CONF_INDEPENDENT:        2.386
REMARK UNBOUND:                -0.939
REMARK  8 active torsions:
REMARK  status: ('A' for Active; 'I' for Inactive)
REMARK    1  A    between atoms: N_6  and  C_7 
REMARK    2  A    between atoms: C_7  and  C_8 
REMARK    3  A    between atoms: C_8  and  C_9 
REMARK    4  A    between atoms: C_9  and  N_10 
REMARK       I    between atoms: N_10  and  C_11 
REMARK    5  A    between atoms: C_11  and  C_13 
REMARK    6  A    between atoms: C_16  and  N_17 
REMARK    7  A    between atoms: N_17  and  C_18 
REMARK    8  A    between atoms: C_24  and  N_25 
ROOT
ATOM      1  C   UNL d   1      27.280 -12.494   1.070  0.00  0.00     0.034 A 
ATOM      2  C   UNL d   1      27.974 -13.207   2.042  0.00  0.00     0.019 A 
ATOM      3  C   UNL d   1      28.003 -12.743   3.373  0.00  0.00     0.033 A 
ATOM      4  C   UNL d   1      27.424 -11.504   3.762  0.00  0.00     0.066 A 
ATOM      5  C   UNL d   1      26.723 -10.807   2.747  0.00  0.00     0.130 A 
ATOM      6  C   UNL d   1      26.651 -11.311   1.429  0.00  0.00     0.055 A 
ENDROOT
BRANCH   1   7
ATOM      7  C   UNL d   1      27.088 -13.019  -0.304  0.00  0.00     0.251 C 
ATOM      8  N   UNL d   1      27.135 -14.392  -0.465  0.00  0.00    -0.357 N 
ATOM      9  H   UNL d   1      27.210 -14.991   0.350  0.00  0.00     0.162 HD
ATOM     10  O   UNL d   1      26.927 -12.240  -1.240  0.00  0.00    -0.268 OA
BRANCH   8  11
ATOM     11  C   UNL d   1      26.999 -14.974  -1.786  0.00  0.00     0.124 C 
BRANCH  11  12
ATOM     12  C   UNL d   1      26.038 -16.147  -1.787  0.00  0.00     0.040 C 
BRANCH  12  13
ATOM     13  C   UNL d   1      24.805 -15.901  -0.920  0.00  0.00     0.131 C 
BRANCH  13  14
ATOM     14  N   UNL d   1      24.030 -17.138  -0.668  0.00  0.00    -0.346 N 
ATOM     15  C   UNL d   1      22.664 -17.317  -0.893  0.00  0.00     0.109 A 
ATOM     16  C   UNL d   1      22.357 -18.594  -0.538  0.00  0.00     0.106 A 
ATOM     17  N   UNL d   1      23.529 -19.157  -0.105  0.00  0.00    -0.355 N 
ATOM     18  C   UNL d   1      24.548 -18.287  -0.174  0.00  0.00     0.079 A 
ATOM     19  H   UNL d   1      23.621 -20.114   0.230  0.00  0.00     0.166 HD
ATOM     20  C   UNL d   1      25.956 -18.571   0.223  0.00  0.00     0.089 C 
ENDBRANCH  13  14
ENDBRANCH  12  13
ENDBRANCH  11  12
ENDBRANCH   8  11
ENDBRANCH   1   7
BRANCH   5  21
ATOM     21  N   UNL d   1      26.055  -9.502   2.862  0.00  0.00    -0.113 N 
ATOM     22  O   UNL d   1      25.162  -9.210   2.055  0.00  0.00    -0.532 OA
ATOM     23  O   UNL d   1      26.296  -8.837   3.879  0.00  0.00    -0.532 OA
ENDBRANCH   5  21
BRANCH   4  24
ATOM     24  N   UNL d   1      27.582 -11.143   5.123  0.00  0.00    -0.354 N 
ATOM     25  H   UNL d   1      27.069 -10.323   5.441  0.00  0.00     0.166 HD
BRANCH  24  26
ATOM     26  C   UNL d   1      28.135 -11.891   6.177  0.00  0.00     0.032 A 
ATOM     27  C   UNL d   1      28.178 -13.295   6.146  0.00  0.00     0.029 A 
ATOM     28  C   UNL d   1      28.905 -13.998   7.117  0.00  0.00     0.002 A 
ATOM     29  C   UNL d   1      29.665 -13.301   8.057  0.00  0.00     0.000 A 
ATOM     30  C   UNL d   1      29.625 -11.910   8.092  0.00  0.00     0.002 A 
ATOM     31  C   UNL d   1      28.822 -11.215   7.193  0.00  0.00     0.029 A 
ENDBRANCH  24  26
ENDBRANCH   4  24
TORSDOF 8
ENDMDL
MODEL 2
REMARK VINA RESULT:    -7.196      1.327      2.030
REMARK INTER + INTRA:         -10.988
REMARK INTER:                  -9.583
REMARK INTRA:                  -1.406
REMARK CONF_INDEPENDENT:        2.386
REMARK UNBOUND:                -1.406
REMARK  8 active torsions:
REMARK  status: ('A' for Active; 'I' for Inactive)
REMARK    1  A    between atoms: N_6  and  C_7 
REMARK    2  A    between atoms: C_7  and  C_8 
REMARK    3  A    between atoms: C_8  and  C_9 
REMARK    4  A    between atoms: C_9  and  N_10 
REMARK       I    between atoms: N_10  and  C_11 
REMARK    5  A    between atoms: C_11  and  C_13 
REMARK    6  A    between atoms: C_16  and  N_17 
REMARK    7  A    between atoms: N_17  and  C_18 
REMARK    8  A    between atoms: C_24  and  N_25 
ROOT
ATOM      1  C   UNL d   1      27.466 -13.220   2.337  0.00  0.00     0.034 A 
ATOM      2  C   UNL d   1      28.189 -13.604   3.461  0.00  0.00     0.019 A 
ATOM      3  C   UNL d   1      28.316 -12.722   4.554  0.00  0.00     0.033 A 
ATOM      4  C   UNL d   1      27.809 -11.394   4.526  0.00  0.00     0.066 A 
ATOM      5  C   UNL d   1      27.075 -11.040   3.367  0.00  0.00     0.130 A 
ATOM      6  C   UNL d   1      26.905 -11.952   2.302  0.00  0.00     0.055 A 
ENDROOT
BRANCH   1   7
ATOM      7  C   UNL d   1      27.171 -14.164   1.231  0.00  0.00     0.251 C 
ATOM      8  N   UNL d   1      27.879 -15.352   1.214  0.00  0.00    -0.357 N 
ATOM      9  H   UNL d   1      28.499 -15.579   1.984  0.00  0.00     0.162 HD
ATOM     10  O   UNL d   1      26.352 -13.860   0.369  0.00  0.00    -0.268 OA
BRANCH   8  11
ATOM     11  C   UNL d   1      27.676 -16.304   0.138  0.00  0.00     0.124 C 
BRANCH  11  12
ATOM     12  C   UNL d   1      26.917 -17.529   0.608  0.00  0.00     0.040 C 
BRANCH  12  13
ATOM     13  C   UNL d   1      26.127 -18.201  -0.513  0.00  0.00     0.131 C 
BRANCH  13  14
ATOM     14  N   UNL d   1      24.699 -17.806  -0.521  0.00  0.00    -0.346 N 
ATOM     15  C   UNL d   1      23.647 -18.500   0.079  0.00  0.00     0.109 A 
ATOM     16  C   UNL d   1      22.508 -17.795  -0.158  0.00  0.00     0.106 A 
ATOM     17  N   UNL d   1      22.887 -16.702  -0.893  0.00  0.00    -0.355 N 
ATOM     18  C   UNL d   1      24.208 -16.698  -1.124  0.00  0.00     0.079 A 
ATOM     19  H   UNL d   1      22.250 -15.982  -1.227  0.00  0.00     0.166 HD
ATOM     20  C   UNL d   1      24.949 -15.659  -1.894  0.00  0.00     0.089 C 
ENDBRANCH  13  14
ENDBRANCH  12  13
ENDBRANCH  11  12
ENDBRANCH   8  11
ENDBRANCH   1   7
BRANCH   5  21
ATOM     21  N   UNL d   1      26.465  -9.736   3.064  0.00  0.00    -0.113 N 
ATOM     22  O   UNL d   1      25.651  -9.656   2.134  0.00  0.00    -0.532 OA
ATOM     23  O   UNL d   1      26.662  -8.823   3.877  0.00  0.00    -0.532 OA
ENDBRANCH   5  21
BRANCH   4  24
ATOM     24  N   UNL d   1      28.062 -10.607   5.677  0.00  0.00    -0.354 N 
ATOM     25  H   UNL d   1      27.588  -9.707   5.730  0.00  0.00     0.166 HD
BRANCH  24  26
ATOM     26  C   UNL d   1      28.667 -10.982   6.889  0.00  0.00     0.032 A 
ATOM     27  C   UNL d   1      29.640 -10.181   7.511  0.00  0.00     0.029 A 
ATOM     28  C   UNL d   1      30.079 -10.488   8.807  0.00  0.00     0.002 A 
ATOM     29  C   UNL d   1      29.482 -11.531   9.516  0.00  0.00     0.000 A 
ATOM     30  C   UNL d   1      28.519 -12.327   8.903  0.00  0.00     0.002 A 
ATOM     31  C   UNL d   1      28.156 -12.087   7.581  0.00  0.00     0.029 A 
ENDBRANCH  24  26
ENDBRANCH   4  24
TORSDOF 8
ENDMDL
MODEL 3
REMARK VINA RESULT:    -7.180      6.569     10.025
REMARK INTER + INTRA:         -10.268
REMARK INTER:                  -9.567
REMARK INTRA:                  -0.701
REMARK CONF_INDEPENDENT:        2.386
REMARK UNBOUND:                -0.701
REMARK  8 active torsions:
REMARK  status: ('A' for Active; 'I' for Inactive)
REMARK    1  A    between atoms: N_6  and  C_7 
REMARK    2  A    between atoms: C_7  and  C_8 
REMARK    3  A    between atoms: C_8  and  C_9 
REMARK    4  A    between atoms: C_9  and  N_10 
REMARK       I    between atoms: N_10  and  C_11 
REMARK    5  A    between atoms: C_11  and  C_13 
REMARK    6  A    between atoms: C_16  and  N_17 
REMARK    7  A    between atoms: N_17  and  C_18 
REMARK    8  A    between atoms: C_24  and  N_25 
ROOT
ATOM      1  C   UNL d   1      26.278 -11.901  -3.713  0.00  0.00     0.034 A 
ATOM      2  C   UNL d   1      26.274 -12.214  -2.358  0.00  0.00     0.019 A 
ATOM      3  C   UNL d   1      26.394 -13.556  -1.943  0.00  0.00     0.033 A 
ATOM      4  C   UNL d   1      26.424 -14.639  -2.863  0.00  0.00     0.066 A 
ATOM      5  C   UNL d   1      26.431 -14.282  -4.234  0.00  0.00     0.130 A 
ATOM      6  C   UNL d   1      26.368 -12.930  -4.638  0.00  0.00     0.055 A 
ENDROOT
BRANCH   1   7
ATOM      7  C   UNL d   1      26.312 -10.499  -4.196  0.00  0.00     0.251 C 
ATOM      8  N   UNL d   1      25.379 -10.140  -5.153  0.00  0.00    -0.357 N 
ATOM      9  H   UNL d   1      24.662 -10.802  -5.428  0.00  0.00     0.162 HD
ATOM     10  O   UNL d   1      27.162  -9.724  -3.767  0.00  0.00    -0.268 OA
BRANCH   8  11
ATOM     11  C   UNL d   1      25.382  -8.798  -5.704  0.00  0.00     0.124 C 
BRANCH  11  12
ATOM     12  C   UNL d   1      23.988  -8.204  -5.741  0.00  0.00     0.040 C 
BRANCH  12  13
ATOM     13  C   UNL d   1      23.901  -6.957  -6.620  0.00  0.00     0.131 C 
BRANCH  13  14
ATOM     14  N   UNL d   1      22.505  -6.516  -6.847  0.00  0.00    -0.346 N 
ATOM     15  C   UNL d   1      21.566  -6.204  -5.862  0.00  0.00     0.109 A 
ATOM     16  C   UNL d   1      20.419  -5.840  -6.494  0.00  0.00     0.106 A 
ATOM     17  N   UNL d   1      20.679  -5.941  -7.836  0.00  0.00    -0.355 N 
ATOM     18  C   UNL d   1      21.935  -6.354  -8.064  0.00  0.00     0.079 A 
ATOM     19  H   UNL d   1      20.007  -5.735  -8.571  0.00  0.00     0.166 HD
ATOM     20  C   UNL d   1      22.542  -6.575  -9.406  0.00  0.00     0.089 C 
ENDBRANCH  13  14
ENDBRANCH  12  13
ENDBRANCH  11  12
ENDBRANCH   8  11
ENDBRANCH   1   7
BRANCH   5  21
ATOM     21  N   UNL d   1      26.434 -15.191  -5.391  0.00  0.00    -0.113 N 
ATOM     22  O   UNL d   1      27.415 -15.200  -6.146  0.00  0.00    -0.532 OA
ATOM     23  O   UNL d   1      25.527 -16.034  -5.444  0.00  0.00    -0.532 OA
ENDBRANCH   5  21
BRANCH   4  24
ATOM     24  N   UNL d   1      26.490 -15.937  -2.296  0.00  0.00    -0.354 N 
ATOM     25  H   UNL d   1      27.375 -16.432  -2.387  0.00  0.00     0.166 HD
BRANCH  24  26
ATOM     26  C   UNL d   1      25.603 -16.553  -1.396  0.00  0.00     0.032 A 
ATOM     27  C   UNL d   1      24.213 -16.543  -1.602  0.00  0.00     0.029 A 
ATOM     28  C   UNL d   1      23.378 -17.327  -0.793  0.00  0.00     0.002 A 
ATOM     29  C   UNL d   1      23.933 -18.191   0.151  0.00  0.00     0.000 A 
ATOM     30  C   UNL d   1      25.309 -18.204   0.357  0.00  0.00     0.002 A 
ATOM     31  C   UNL d   1      26.131 -17.350  -0.373  0.00  0.00     0.029 A 
ENDBRANCH  24  26
ENDBRANCH   4  24
TORSDOF 8
ENDMDL
MODEL 4
REMARK VINA RESULT:    -7.085      5.815      9.110
REMARK INTER + INTRA:         -10.768
REMARK INTER:                  -9.471
REMARK INTRA:                  -1.297
REMARK CONF_INDEPENDENT:        2.386
REMARK UNBOUND:                -1.297
REMARK  8 active torsions:
REMARK  status: ('A' for Active; 'I' for Inactive)
REMARK    1  A    between atoms: N_6  and  C_7 
REMARK    2  A    between atoms: C_7  and  C_8 
REMARK    3  A    between atoms: C_8  and  C_9 
REMARK    4  A    between atoms: C_9  and  N_10 
REMARK       I    between atoms: N_10  and  C_11 
REMARK    5  A    between atoms: C_11  and  C_13 
REMARK    6  A    between atoms: C_16  and  N_17 
REMARK    7  A    between atoms: N_17  and  C_18 
REMARK    8  A    between atoms: C_24  and  N_25 
ROOT
ATOM      1  C   UNL d   1      26.234 -11.897  -3.748  0.00  0.00     0.034 A 
ATOM      2  C   UNL d   1      26.290 -12.121  -2.376  0.00  0.00     0.019 A 
ATOM      3  C   UNL d   1      26.451 -13.432  -1.881  0.00  0.00     0.033 A 
ATOM      4  C   UNL d   1      26.465 -14.572  -2.731  0.00  0.00     0.066 A 
ATOM      5  C   UNL d   1      26.410 -14.304  -4.121  0.00  0.00     0.130 A 
ATOM      6  C   UNL d   1      26.307 -12.982  -4.608  0.00  0.00     0.055 A 
ENDROOT
BRANCH   1   7
ATOM      7  C   UNL d   1      26.224 -10.528  -4.321  0.00  0.00     0.251 C 
ATOM      8  N   UNL d   1      25.529 -10.347  -5.503  0.00  0.00    -0.357 N 
ATOM      9  H   UNL d   1      24.988 -11.113  -5.890  0.00  0.00     0.162 HD
ATOM     10  O   UNL d   1      26.840  -9.625  -3.761  0.00  0.00    -0.268 OA
BRANCH   8  11
ATOM     11  C   UNL d   1      25.513  -9.046  -6.144  0.00  0.00     0.124 C 
BRANCH  11  12
ATOM     12  C   UNL d   1      26.279  -9.055  -7.453  0.00  0.00     0.040 C 
BRANCH  12  13
ATOM     13  C   UNL d   1      27.625  -9.769  -7.344  0.00  0.00     0.131 C 
BRANCH  13  14
ATOM     14  N   UNL d   1      27.743 -10.910  -8.282  0.00  0.00    -0.346 N 
ATOM     15  C   UNL d   1      27.334 -10.928  -9.616  0.00  0.00     0.109 A 
ATOM     16  C   UNL d   1      27.630 -12.158 -10.115  0.00  0.00     0.106 A 
ATOM     17  N   UNL d   1      28.201 -12.857  -9.084  0.00  0.00    -0.355 N 
ATOM     18  C   UNL d   1      28.272 -12.116  -7.968  0.00  0.00     0.079 A 
ATOM     19  H   UNL d   1      28.529 -13.817  -9.149  0.00  0.00     0.166 HD
ATOM     20  C   UNL d   1      28.831 -12.569  -6.663  0.00  0.00     0.089 C 
ENDBRANCH  13  14
ENDBRANCH  12  13
ENDBRANCH  11  12
ENDBRANCH   8  11
ENDBRANCH   1   7
BRANCH   5  21
ATOM     21  N   UNL d   1      26.383 -15.286  -5.216  0.00  0.00    -0.113 N 
ATOM     22  O   UNL d   1      27.442 -15.575  -5.790  0.00  0.00    -0.532 OA
ATOM     23  O   UNL d   1      25.326 -15.909  -5.385  0.00  0.00    -0.532 OA
ENDBRANCH   5  21
BRANCH   4  24
ATOM     24  N   UNL d   1      26.576 -15.828  -2.085  0.00  0.00    -0.354 N 
ATOM     25  H   UNL d   1      27.508 -16.234  -2.031  0.00  0.00     0.166 HD
BRANCH  24  26
ATOM     26  C   UNL d   1      25.639 -16.490  -1.272  0.00  0.00     0.032 A 
ATOM     27  C   UNL d   1      24.261 -16.448  -1.545  0.00  0.00     0.029 A 
ATOM     28  C   UNL d   1      23.379 -17.272  -0.833  0.00  0.00     0.002 A 
ATOM     29  C   UNL d   1      23.877 -18.203   0.078  0.00  0.00     0.000 A 
ATOM     30  C   UNL d   1      25.241 -18.248   0.352  0.00  0.00     0.002 A 
ATOM     31  C   UNL d   1      26.106 -17.359  -0.279  0.00  0.00     0.029 A 
ENDBRANCH  24  26
ENDBRANCH   4  24
TORSDOF 8
ENDMDL
MODEL 5
REMARK VINA RESULT:    -7.075      1.887      2.881
REMARK INTER + INTRA:         -10.650
REMARK INTER:                  -9.462
REMARK INTRA:                  -1.188
REMARK CONF_INDEPENDENT:        2.386
REMARK UNBOUND:                -1.188
REMARK  8 active torsions:
REMARK  status: ('A' for Active; 'I' for Inactive)
REMARK    1  A    between atoms: N_6  and  C_7 
REMARK    2  A    between atoms: C_7  and  C_8 
REMARK    3  A    between atoms: C_8  and  C_9 
REMARK    4  A    between atoms: C_9  and  N_10 
REMARK       I    between atoms: N_10  and  C_11 
REMARK    5  A    between atoms: C_11  and  C_13 
REMARK    6  A    between atoms: C_16  and  N_17 
REMARK    7  A    between atoms: N_17  and  C_18 
REMARK    8  A    between atoms: C_24  and  N_25 
ROOT
ATOM      1  C   UNL d   1      27.906 -13.544   3.580  0.00  0.00     0.034 A 
ATOM      2  C   UNL d   1      28.379 -14.373   4.592  0.00  0.00     0.019 A 
ATOM      3  C   UNL d   1      28.693 -13.834   5.857  0.00  0.00     0.033 A 
ATOM      4  C   UNL d   1      28.637 -12.439   6.127  0.00  0.00     0.066 A 
ATOM      5  C   UNL d   1      28.148 -11.627   5.074  0.00  0.00     0.130 A 
ATOM      6  C   UNL d   1      27.782 -12.185   3.829  0.00  0.00     0.055 A 
ENDROOT
BRANCH   1   7
ATOM      7  C   UNL d   1      27.416 -14.083   2.287  0.00  0.00     0.251 C 
ATOM      8  N   UNL d   1      28.112 -15.148   1.746  0.00  0.00    -0.357 N 
ATOM      9  H   UNL d   1      28.865 -15.577   2.273  0.00  0.00     0.162 HD
ATOM     10  O   UNL d   1      26.450 -13.564   1.734  0.00  0.00    -0.268 OA
BRANCH   8  11
ATOM     11  C   UNL d   1      27.717 -15.698   0.463  0.00  0.00     0.124 C 
BRANCH  11  12
ATOM     12  C   UNL d   1      27.166 -17.104   0.600  0.00  0.00     0.040 C 
BRANCH  12  13
ATOM     13  C   UNL d   1      26.507 -17.608  -0.682  0.00  0.00     0.131 C 
BRANCH  13  14
ATOM     14  N   UNL d   1      25.027 -17.577  -0.612  0.00  0.00    -0.346 N 
ATOM     15  C   UNL d   1      24.212 -18.490   0.058  0.00  0.00     0.109 A 
ATOM     16  C   UNL d   1      22.924 -18.094  -0.122  0.00  0.00     0.106 A 
ATOM     17  N   UNL d   1      22.981 -16.963  -0.893  0.00  0.00    -0.355 N 
ATOM     18  C   UNL d   1      24.246 -16.641  -1.201  0.00  0.00     0.079 A 
ATOM     19  H   UNL d   1      22.169 -16.432  -1.200  0.00  0.00     0.166 HD
ATOM     20  C   UNL d   1      24.665 -15.474  -2.028  0.00  0.00     0.089 C 
ENDBRANCH  13  14
ENDBRANCH  12  13
ENDBRANCH  11  12
ENDBRANCH   8  11
ENDBRANCH   1   7
BRANCH   5  21
ATOM     21  N   UNL d   1      28.009 -10.163   5.069  0.00  0.00    -0.113 N 
ATOM     22  O   UNL d   1      27.227  -9.635   4.267  0.00  0.00    -0.532 OA
ATOM     23  O   UNL d   1      28.550  -9.546   5.998  0.00  0.00    -0.532 OA
ENDBRANCH   5  21
BRANCH   4  24
ATOM     24  N   UNL d   1      29.036 -12.040   7.427  0.00  0.00    -0.354 N 
ATOM     25  H   UNL d   1      29.290 -11.062   7.548  0.00  0.00     0.166 HD
BRANCH  24  26
ATOM     26  C   UNL d   1      28.887 -12.726   8.645  0.00  0.00     0.032 A 
ATOM     27  C   UNL d   1      28.120 -12.204   9.701  0.00  0.00     0.029 A 
ATOM     28  C   UNL d   1      27.837 -12.996  10.822  0.00  0.00     0.002 A 
ATOM     29  C   UNL d   1      28.233 -14.334  10.848  0.00  0.00     0.000 A 
ATOM     30  C   UNL d   1      28.994 -14.854   9.806  0.00  0.00     0.002 A 
ATOM     31  C   UNL d   1      29.364 -14.039   8.740  0.00  0.00     0.029 A 
ENDBRANCH  24  26
ENDBRANCH   4  24
TORSDOF 8
ENDMDL
MODEL 6
REMARK VINA RESULT:    -6.879      1.223      2.045
REMARK INTER + INTRA:         -10.644
REMARK INTER:                  -9.266
REMARK INTRA:                  -1.378
REMARK CONF_INDEPENDENT:        2.386
REMARK UNBOUND:                -1.378
REMARK  8 active torsions:
REMARK  status: ('A' for Active; 'I' for Inactive)
REMARK    1  A    between atoms: N_6  and  C_7 
REMARK    2  A    between atoms: C_7  and  C_8 
REMARK    3  A    between atoms: C_8  and  C_9 
REMARK    4  A    between atoms: C_9  and  N_10 
REMARK       I    between atoms: N_10  and  C_11 
REMARK    5  A    between atoms: C_11  and  C_13 
REMARK    6  A    between atoms: C_16  and  N_17 
REMARK    7  A    between atoms: N_17  and  C_18 
REMARK    8  A    between atoms: C_24  and  N_25 
ROOT
ATOM      1  C   UNL d   1      27.049 -12.502   1.648  0.00  0.00     0.034 A 
ATOM      2  C   UNL d   1      27.818 -13.042   2.674  0.00  0.00     0.019 A 
ATOM      3  C   UNL d   1      28.042 -12.303   3.853  0.00  0.00     0.033 A 
ATOM      4  C   UNL d   1      27.589 -10.964   4.012  0.00  0.00     0.066 A 
ATOM      5  C   UNL d   1      26.806 -10.449   2.949  0.00  0.00     0.130 A 
ATOM      6  C   UNL d   1      26.540 -11.220   1.796  0.00  0.00     0.055 A 
ENDROOT
BRANCH   1   7
ATOM      7  C   UNL d   1      26.655 -13.296   0.459  0.00  0.00     0.251 C 
ATOM      8  N   UNL d   1      26.912 -12.740  -0.782  0.00  0.00    -0.357 N 
ATOM      9  H   UNL d   1      27.427 -11.868  -0.845  0.00  0.00     0.162 HD
ATOM     10  O   UNL d   1      26.101 -14.382   0.603  0.00  0.00    -0.268 OA
BRANCH   8  11
ATOM     11  C   UNL d   1      26.514 -13.440  -1.988  0.00  0.00     0.124 C 
BRANCH  11  12
ATOM     12  C   UNL d   1      27.087 -14.842  -2.039  0.00  0.00     0.040 C 
BRANCH  12  13
ATOM     13  C   UNL d   1      26.011 -15.916  -2.187  0.00  0.00     0.131 C 
BRANCH  13  14
ATOM     14  N   UNL d   1      25.992 -16.865  -1.050  0.00  0.00    -0.346 N 
ATOM     15  C   UNL d   1      27.106 -17.362  -0.370  0.00  0.00     0.109 A 
ATOM     16  C   UNL d   1      26.649 -18.194   0.604  0.00  0.00     0.106 A 
ATOM     17  N   UNL d   1      25.283 -18.189   0.495  0.00  0.00    -0.355 N 
ATOM     18  C   UNL d   1      24.872 -17.394  -0.504  0.00  0.00     0.079 A 
ATOM     19  H   UNL d   1      24.654 -18.722   1.092  0.00  0.00     0.166 HD
ATOM     20  C   UNL d   1      23.454 -17.165  -0.899  0.00  0.00     0.089 C 
ENDBRANCH  13  14
ENDBRANCH  12  13
ENDBRANCH  11  12
ENDBRANCH   8  11
ENDBRANCH   1   7
BRANCH   5  21
ATOM     21  N   UNL d   1      26.234  -9.098   2.838  0.00  0.00    -0.113 N 
ATOM     22  O   UNL d   1      25.253  -8.920   2.104  0.00  0.00    -0.532 OA
ATOM     23  O   UNL d   1      26.655  -8.245   3.631  0.00  0.00    -0.532 OA
ENDBRANCH   5  21
BRANCH   4  24
ATOM     24  N   UNL d   1      27.937 -10.329   5.230  0.00  0.00    -0.354 N 
ATOM     25  H   UNL d   1      27.545  -9.404   5.392  0.00  0.00     0.166 HD
BRANCH  24  26
ATOM     26  C   UNL d   1      28.536 -10.883   6.375  0.00  0.00     0.032 A 
ATOM     27  C   UNL d   1      29.419 -10.143   7.181  0.00  0.00     0.029 A 
ATOM     28  C   UNL d   1      29.844 -10.658   8.413  0.00  0.00     0.002 A 
ATOM     29  C   UNL d   1      29.316 -11.861   8.885  0.00  0.00     0.000 A 
ATOM     30  C   UNL d   1      28.442 -12.596   8.090  0.00  0.00     0.002 A 
ATOM     31  C   UNL d   1      28.100 -12.136   6.822  0.00  0.00     0.029 A 
ENDBRANCH  24  26
ENDBRANCH   4  24
TORSDOF 8
ENDMDL
MODEL 7
REMARK VINA RESULT:    -6.798      6.193      8.890
REMARK INTER + INTRA:         -10.473
REMARK INTER:                  -9.184
REMARK INTRA:                  -1.289
REMARK CONF_INDEPENDENT:        2.386
REMARK UNBOUND:                -1.289
REMARK  8 active torsions:
REMARK  status: ('A' for Active; 'I' for Inactive)
REMARK    1  A    between atoms: N_6  and  C_7 
REMARK    2  A    between atoms: C_7  and  C_8 
REMARK    3  A    between atoms: C_8  and  C_9 
REMARK    4  A    between atoms: C_9  and  N_10 
REMARK       I    between atoms: N_10  and  C_11 
REMARK    5  A    between atoms: C_11  and  C_13 
REMARK    6  A    between atoms: C_16  and  N_17 
REMARK    7  A    between atoms: N_17  and  C_18 
REMARK    8  A    between atoms: C_24  and  N_25 
ROOT
ATOM      1  C   UNL d   1      29.246 -16.096  -3.093  0.00  0.00     0.034 A 
ATOM      2  C   UNL d   1      28.949 -16.240  -1.741  0.00  0.00     0.019 A 
ATOM      3  C   UNL d   1      27.622 -16.091  -1.291  0.00  0.00     0.033 A 
ATOM      4  C   UNL d   1      26.562 -15.699  -2.154  0.00  0.00     0.066 A 
ATOM      5  C   UNL d   1      26.902 -15.566  -3.523  0.00  0.00     0.130 A 
ATOM      6  C   UNL d   1      28.224 -15.774  -3.973  0.00  0.00     0.055 A 
ENDROOT
BRANCH   1   7
ATOM      7  C   UNL d   1      30.593 -16.396  -3.638  0.00  0.00     0.251 C 
ATOM      8  N   UNL d   1      31.011 -15.650  -4.726  0.00  0.00    -0.357 N 
ATOM      9  H   UNL d   1      30.438 -14.882  -5.059  0.00  0.00     0.162 HD
ATOM     10  O   UNL d   1      31.270 -17.292  -3.141  0.00  0.00    -0.268 OA
BRANCH   8  11
ATOM     11  C   UNL d   1      32.297 -15.918  -5.340  0.00  0.00     0.124 C 
BRANCH  11  12
ATOM     12  C   UNL d   1      32.147 -16.592  -6.690  0.00  0.00     0.040 C 
BRANCH  12  13
ATOM     13  C   UNL d   1      30.780 -17.249  -6.873  0.00  0.00     0.131 C 
BRANCH  13  14
ATOM     14  N   UNL d   1      30.881 -18.657  -7.324  0.00  0.00    -0.346 N 
ATOM     15  C   UNL d   1      31.154 -19.091  -8.622  0.00  0.00     0.109 A 
ATOM     16  C   UNL d   1      31.164 -20.451  -8.602  0.00  0.00     0.106 A 
ATOM     17  N   UNL d   1      30.895 -20.812  -7.308  0.00  0.00    -0.355 N 
ATOM     18  C   UNL d   1      30.717 -19.737  -6.525  0.00  0.00     0.079 A 
ATOM     19  H   UNL d   1      30.833 -21.772  -6.977  0.00  0.00     0.166 HD
ATOM     20  C   UNL d   1      30.404 -19.771  -5.068  0.00  0.00     0.089 C 
ENDBRANCH  13  14
ENDBRANCH  12  13
ENDBRANCH  11  12
ENDBRANCH   8  11
ENDBRANCH   1   7
BRANCH   5  21
ATOM     21  N   UNL d   1      26.017 -15.151  -4.624  0.00  0.00    -0.113 N 
ATOM     22  O   UNL d   1      26.255 -15.554  -5.770  0.00  0.00    -0.532 OA
ATOM     23  O   UNL d   1      24.970 -14.567  -4.311  0.00  0.00    -0.532 OA
ENDBRANCH   5  21
BRANCH   4  24
ATOM     24  N   UNL d   1      25.292 -15.535  -1.547  0.00  0.00    -0.354 N 
ATOM     25  H   UNL d   1      24.809 -14.657  -1.727  0.00  0.00     0.166 HD
BRANCH  24  26
ATOM     26  C   UNL d   1      24.472 -16.502  -0.940  0.00  0.00     0.032 A 
ATOM     27  C   UNL d   1      23.071 -16.391  -0.943  0.00  0.00     0.029 A 
ATOM     28  C   UNL d   1      22.281 -17.462  -0.501  0.00  0.00     0.002 A 
ATOM     29  C   UNL d   1      22.881 -18.672  -0.150  0.00  0.00     0.000 A 
ATOM     30  C   UNL d   1      24.268 -18.785  -0.145  0.00  0.00     0.002 A 
ATOM     31  C   UNL d   1      25.057 -17.689  -0.484  0.00  0.00     0.029 A 
ENDBRANCH  24  26
ENDBRANCH   4  24
TORSDOF 8
ENDMDL
MODEL 8
REMARK VINA RESULT:    -5.771      6.173      8.778
REMARK INTER + INTRA:         -10.635
REMARK INTER:                  -8.158
REMARK INTRA:                  -2.477
REMARK CONF_INDEPENDENT:        2.386
REMARK UNBOUND:                -2.477
REMARK  8 active torsions:
REMARK  status: ('A' for Active; 'I' for Inactive)
REMARK    1  A    between atoms: N_6  and  C_7 
REMARK    2  A    between atoms: C_7  and  C_8 
REMARK    3  A    between atoms: C_8  and  C_9 
REMARK    4  A    between atoms: C_9  and  N_10 
REMARK       I    between atoms: N_10  and  C_11 
REMARK    5  A    between atoms: C_11  and  C_13 
REMARK    6  A    between atoms: C_16  and  N_17 
REMARK    7  A    between atoms: N_17  and  C_18 
REMARK    8  A    between atoms: C_24  and  N_25 
ROOT
ATOM      1  C   UNL d   1      29.221 -15.870  -2.670  0.00  0.00     0.034 A 
ATOM      2  C   UNL d   1      28.743 -16.039  -1.375  0.00  0.00     0.019 A 
ATOM      3  C   UNL d   1      27.356 -16.006  -1.124  0.00  0.00     0.033 A 
ATOM      4  C   UNL d   1      26.405 -15.708  -2.137  0.00  0.00     0.066 A 
ATOM      5  C   UNL d   1      26.928 -15.546  -3.444  0.00  0.00     0.130 A 
ATOM      6  C   UNL d   1      28.315 -15.638  -3.694  0.00  0.00     0.055 A 
ENDROOT
BRANCH   1   7
ATOM      7  C   UNL d   1      30.654 -16.052  -3.010  0.00  0.00     0.251 C 
ATOM      8  N   UNL d   1      31.389 -14.908  -3.266  0.00  0.00    -0.357 N 
ATOM      9  H   UNL d   1      30.964 -13.997  -3.133  0.00  0.00     0.162 HD
ATOM     10  O   UNL d   1      31.128 -17.182  -3.081  0.00  0.00    -0.268 OA
BRANCH   8  11
ATOM     11  C   UNL d   1      32.785 -15.012  -3.647  0.00  0.00     0.124 C 
BRANCH  11  12
ATOM     12  C   UNL d   1      32.976 -15.943  -4.829  0.00  0.00     0.040 C 
BRANCH  12  13
ATOM     13  C   UNL d   1      32.726 -15.255  -6.169  0.00  0.00     0.131 C 
BRANCH  13  14
ATOM     14  N   UNL d   1      31.296 -14.938  -6.389  0.00  0.00    -0.346 N 
ATOM     15  C   UNL d   1      30.742 -13.662  -6.514  0.00  0.00     0.109 A 
ATOM     16  C   UNL d   1      29.406 -13.816  -6.712  0.00  0.00     0.106 A 
ATOM     17  N   UNL d   1      29.175 -15.167  -6.698  0.00  0.00    -0.355 N 
ATOM     18  C   UNL d   1      30.308 -15.858  -6.500  0.00  0.00     0.079 A 
ATOM     19  H   UNL d   1      28.262 -15.599  -6.819  0.00  0.00     0.166 HD
ATOM     20  C   UNL d   1      30.415 -17.342  -6.424  0.00  0.00     0.089 C 
ENDBRANCH  13  14
ENDBRANCH  12  13
ENDBRANCH  11  12
ENDBRANCH   8  11
ENDBRANCH   1   7
BRANCH   5  21
ATOM     21  N   UNL d   1      26.181 -15.210  -4.666  0.00  0.00    -0.113 N 
ATOM     22  O   UNL d   1      26.643 -15.548  -5.764  0.00  0.00    -0.532 OA
ATOM     23  O   UNL d   1      25.034 -14.766  -4.518  0.00  0.00    -0.532 OA
ENDBRANCH   5  21
BRANCH   4  24
ATOM     24  N   UNL d   1      25.050 -15.654  -1.723  0.00  0.00    -0.354 N 
ATOM     25  H   UNL d   1      24.481 -14.907  -2.114  0.00  0.00     0.166 HD
BRANCH  24  26
ATOM     26  C   UNL d   1      24.292 -16.630  -1.052  0.00  0.00     0.032 A 
ATOM     27  C   UNL d   1      22.901 -16.511  -0.899  0.00  0.00     0.029 A 
ATOM     28  C   UNL d   1      22.155 -17.587  -0.398  0.00  0.00     0.002 A 
ATOM     29  C   UNL d   1      22.778 -18.809  -0.143  0.00  0.00     0.000 A 
ATOM     30  C   UNL d   1      24.156 -18.931  -0.293  0.00  0.00     0.002 A 
ATOM     31  C   UNL d   1      24.913 -17.832  -0.692  0.00  0.00     0.029 A 
ENDBRANCH  24  26
ENDBRANCH   4  24
TORSDOF 8
ENDMDL
MODEL 9
REMARK VINA RESULT:    -5.631      6.550      9.347
REMARK INTER + INTRA:         -10.545
REMARK INTER:                  -8.018
REMARK INTRA:                  -2.527
REMARK CONF_INDEPENDENT:        2.386
REMARK UNBOUND:                -2.527
REMARK  8 active torsions:
REMARK  status: ('A' for Active; 'I' for Inactive)
REMARK    1  A    between atoms: N_6  and  C_7 
REMARK    2  A    between atoms: C_7  and  C_8 
REMARK    3  A    between atoms: C_8  and  C_9 
REMARK    4  A    between atoms: C_9  and  N_10 
REMARK       I    between atoms: N_10  and  C_11 
REMARK    5  A    between atoms: C_11  and  C_13 
REMARK    6  A    between atoms: C_16  and  N_17 
REMARK    7  A    between atoms: N_17  and  C_18 
REMARK    8  A    between atoms: C_24  and  N_25 
ROOT
ATOM      1  C   UNL d   1      26.041 -12.516  -4.958  0.00  0.00     0.034 A 
ATOM      2  C   UNL d   1      25.341 -12.796  -3.789  0.00  0.00     0.019 A 
ATOM      3  C   UNL d   1      25.614 -13.978  -3.069  0.00  0.00     0.033 A 
ATOM      4  C   UNL d   1      26.522 -14.965  -3.539  0.00  0.00     0.066 A 
ATOM      5  C   UNL d   1      27.219 -14.643  -4.730  0.00  0.00     0.130 A 
ATOM      6  C   UNL d   1      26.980 -13.430  -5.413  0.00  0.00     0.055 A 
ENDROOT
BRANCH   1   7
ATOM      7  C   UNL d   1      25.905 -11.219  -5.665  0.00  0.00     0.251 C 
ATOM      8  N   UNL d   1      26.764 -10.203  -5.285  0.00  0.00    -0.357 N 
ATOM      9  H   UNL d   1      27.501 -10.392  -4.615  0.00  0.00     0.162 HD
ATOM     10  O   UNL d   1      25.038 -11.077  -6.523  0.00  0.00    -0.268 OA
BRANCH   8  11
ATOM     11  C   UNL d   1      26.659  -8.894  -5.902  0.00  0.00     0.124 C 
BRANCH  11  12
ATOM     12  C   UNL d   1      27.750  -8.668  -6.930  0.00  0.00     0.040 C 
BRANCH  12  13
ATOM     13  C   UNL d   1      28.880  -9.690  -6.826  0.00  0.00     0.131 C 
BRANCH  13  14
ATOM     14  N   UNL d   1      28.624 -10.907  -7.632  0.00  0.00    -0.346 N 
ATOM     15  C   UNL d   1      27.821 -10.989  -8.771  0.00  0.00     0.109 A 
ATOM     16  C   UNL d   1      27.864 -12.277  -9.206  0.00  0.00     0.106 A 
ATOM     17  N   UNL d   1      28.679 -12.945  -8.330  0.00  0.00    -0.355 N 
ATOM     18  C   UNL d   1      29.142 -12.130  -7.370  0.00  0.00     0.079 A 
ATOM     19  H   UNL d   1      28.905 -13.935  -8.392  0.00  0.00     0.166 HD
ATOM     20  C   UNL d   1      30.047 -12.531  -6.257  0.00  0.00     0.089 C 
ENDBRANCH  13  14
ENDBRANCH  12  13
ENDBRANCH  11  12
ENDBRANCH   8  11
ENDBRANCH   1   7
BRANCH   5  21
ATOM     21  N   UNL d   1      28.191 -15.483  -5.448  0.00  0.00    -0.113 N 
ATOM     22  O   UNL d   1      28.482 -15.200  -6.617  0.00  0.00    -0.532 OA
ATOM     23  O   UNL d   1      28.806 -16.324  -4.778  0.00  0.00    -0.532 OA
ENDBRANCH   5  21
BRANCH   4  24
ATOM     24  N   UNL d   1      26.651 -16.125  -2.736  0.00  0.00    -0.354 N 
ATOM     25  H   UNL d   1      27.555 -16.593  -2.748  0.00  0.00     0.166 HD
BRANCH  24  26
ATOM     26  C   UNL d   1      25.802 -16.593  -1.717  0.00  0.00     0.032 A 
ATOM     27  C   UNL d   1      24.403 -16.536  -1.834  0.00  0.00     0.029 A 
ATOM     28  C   UNL d   1      23.592 -17.182  -0.890  0.00  0.00     0.002 A 
ATOM     29  C   UNL d   1      24.174 -17.963   0.109  0.00  0.00     0.000 A 
ATOM     30  C   UNL d   1      25.559 -18.021   0.229  0.00  0.00     0.002 A 
ATOM     31  C   UNL d   1      26.364 -17.296  -0.645  0.00  0.00     0.029 A 
ENDBRANCH  24  26
ENDBRANCH   4  24
TORSDOF 8
ENDMDL
