MODEL 1
REMARK VINA RESULT:    -9.976      0.000      0.000
REMARK INTER + INTRA:         -13.609
REMARK INTER:                 -12.064
REMARK INTRA:                  -1.545
REMARK CONF_INDEPENDENT:        2.088
REMARK UNBOUND:                -1.545
REMARK  7 active torsions:
REMARK  status: ('A' for Active; 'I' for Inactive)
REMARK    1  A    between atoms: C_2  and  C_3 
REMARK    2  A    between atoms: C_3  and  N_4 
REMARK       I    between atoms: N_4  and  C_5 
REMARK    3  A    between atoms: C_5  and  C_7 
REMARK    4  A    between atoms: C_11  and  N_12 
REMARK       I    between atoms: N_12  and  C_13 
REMARK    5  A    between atoms: C_13  and  C_15 
REMARK    6  A    between atoms: C_20  and  N_21 
REMARK       I    between atoms: N_21  and  C_22 
REMARK    7  A    between atoms: C_22  and  C_24 
ROOT
ATOM      1  N   UNL d   1      25.139 -14.969  -2.205  0.00  0.00    -0.323 N 
ATOM      2  C   UNL d   1      25.579 -15.017  -3.530  0.00  0.00     0.258 C 
ATOM      3  O   UNL d   1      25.515 -15.972  -4.301  0.00  0.00    -0.267 OA
ATOM      4  H   UNL d   1      25.204 -14.089  -1.711  0.00  0.00     0.169 HD
ENDROOT
BRANCH   2   5
ATOM      5  C   UNL d   1      26.241 -13.822  -4.097  0.00  0.00     0.059 A 
ATOM      6  C   UNL d   1      25.581 -12.608  -3.806  0.00  0.00     0.019 A 
ATOM      7  C   UNL d   1      25.990 -11.414  -4.382  0.00  0.00     0.001 A 
ATOM      8  C   UNL d   1      27.112 -11.410  -5.201  0.00  0.00     0.002 A 
ATOM      9  C   UNL d   1      27.781 -12.612  -5.498  0.00  0.00     0.030 A 
ATOM     10  C   UNL d   1      27.339 -13.844  -4.979  0.00  0.00     0.050 A 
BRANCH  10  11
ATOM     11  N   UNL d   1      28.045 -15.021  -5.370  0.00  0.00    -0.322 N 
ATOM     12  C   UNL d   1      29.378 -15.262  -5.051  0.00  0.00     0.256 C 
ATOM     13  O   UNL d   1      29.955 -14.715  -4.127  0.00  0.00    -0.267 OA
ATOM     14  H   UNL d   1      27.502 -15.850  -5.570  0.00  0.00     0.169 HD
BRANCH  12  15
ATOM     15  C   UNL d   1      30.081 -16.245  -5.882  0.00  0.00     0.039 C 
ATOM     16  C   UNL d   1      30.804 -16.093  -7.111  0.00  0.00     0.024 C 
ATOM     17  C   UNL d   1      31.180 -17.311  -7.645  0.00  0.00     0.050 C 
ATOM     18  S   UNL d   1      30.851 -18.613  -6.589  0.00  0.00    -0.113 SA
ATOM     19  C   UNL d   1      30.176 -17.558  -5.438  0.00  0.00     0.066 C 
ENDBRANCH  12  15
ENDBRANCH  10  11
ENDBRANCH   2   5
BRANCH   1  20
ATOM     20  C   UNL d   1      24.876 -16.131  -1.426  0.00  0.00     0.035 A 
ATOM     21  C   UNL d   1      25.875 -16.682  -0.612  0.00  0.00     0.029 A 
ATOM     22  C   UNL d   1      25.577 -17.763   0.231  0.00  0.00     0.003 A 
ATOM     23  C   UNL d   1      24.297 -18.328   0.231  0.00  0.00     0.017 A 
ATOM     24  C   UNL d   1      23.325 -17.830  -0.635  0.00  0.00     0.034 A 
ATOM     25  C   UNL d   1      23.636 -16.769  -1.475  0.00  0.00     0.046 A 
BRANCH  24  26
ATOM     26  C   UNL d   1      21.905 -18.251  -0.525  0.00  0.00     0.251 C 
ATOM     27  N   UNL d   1      21.647 -19.525  -0.048  0.00  0.00    -0.357 N 
ATOM     28  H   UNL d   1      22.410 -20.133   0.230  0.00  0.00     0.162 HD
ATOM     29  O   UNL d   1      21.030 -17.474  -0.895  0.00  0.00    -0.268 OA
BRANCH  27  30
ATOM     30  C   UNL d   1      20.283 -20.018   0.017  0.00  0.00     0.122 C 
BRANCH  30  31
ATOM     31  C   UNL d   1      19.699 -19.977   1.426  0.00  0.00     0.015 C 
ATOM     32  C   UNL d   1      18.413 -20.788   1.514  0.00  0.00     0.006 C 
ENDBRANCH  30  31
ENDBRANCH  27  30
ENDBRANCH  24  26
ENDBRANCH   1  20
TORSDOF 7
ENDMDL
MODEL 2
REMARK VINA RESULT:    -9.402      1.205      1.325
REMARK INTER + INTRA:         -13.531
REMARK INTER:                 -11.490
REMARK INTRA:                  -2.041
REMARK CONF_INDEPENDENT:        2.088
REMARK UNBOUND:                -2.041
REMARK  7 active torsions:
REMARK  status: ('A' for Active; 'I' for Inactive)
REMARK    1  A    between atoms: C_2  and  C_3 
REMARK    2  A    between atoms: C_3  and  N_4 
REMARK       I    between atoms: N_4  and  C_5 
REMARK    3  A    between atoms: C_5  and  C_7 
REMARK    4  A    between atoms: C_11  and  N_12 
REMARK       I    between atoms: N_12  and  C_13 
REMARK    5  A    between atoms: C_13  and  C_15 
REMARK    6  A    between atoms: C_20  and  N_21 
REMARK       I    between atoms: N_21  and  C_22 
REMARK    7  A    between atoms: C_22  and  C_24 
ROOT
ATOM      1  N   UNL d   1      26.203 -15.162  -2.065  0.00  0.00    -0.323 N 
ATOM      2  C   UNL d   1      25.431 -14.487  -3.014  0.00  0.00     0.258 C 
ATOM      3  O   UNL d   1      24.209 -14.525  -3.141  0.00  0.00    -0.267 OA
ATOM      4  H   UNL d   1      27.198 -14.984  -2.043  0.00  0.00     0.169 HD
ENDROOT
BRANCH   2   5
ATOM      5  C   UNL d   1      26.122 -13.656  -4.023  0.00  0.00     0.059 A 
ATOM      6  C   UNL d   1      25.529 -12.391  -4.227  0.00  0.00     0.019 A 
ATOM      7  C   UNL d   1      25.968 -11.549  -5.240  0.00  0.00     0.001 A 
ATOM      8  C   UNL d   1      27.055 -11.935  -6.013  0.00  0.00     0.002 A 
ATOM      9  C   UNL d   1      27.657 -13.192  -5.819  0.00  0.00     0.030 A 
ATOM     10  C   UNL d   1      27.181 -14.090  -4.844  0.00  0.00     0.050 A 
BRANCH  10  11
ATOM     11  N   UNL d   1      27.818 -15.363  -4.746  0.00  0.00    -0.322 N 
ATOM     12  C   UNL d   1      28.822 -15.655  -3.827  0.00  0.00     0.256 C 
ATOM     13  O   UNL d   1      28.996 -15.020  -2.801  0.00  0.00    -0.267 OA
ATOM     14  H   UNL d   1      27.313 -16.168  -5.089  0.00  0.00     0.169 HD
BRANCH  12  15
ATOM     15  C   UNL d   1      29.679 -16.804  -4.140  0.00  0.00     0.039 C 
ATOM     16  C   UNL d   1      30.035 -17.399  -5.394  0.00  0.00     0.024 C 
ATOM     17  C   UNL d   1      30.746 -18.573  -5.228  0.00  0.00     0.050 C 
ATOM     18  S   UNL d   1      31.161 -18.855  -3.595  0.00  0.00    -0.113 SA
ATOM     19  C   UNL d   1      30.363 -17.434  -3.107  0.00  0.00     0.066 C 
ENDBRANCH  12  15
ENDBRANCH  10  11
ENDBRANCH   2   5
BRANCH   1  20
ATOM     20  C   UNL d   1      25.730 -16.284  -1.326  0.00  0.00     0.035 A 
ATOM     21  C   UNL d   1      26.606 -17.025  -0.521  0.00  0.00     0.029 A 
ATOM     22  C   UNL d   1      26.111 -18.063   0.284  0.00  0.00     0.003 A 
ATOM     23  C   UNL d   1      24.752 -18.394   0.254  0.00  0.00     0.017 A 
ATOM     24  C   UNL d   1      23.894 -17.708  -0.604  0.00  0.00     0.034 A 
ATOM     25  C   UNL d   1      24.398 -16.693  -1.406  0.00  0.00     0.046 A 
BRANCH  24  26
ATOM     26  C   UNL d   1      22.422 -17.877  -0.519  0.00  0.00     0.251 C 
ATOM     27  N   UNL d   1      21.938 -19.090  -0.059  0.00  0.00    -0.357 N 
ATOM     28  H   UNL d   1      22.580 -19.823   0.224  0.00  0.00     0.162 HD
ATOM     29  O   UNL d   1      21.701 -16.957  -0.894  0.00  0.00    -0.268 OA
BRANCH  27  30
ATOM     30  C   UNL d   1      20.509 -19.340  -0.020  0.00  0.00     0.122 C 
BRANCH  30  31
ATOM     31  C   UNL d   1      20.004 -19.700   1.374  0.00  0.00     0.015 C 
ATOM     32  C   UNL d   1      18.730 -20.532   1.301  0.00  0.00     0.006 C 
ENDBRANCH  30  31
ENDBRANCH  27  30
ENDBRANCH  24  26
ENDBRANCH   1  20
TORSDOF 7
ENDMDL
MODEL 3
REMARK VINA RESULT:    -9.209      3.582      4.417
REMARK INTER + INTRA:         -13.351
REMARK INTER:                 -11.297
REMARK INTRA:                  -2.054
REMARK CONF_INDEPENDENT:        2.088
REMARK UNBOUND:                -2.054
REMARK  7 active torsions:
REMARK  status: ('A' for Active; 'I' for Inactive)
REMARK    1  A    between atoms: C_2  and  C_3 
REMARK    2  A    between atoms: C_3  and  N_4 
REMARK       I    between atoms: N_4  and  C_5 
REMARK    3  A    between atoms: C_5  and  C_7 
REMARK    4  A    between atoms: C_11  and  N_12 
REMARK       I    between atoms: N_12  and  C_13 
REMARK    5  A    between atoms: C_13  and  C_15 
REMARK    6  A    between atoms: C_20  and  N_21 
REMARK       I    between atoms: N_21  and  C_22 
REMARK    7  A    between atoms: C_22  and  C_24 
ROOT
ATOM      1  N   UNL d   1      25.247 -14.929  -1.511  0.00  0.00    -0.323 N 
ATOM      2  C   UNL d   1      25.485 -14.577  -2.841  0.00  0.00     0.258 C 
ATOM      3  O   UNL d   1      25.155 -15.203  -3.846  0.00  0.00    -0.267 OA
ATOM      4  H   UNL d   1      25.526 -14.280  -0.787  0.00  0.00     0.169 HD
ENDROOT
BRANCH   2   5
ATOM      5  C   UNL d   1      26.253 -13.344  -3.118  0.00  0.00     0.059 A 
ATOM      6  C   UNL d   1      25.845 -12.665  -4.286  0.00  0.00     0.019 A 
ATOM      7  C   UNL d   1      26.555 -11.572  -4.764  0.00  0.00     0.001 A 
ATOM      8  C   UNL d   1      27.641 -11.102  -4.036  0.00  0.00     0.002 A 
ATOM      9  C   UNL d   1      28.057 -11.768  -2.869  0.00  0.00     0.030 A 
ATOM     10  C   UNL d   1      27.392 -12.921  -2.406  0.00  0.00     0.050 A 
BRANCH  10  11
ATOM     11  N   UNL d   1      27.910 -13.563  -1.241  0.00  0.00    -0.322 N 
ATOM     12  C   UNL d   1      27.403 -13.364   0.039  0.00  0.00     0.256 C 
ATOM     13  O   UNL d   1      26.279 -12.945   0.257  0.00  0.00    -0.267 OA
ATOM     14  H   UNL d   1      28.408 -14.434  -1.368  0.00  0.00     0.169 HD
BRANCH  12  15
ATOM     15  C   UNL d   1      28.293 -13.704   1.154  0.00  0.00     0.039 C 
ATOM     16  C   UNL d   1      29.691 -14.017   1.181  0.00  0.00     0.024 C 
ATOM     17  C   UNL d   1      30.105 -14.436   2.431  0.00  0.00     0.050 C 
ATOM     18  S   UNL d   1      28.882 -14.264   3.611  0.00  0.00    -0.113 SA
ATOM     19  C   UNL d   1      27.793 -13.666   2.450  0.00  0.00     0.066 C 
ENDBRANCH  12  15
ENDBRANCH  10  11
ENDBRANCH   2   5
BRANCH   1  20
ATOM     20  C   UNL d   1      24.903 -16.248  -1.100  0.00  0.00     0.035 A 
ATOM     21  C   UNL d   1      25.871 -17.094  -0.543  0.00  0.00     0.029 A 
ATOM     22  C   UNL d   1      25.501 -18.353  -0.046  0.00  0.00     0.003 A 
ATOM     23  C   UNL d   1      24.176 -18.790  -0.143  0.00  0.00     0.017 A 
ATOM     24  C   UNL d   1      23.227 -17.981  -0.766  0.00  0.00     0.034 A 
ATOM     25  C   UNL d   1      23.609 -16.743  -1.268  0.00  0.00     0.046 A 
BRANCH  24  26
ATOM     26  C   UNL d   1      21.780 -18.304  -0.708  0.00  0.00     0.251 C 
ATOM     27  N   UNL d   1      21.411 -19.509  -0.134  0.00  0.00    -0.357 N 
ATOM     28  H   UNL d   1      22.116 -20.132   0.246  0.00  0.00     0.162 HD
ATOM     29  O   UNL d   1      20.980 -17.515  -1.202  0.00  0.00    -0.268 OA
BRANCH  27  30
ATOM     30  C   UNL d   1      20.017 -19.911  -0.111  0.00  0.00     0.122 C 
BRANCH  30  31
ATOM     31  C   UNL d   1      19.549 -20.364   1.269  0.00  0.00     0.015 C 
ATOM     32  C   UNL d   1      18.308 -21.243   1.170  0.00  0.00     0.006 C 
ENDBRANCH  30  31
ENDBRANCH  27  30
ENDBRANCH  24  26
ENDBRANCH   1  20
TORSDOF 7
ENDMDL
MODEL 4
REMARK VINA RESULT:    -9.095      2.965      4.923
REMARK INTER + INTRA:         -12.415
REMARK INTER:                 -11.183
REMARK INTRA:                  -1.232
REMARK CONF_INDEPENDENT:        2.088
REMARK UNBOUND:                -1.232
REMARK  7 active torsions:
REMARK  status: ('A' for Active; 'I' for Inactive)
REMARK    1  A    between atoms: C_2  and  C_3 
REMARK    2  A    between atoms: C_3  and  N_4 
REMARK       I    between atoms: N_4  and  C_5 
REMARK    3  A    between atoms: C_5  and  C_7 
REMARK    4  A    between atoms: C_11  and  N_12 
REMARK       I    between atoms: N_12  and  C_13 
REMARK    5  A    between atoms: C_13  and  C_15 
REMARK    6  A    between atoms: C_20  and  N_21 
REMARK       I    between atoms: N_21  and  C_22 
REMARK    7  A    between atoms: C_22  and  C_24 
ROOT
ATOM      1  N   UNL d   1      26.976 -15.640  -2.592  0.00  0.00    -0.323 N 
ATOM      2  C   UNL d   1      26.323 -14.978  -3.634  0.00  0.00     0.258 C 
ATOM      3  O   UNL d   1      25.119 -14.747  -3.729  0.00  0.00    -0.267 OA
ATOM      4  H   UNL d   1      27.985 -15.703  -2.622  0.00  0.00     0.169 HD
ENDROOT
BRANCH   2   5
ATOM      5  C   UNL d   1      27.122 -14.525  -4.792  0.00  0.00     0.059 A 
ATOM      6  C   UNL d   1      27.978 -15.515  -5.322  0.00  0.00     0.019 A 
ATOM      7  C   UNL d   1      28.897 -15.210  -6.317  0.00  0.00     0.001 A 
ATOM      8  C   UNL d   1      28.920 -13.925  -6.843  0.00  0.00     0.002 A 
ATOM      9  C   UNL d   1      28.071 -12.929  -6.326  0.00  0.00     0.030 A 
ATOM     10  C   UNL d   1      27.181 -13.200  -5.269  0.00  0.00     0.050 A 
BRANCH  10  11
ATOM     11  N   UNL d   1      26.391 -12.121  -4.772  0.00  0.00    -0.322 N 
ATOM     12  C   UNL d   1      25.913 -11.085  -5.568  0.00  0.00     0.256 C 
ATOM     13  O   UNL d   1      25.788 -11.172  -6.778  0.00  0.00    -0.267 OA
ATOM     14  H   UNL d   1      25.869 -12.275  -3.920  0.00  0.00     0.169 HD
BRANCH  12  15
ATOM     15  C   UNL d   1      25.534  -9.849  -4.874  0.00  0.00     0.039 C 
ATOM     16  C   UNL d   1      24.774  -8.717  -5.315  0.00  0.00     0.024 C 
ATOM     17  C   UNL d   1      24.785  -7.691  -4.388  0.00  0.00     0.050 C 
ATOM     18  S   UNL d   1      25.526  -8.152  -2.920  0.00  0.00    -0.113 SA
ATOM     19  C   UNL d   1      25.862  -9.703  -3.531  0.00  0.00     0.066 C 
ENDBRANCH  12  15
ENDBRANCH  10  11
ENDBRANCH   2   5
BRANCH   1  20
ATOM     20  C   UNL d   1      26.304 -16.470  -1.650  0.00  0.00     0.035 A 
ATOM     21  C   UNL d   1      27.016 -17.086  -0.612  0.00  0.00     0.029 A 
ATOM     22  C   UNL d   1      26.331 -17.817   0.372  0.00  0.00     0.003 A 
ATOM     23  C   UNL d   1      24.943 -17.973   0.298  0.00  0.00     0.017 A 
ATOM     24  C   UNL d   1      24.244 -17.425  -0.776  0.00  0.00     0.034 A 
ATOM     25  C   UNL d   1      24.934 -16.717  -1.751  0.00  0.00     0.046 A 
BRANCH  24  26
ATOM     26  C   UNL d   1      22.760 -17.383  -0.790  0.00  0.00     0.251 C 
ATOM     27  N   UNL d   1      22.081 -18.590  -0.812  0.00  0.00    -0.357 N 
ATOM     28  H   UNL d   1      22.593 -19.465  -0.801  0.00  0.00     0.162 HD
ATOM     29  O   UNL d   1      22.202 -16.290  -0.821  0.00  0.00    -0.268 OA
BRANCH  27  30
ATOM     30  C   UNL d   1      20.632 -18.612  -0.896  0.00  0.00     0.122 C 
BRANCH  30  31
ATOM     31  C   UNL d   1      20.016 -19.856  -0.264  0.00  0.00     0.015 C 
ATOM     32  C   UNL d   1      20.261 -19.889   1.239  0.00  0.00     0.006 C 
ENDBRANCH  30  31
ENDBRANCH  27  30
ENDBRANCH  24  26
ENDBRANCH   1  20
TORSDOF 7
ENDMDL
MODEL 5
REMARK VINA RESULT:    -9.075      1.353      1.538
REMARK INTER + INTRA:         -13.293
REMARK INTER:                 -11.163
REMARK INTRA:                  -2.129
REMARK CONF_INDEPENDENT:        2.088
REMARK UNBOUND:                -2.129
REMARK  7 active torsions:
REMARK  status: ('A' for Active; 'I' for Inactive)
REMARK    1  A    between atoms: C_2  and  C_3 
REMARK    2  A    between atoms: C_3  and  N_4 
REMARK       I    between atoms: N_4  and  C_5 
REMARK    3  A    between atoms: C_5  and  C_7 
REMARK    4  A    between atoms: C_11  and  N_12 
REMARK       I    between atoms: N_12  and  C_13 
REMARK    5  A    between atoms: C_13  and  C_15 
REMARK    6  A    between atoms: C_20  and  N_21 
REMARK       I    between atoms: N_21  and  C_22 
REMARK    7  A    between atoms: C_22  and  C_24 
ROOT
ATOM      1  N   UNL d   1      26.155 -15.333  -2.621  0.00  0.00    -0.323 N 
ATOM      2  C   UNL d   1      26.765 -14.137  -2.237  0.00  0.00     0.258 C 
ATOM      3  O   UNL d   1      27.313 -13.894  -1.164  0.00  0.00    -0.267 OA
ATOM      4  H   UNL d   1      25.798 -15.407  -3.565  0.00  0.00     0.169 HD
ENDROOT
BRANCH   2   5
ATOM      5  C   UNL d   1      26.737 -12.997  -3.178  0.00  0.00     0.059 A 
ATOM      6  C   UNL d   1      25.781 -12.010  -2.855  0.00  0.00     0.019 A 
ATOM      7  C   UNL d   1      25.529 -10.949  -3.713  0.00  0.00     0.001 A 
ATOM      8  C   UNL d   1      26.284 -10.825  -4.872  0.00  0.00     0.002 A 
ATOM      9  C   UNL d   1      27.242 -11.800  -5.206  0.00  0.00     0.030 A 
ATOM     10  C   UNL d   1      27.463 -12.921  -4.383  0.00  0.00     0.050 A 
BRANCH  10  11
ATOM     11  N   UNL d   1      28.418 -13.887  -4.820  0.00  0.00    -0.322 N 
ATOM     12  C   UNL d   1      28.098 -15.208  -5.117  0.00  0.00     0.256 C 
ATOM     13  O   UNL d   1      26.971 -15.578  -5.398  0.00  0.00    -0.267 OA
ATOM     14  H   UNL d   1      29.261 -13.547  -5.262  0.00  0.00     0.169 HD
BRANCH  12  15
ATOM     15  C   UNL d   1      29.207 -16.169  -5.098  0.00  0.00     0.039 C 
ATOM     16  C   UNL d   1      30.065 -16.637  -6.147  0.00  0.00     0.024 C 
ATOM     17  C   UNL d   1      30.884 -17.668  -5.725  0.00  0.00     0.050 C 
ATOM     18  S   UNL d   1      30.774 -17.937  -4.042  0.00  0.00    -0.113 SA
ATOM     19  C   UNL d   1      29.612 -16.706  -3.882  0.00  0.00     0.066 C 
ENDBRANCH  12  15
ENDBRANCH  10  11
ENDBRANCH   2   5
BRANCH   1  20
ATOM     20  C   UNL d   1      25.752 -16.338  -1.697  0.00  0.00     0.035 A 
ATOM     21  C   UNL d   1      26.676 -16.889  -0.798  0.00  0.00     0.029 A 
ATOM     22  C   UNL d   1      26.247 -17.802   0.178  0.00  0.00     0.003 A 
ATOM     23  C   UNL d   1      24.908 -18.202   0.232  0.00  0.00     0.017 A 
ATOM     24  C   UNL d   1      24.004 -17.713  -0.710  0.00  0.00     0.034 A 
ATOM     25  C   UNL d   1      24.443 -16.822  -1.680  0.00  0.00     0.046 A 
BRANCH  24  26
ATOM     26  C   UNL d   1      22.544 -17.940  -0.568  0.00  0.00     0.251 C 
ATOM     27  N   UNL d   1      22.126 -19.176  -0.101  0.00  0.00    -0.357 N 
ATOM     28  H   UNL d   1      22.807 -19.885   0.149  0.00  0.00     0.162 HD
ATOM     29  O   UNL d   1      21.773 -17.047  -0.905  0.00  0.00    -0.268 OA
BRANCH  27  30
ATOM     30  C   UNL d   1      20.710 -19.481  -0.007  0.00  0.00     0.122 C 
BRANCH  30  31
ATOM     31  C   UNL d   1      20.213 -19.566   1.433  0.00  0.00     0.015 C 
ATOM     32  C   UNL d   1      18.997 -20.477   1.543  0.00  0.00     0.006 C 
ENDBRANCH  30  31
ENDBRANCH  27  30
ENDBRANCH  24  26
ENDBRANCH   1  20
TORSDOF 7
ENDMDL
MODEL 6
REMARK VINA RESULT:    -8.665      1.642      2.042
REMARK INTER + INTRA:         -12.336
REMARK INTER:                 -10.753
REMARK INTRA:                  -1.583
REMARK CONF_INDEPENDENT:        2.088
REMARK UNBOUND:                -1.583
REMARK  7 active torsions:
REMARK  status: ('A' for Active; 'I' for Inactive)
REMARK    1  A    between atoms: C_2  and  C_3 
REMARK    2  A    between atoms: C_3  and  N_4 
REMARK       I    between atoms: N_4  and  C_5 
REMARK    3  A    between atoms: C_5  and  C_7 
REMARK    4  A    between atoms: C_11  and  N_12 
REMARK       I    between atoms: N_12  and  C_13 
REMARK    5  A    between atoms: C_13  and  C_15 
REMARK    6  A    between atoms: C_20  and  N_21 
REMARK       I    between atoms: N_21  and  C_22 
REMARK    7  A    between atoms: C_22  and  C_24 
ROOT
ATOM      1  N   UNL d   1      26.390 -13.881  -2.733  0.00  0.00    -0.323 N 
ATOM      2  C   UNL d   1      25.920 -13.675  -4.031  0.00  0.00     0.258 C 
ATOM      3  O   UNL d   1      25.024 -14.293  -4.604  0.00  0.00    -0.267 OA
ATOM      4  H   UNL d   1      27.094 -13.249  -2.373  0.00  0.00     0.169 HD
ENDROOT
BRANCH   2   5
ATOM      5  C   UNL d   1      26.569 -12.638  -4.861  0.00  0.00     0.059 A 
ATOM      6  C   UNL d   1      25.753 -11.515  -5.119  0.00  0.00     0.019 A 
ATOM      7  C   UNL d   1      26.159 -10.520  -5.998  0.00  0.00     0.001 A 
ATOM      8  C   UNL d   1      27.420 -10.603  -6.574  0.00  0.00     0.002 A 
ATOM      9  C   UNL d   1      28.245 -11.716  -6.324  0.00  0.00     0.030 A 
ATOM     10  C   UNL d   1      27.822 -12.769  -5.491  0.00  0.00     0.050 A 
BRANCH  10  11
ATOM     11  N   UNL d   1      28.701 -13.883  -5.330  0.00  0.00    -0.322 N 
ATOM     12  C   UNL d   1      28.273 -15.206  -5.314  0.00  0.00     0.256 C 
ATOM     13  O   UNL d   1      27.215 -15.575  -5.794  0.00  0.00    -0.267 OA
ATOM     14  H   UNL d   1      29.671 -13.755  -5.584  0.00  0.00     0.169 HD
BRANCH  12  15
ATOM     15  C   UNL d   1      29.181 -16.178  -4.694  0.00  0.00     0.039 C 
ATOM     16  C   UNL d   1      30.030 -17.177  -5.275  0.00  0.00     0.024 C 
ATOM     17  C   UNL d   1      30.604 -17.990  -4.316  0.00  0.00     0.050 C 
ATOM     18  S   UNL d   1      30.295 -17.441  -2.729  0.00  0.00    -0.113 SA
ATOM     19  C   UNL d   1      29.368 -16.142  -3.317  0.00  0.00     0.066 C 
ENDBRANCH  12  15
ENDBRANCH  10  11
ENDBRANCH   2   5
BRANCH   1  20
ATOM     20  C   UNL d   1      26.155 -15.075  -1.995  0.00  0.00     0.035 A 
ATOM     21  C   UNL d   1      27.194 -15.683  -1.277  0.00  0.00     0.029 A 
ATOM     22  C   UNL d   1      26.929 -16.800  -0.469  0.00  0.00     0.003 A 
ATOM     23  C   UNL d   1      25.640 -17.341  -0.411  0.00  0.00     0.017 A 
ATOM     24  C   UNL d   1      24.623 -16.784  -1.185  0.00  0.00     0.034 A 
ATOM     25  C   UNL d   1      24.901 -15.688  -1.992  0.00  0.00     0.046 A 
BRANCH  24  26
ATOM     26  C   UNL d   1      23.206 -17.184  -1.001  0.00  0.00     0.251 C 
ATOM     27  N   UNL d   1      22.878 -18.513  -1.219  0.00  0.00    -0.357 N 
ATOM     28  H   UNL d   1      23.596 -19.181  -1.478  0.00  0.00     0.162 HD
ATOM     29  O   UNL d   1      22.384 -16.323  -0.705  0.00  0.00    -0.268 OA
BRANCH  27  30
ATOM     30  C   UNL d   1      21.498 -18.950  -1.122  0.00  0.00     0.122 C 
BRANCH  30  31
ATOM     31  C   UNL d   1      21.191 -19.674   0.185  0.00  0.00     0.015 C 
ATOM     32  C   UNL d   1      19.747 -19.450   0.614  0.00  0.00     0.006 C 
ENDBRANCH  30  31
ENDBRANCH  27  30
ENDBRANCH  24  26
ENDBRANCH   1  20
TORSDOF 7
ENDMDL
MODEL 7
REMARK VINA RESULT:    -8.581      4.563      6.224
REMARK INTER + INTRA:         -11.909
REMARK INTER:                 -10.669
REMARK INTRA:                  -1.239
REMARK CONF_INDEPENDENT:        2.088
REMARK UNBOUND:                -1.239
REMARK  7 active torsions:
REMARK  status: ('A' for Active; 'I' for Inactive)
REMARK    1  A    between atoms: C_2  and  C_3 
REMARK    2  A    between atoms: C_3  and  N_4 
REMARK       I    between atoms: N_4  and  C_5 
REMARK    3  A    between atoms: C_5  and  C_7 
REMARK    4  A    between atoms: C_11  and  N_12 
REMARK       I    between atoms: N_12  and  C_13 
REMARK    5  A    between atoms: C_13  and  C_15 
REMARK    6  A    between atoms: C_20  and  N_21 
REMARK       I    between atoms: N_21  and  C_22 
REMARK    7  A    between atoms: C_22  and  C_24 
ROOT
ATOM      1  N   UNL d   1      25.771 -14.986  -1.178  0.00  0.00    -0.323 N 
ATOM      2  C   UNL d   1      27.047 -14.533  -0.836  0.00  0.00     0.258 C 
ATOM      3  O   UNL d   1      28.020 -15.216  -0.524  0.00  0.00    -0.267 OA
ATOM      4  H   UNL d   1      25.085 -14.305  -1.473  0.00  0.00     0.169 HD
ENDROOT
BRANCH   2   5
ATOM      5  C   UNL d   1      27.289 -13.075  -0.790  0.00  0.00     0.059 A 
ATOM      6  C   UNL d   1      27.042 -12.413  -2.012  0.00  0.00     0.019 A 
ATOM      7  C   UNL d   1      27.356 -11.071  -2.177  0.00  0.00     0.001 A 
ATOM      8  C   UNL d   1      27.856 -10.358  -1.095  0.00  0.00     0.002 A 
ATOM      9  C   UNL d   1      28.106 -11.004   0.130  0.00  0.00     0.030 A 
ATOM     10  C   UNL d   1      27.859 -12.381   0.296  0.00  0.00     0.050 A 
BRANCH  10  11
ATOM     11  N   UNL d   1      28.187 -12.967   1.555  0.00  0.00    -0.322 N 
ATOM     12  C   UNL d   1      27.252 -13.220   2.554  0.00  0.00     0.256 C 
ATOM     13  O   UNL d   1      26.056 -13.326   2.342  0.00  0.00    -0.267 OA
ATOM     14  H   UNL d   1      29.024 -13.532   1.606  0.00  0.00     0.169 HD
BRANCH  12  15
ATOM     15  C   UNL d   1      27.777 -13.379   3.915  0.00  0.00     0.039 C 
ATOM     16  C   UNL d   1      28.269 -14.535   4.605  0.00  0.00     0.024 C 
ATOM     17  C   UNL d   1      28.522 -14.275   5.938  0.00  0.00     0.050 C 
ATOM     18  S   UNL d   1      28.368 -12.616   6.316  0.00  0.00    -0.113 SA
ATOM     19  C   UNL d   1      27.930 -12.252   4.713  0.00  0.00     0.066 C 
ENDBRANCH  12  15
ENDBRANCH  10  11
ENDBRANCH   2   5
BRANCH   1  20
ATOM     20  C   UNL d   1      25.296 -16.292  -0.867  0.00  0.00     0.035 A 
ATOM     21  C   UNL d   1      26.181 -17.284  -0.425  0.00  0.00     0.029 A 
ATOM     22  C   UNL d   1      25.689 -18.535  -0.022  0.00  0.00     0.003 A 
ATOM     23  C   UNL d   1      24.321 -18.816  -0.102  0.00  0.00     0.017 A 
ATOM     24  C   UNL d   1      23.449 -17.856  -0.615  0.00  0.00     0.034 A 
ATOM     25  C   UNL d   1      23.950 -16.627  -1.024  0.00  0.00     0.046 A 
BRANCH  24  26
ATOM     26  C   UNL d   1      21.977 -18.025  -0.526  0.00  0.00     0.251 C 
ATOM     27  N   UNL d   1      21.495 -19.236  -0.057  0.00  0.00    -0.357 N 
ATOM     28  H   UNL d   1      22.137 -19.966   0.229  0.00  0.00     0.162 HD
ATOM     29  O   UNL d   1      21.255 -17.107  -0.904  0.00  0.00    -0.268 OA
BRANCH  27  30
ATOM     30  C   UNL d   1      20.065 -19.484  -0.012  0.00  0.00     0.122 C 
BRANCH  30  31
ATOM     31  C   UNL d   1      19.684 -20.599   0.957  0.00  0.00     0.015 C 
ATOM     32  C   UNL d   1      18.568 -20.156   1.895  0.00  0.00     0.006 C 
ENDBRANCH  30  31
ENDBRANCH  27  30
ENDBRANCH  24  26
ENDBRANCH   1  20
TORSDOF 7
ENDMDL
MODEL 8
REMARK VINA RESULT:    -8.372      2.946      3.858
REMARK INTER + INTRA:         -12.503
REMARK INTER:                 -10.460
REMARK INTRA:                  -2.043
REMARK CONF_INDEPENDENT:        2.088
REMARK UNBOUND:                -2.043
REMARK  7 active torsions:
REMARK  status: ('A' for Active; 'I' for Inactive)
REMARK    1  A    between atoms: C_2  and  C_3 
REMARK    2  A    between atoms: C_3  and  N_4 
REMARK       I    between atoms: N_4  and  C_5 
REMARK    3  A    between atoms: C_5  and  C_7 
REMARK    4  A    between atoms: C_11  and  N_12 
REMARK       I    between atoms: N_12  and  C_13 
REMARK    5  A    between atoms: C_13  and  C_15 
REMARK    6  A    between atoms: C_20  and  N_21 
REMARK       I    between atoms: N_21  and  C_22 
REMARK    7  A    between atoms: C_22  and  C_24 
ROOT
ATOM      1  N   UNL d   1      25.915 -14.881  -0.525  0.00  0.00    -0.323 N 
ATOM      2  C   UNL d   1      27.002 -14.421   0.221  0.00  0.00     0.258 C 
ATOM      3  O   UNL d   1      27.862 -15.101   0.777  0.00  0.00    -0.267 OA
ATOM      4  H   UNL d   1      25.322 -14.197  -0.978  0.00  0.00     0.169 HD
ENDROOT
BRANCH   2   5
ATOM      5  C   UNL d   1      27.152 -12.965   0.426  0.00  0.00     0.059 A 
ATOM      6  C   UNL d   1      26.890 -12.540   1.746  0.00  0.00     0.019 A 
ATOM      7  C   UNL d   1      26.847 -11.191   2.071  0.00  0.00     0.001 A 
ATOM      8  C   UNL d   1      27.138 -10.253   1.090  0.00  0.00     0.002 A 
ATOM      9  C   UNL d   1      27.404 -10.661  -0.231  0.00  0.00     0.030 A 
ATOM     10  C   UNL d   1      27.383 -12.021  -0.595  0.00  0.00     0.050 A 
BRANCH  10  11
ATOM     11  N   UNL d   1      27.615 -12.345  -1.965  0.00  0.00    -0.322 N 
ATOM     12  C   UNL d   1      26.666 -12.942  -2.788  0.00  0.00     0.256 C 
ATOM     13  O   UNL d   1      25.468 -12.908  -2.564  0.00  0.00    -0.267 OA
ATOM     14  H   UNL d   1      28.333 -11.828  -2.454  0.00  0.00     0.169 HD
BRANCH  12  15
ATOM     15  C   UNL d   1      27.174 -13.622  -3.986  0.00  0.00     0.039 C 
ATOM     16  C   UNL d   1      27.433 -15.008  -4.243  0.00  0.00     0.024 C 
ATOM     17  C   UNL d   1      28.061 -15.201  -5.459  0.00  0.00     0.050 C 
ATOM     18  S   UNL d   1      28.156 -13.762  -6.376  0.00  0.00    -0.113 SA
ATOM     19  C   UNL d   1      27.395 -12.878  -5.139  0.00  0.00     0.066 C 
ENDBRANCH  12  15
ENDBRANCH  10  11
ENDBRANCH   2   5
BRANCH   1  20
ATOM     20  C   UNL d   1      25.426 -16.216  -0.455  0.00  0.00     0.035 A 
ATOM     21  C   UNL d   1      26.296 -17.277  -0.166  0.00  0.00     0.029 A 
ATOM     22  C   UNL d   1      25.788 -18.574   0.004  0.00  0.00     0.003 A 
ATOM     23  C   UNL d   1      24.422 -18.825  -0.158  0.00  0.00     0.017 A 
ATOM     24  C   UNL d   1      23.568 -17.785  -0.521  0.00  0.00     0.034 A 
ATOM     25  C   UNL d   1      24.084 -16.509  -0.700  0.00  0.00     0.046 A 
BRANCH  24  26
ATOM     26  C   UNL d   1      22.093 -17.954  -0.499  0.00  0.00     0.251 C 
ATOM     27  N   UNL d   1      21.591 -19.172  -0.069  0.00  0.00    -0.357 N 
ATOM     28  H   UNL d   1      22.220 -19.907   0.233  0.00  0.00     0.162 HD
ATOM     29  O   UNL d   1      21.388 -17.031  -0.895  0.00  0.00    -0.268 OA
BRANCH  27  30
ATOM     30  C   UNL d   1      20.161 -19.421  -0.092  0.00  0.00     0.122 C 
BRANCH  30  31
ATOM     31  C   UNL d   1      19.638 -20.015   1.213  0.00  0.00     0.015 C 
ATOM     32  C   UNL d   1      18.658 -21.150   0.948  0.00  0.00     0.006 C 
ENDBRANCH  30  31
ENDBRANCH  27  30
ENDBRANCH  24  26
ENDBRANCH   1  20
TORSDOF 7
ENDMDL
MODEL 9
REMARK VINA RESULT:    -8.252      1.363      1.718
REMARK INTER + INTRA:         -11.744
REMARK INTER:                 -10.340
REMARK INTRA:                  -1.404
REMARK CONF_INDEPENDENT:        2.088
REMARK UNBOUND:                -1.404
REMARK  7 active torsions:
REMARK  status: ('A' for Active; 'I' for Inactive)
REMARK    1  A    between atoms: C_2  and  C_3 
REMARK    2  A    between atoms: C_3  and  N_4 
REMARK       I    between atoms: N_4  and  C_5 
REMARK    3  A    between atoms: C_5  and  C_7 
REMARK    4  A    between atoms: C_11  and  N_12 
REMARK       I    between atoms: N_12  and  C_13 
REMARK    5  A    between atoms: C_13  and  C_15 
REMARK    6  A    between atoms: C_20  and  N_21 
REMARK       I    between atoms: N_21  and  C_22 
REMARK    7  A    between atoms: C_22  and  C_24 
ROOT
ATOM      1  N   UNL d   1      26.518 -14.805  -3.075  0.00  0.00    -0.323 N 
ATOM      2  C   UNL d   1      26.528 -14.982  -4.461  0.00  0.00     0.258 C 
ATOM      3  O   UNL d   1      26.008 -15.897  -5.097  0.00  0.00    -0.267 OA
ATOM      4  H   UNL d   1      26.939 -13.966  -2.698  0.00  0.00     0.169 HD
ENDROOT
BRANCH   2   5
ATOM      5  C   UNL d   1      27.270 -14.009  -5.291  0.00  0.00     0.059 A 
ATOM      6  C   UNL d   1      26.709 -12.714  -5.296  0.00  0.00     0.019 A 
ATOM      7  C   UNL d   1      27.199 -11.723  -6.136  0.00  0.00     0.001 A 
ATOM      8  C   UNL d   1      28.305 -11.999  -6.930  0.00  0.00     0.002 A 
ATOM      9  C   UNL d   1      28.876 -13.286  -6.934  0.00  0.00     0.030 A 
ATOM     10  C   UNL d   1      28.349 -14.324  -6.141  0.00  0.00     0.050 A 
BRANCH  10  11
ATOM     11  N   UNL d   1      28.957 -15.611  -6.241  0.00  0.00    -0.322 N 
ATOM     12  C   UNL d   1      29.753 -16.167  -5.245  0.00  0.00     0.256 C 
ATOM     13  O   UNL d   1      29.711 -15.815  -4.079  0.00  0.00    -0.267 OA
ATOM     14  H   UNL d   1      28.536 -16.281  -6.870  0.00  0.00     0.169 HD
BRANCH  12  15
ATOM     15  C   UNL d   1      30.660 -17.243  -5.659  0.00  0.00     0.039 C 
ATOM     16  C   UNL d   1      30.407 -18.619  -5.974  0.00  0.00     0.024 C 
ATOM     17  C   UNL d   1      31.577 -19.330  -6.166  0.00  0.00     0.050 C 
ATOM     18  S   UNL d   1      32.956 -18.322  -6.172  0.00  0.00    -0.113 SA
ATOM     19  C   UNL d   1      31.999 -16.946  -5.883  0.00  0.00     0.066 C 
ENDBRANCH  12  15
ENDBRANCH  10  11
ENDBRANCH   2   5
BRANCH   1  20
ATOM     20  C   UNL d   1      26.215 -15.848  -2.155  0.00  0.00     0.035 A 
ATOM     21  C   UNL d   1      27.229 -16.434  -1.386  0.00  0.00     0.029 A 
ATOM     22  C   UNL d   1      26.907 -17.387  -0.408  0.00  0.00     0.003 A 
ATOM     23  C   UNL d   1      25.580 -17.791  -0.225  0.00  0.00     0.017 A 
ATOM     24  C   UNL d   1      24.580 -17.265  -1.042  0.00  0.00     0.034 A 
ATOM     25  C   UNL d   1      24.914 -16.333  -2.016  0.00  0.00     0.046 A 
BRANCH  24  26
ATOM     26  C   UNL d   1      23.144 -17.500  -0.752  0.00  0.00     0.251 C 
ATOM     27  N   UNL d   1      22.588 -18.695  -1.177  0.00  0.00    -0.357 N 
ATOM     28  H   UNL d   1      23.159 -19.384  -1.653  0.00  0.00     0.162 HD
ATOM     29  O   UNL d   1      22.505 -16.617  -0.187  0.00  0.00    -0.268 OA
BRANCH  27  30
ATOM     30  C   UNL d   1      21.172 -18.952  -0.983  0.00  0.00     0.122 C 
BRANCH  30  31
ATOM     31  C   UNL d   1      20.837 -19.413   0.432  0.00  0.00     0.015 C 
ATOM     32  C   UNL d   1      19.458 -20.056   0.490  0.00  0.00     0.006 C 
ENDBRANCH  30  31
ENDBRANCH  27  30
ENDBRANCH  24  26
ENDBRANCH   1  20
TORSDOF 7
ENDMDL
