MODEL 1
REMARK VINA RESULT:    -6.865      0.000      0.000
REMARK INTER + INTRA:          -8.067
REMARK INTER:                  -7.760
REMARK INTRA:                  -0.307
REMARK CONF_INDEPENDENT:        0.895
REMARK UNBOUND:                -0.307
REMARK  3 active torsions:
REMARK  status: ('A' for Active; 'I' for Inactive)
REMARK       I    between atoms: N_1  and  C_2 
REMARK       I    between atoms: C_2  and  N_4 
REMARK    1  A    between atoms: N_4  and  C_5 
REMARK    2  A    between atoms: C_8  and  O_9 
REMARK    3  A    between atoms: O_9  and  C_10 
ROOT
ATOM      1  C   UNL d   1      22.673 -18.569  -0.208  0.00  0.00     0.036 A 
ATOM      2  C   UNL d   1      22.365 -17.234  -0.491  0.00  0.00     0.032 A 
ATOM      3  C   UNL d   1      23.400 -16.298  -0.698  0.00  0.00     0.039 A 
ATOM      4  C   UNL d   1      24.743 -16.683  -0.579  0.00  0.00     0.076 A 
ATOM      5  C   UNL d   1      25.030 -18.021  -0.319  0.00  0.00     0.039 A 
ATOM      6  C   UNL d   1      24.010 -18.949  -0.144  0.00  0.00     0.032 A 
ENDROOT
BRANCH   4   7
ATOM      7  O   UNL d   1      25.698 -15.687  -0.666  0.00  0.00    -0.304 OA
BRANCH   7   8
ATOM      8  C   UNL d   1      25.880 -15.034  -1.868  0.00  0.00     0.159 A 
ATOM      9  C   UNL d   1      26.285 -13.698  -1.867  0.00  0.00     0.195 A 
ATOM     10  F   UNL d   1      26.618 -13.088  -0.719  0.00  0.00    -0.200 F 
ATOM     11  C   UNL d   1      26.376 -12.986  -3.064  0.00  0.00     0.199 A 
ATOM     12  F   UNL d   1      26.652 -11.673  -3.050  0.00  0.00    -0.199 F 
ATOM     13  C   UNL d   1      26.151 -13.627  -4.276  0.00  0.00     0.199 A 
ATOM     14  F   UNL d   1      26.319 -12.967  -5.430  0.00  0.00    -0.199 F 
ATOM     15  C   UNL d   1      25.757 -14.955  -4.288  0.00  0.00     0.199 A 
ATOM     16  F   UNL d   1      25.531 -15.579  -5.452  0.00  0.00    -0.199 F 
ATOM     17  C   UNL d   1      25.582 -15.642  -3.092  0.00  0.00     0.195 A 
ATOM     18  F   UNL d   1      25.179 -16.920  -3.132  0.00  0.00    -0.200 F 
ENDBRANCH   7   8
ENDBRANCH   4   7
BRANCH   1  19
ATOM     19  N   UNL d   1      21.667 -19.545  -0.031  0.00  0.00    -0.309 N 
ATOM     20  C   UNL d   1      20.359 -19.331  -0.389  0.00  0.00     0.318 C 
ATOM     21  N   UNL d   1      19.512 -20.345  -0.097  0.00  0.00    -0.352 N 
ATOM     22  O   UNL d   1      19.907 -18.338  -0.963  0.00  0.00    -0.247 OA
ATOM     23  H   UNL d   1      18.549 -20.199  -0.373  0.00  0.00     0.160 HD
ATOM     24  H   UNL d   1      19.753 -21.183   0.403  0.00  0.00     0.160 HD
ATOM     25  H   UNL d   1      21.947 -20.478   0.230  0.00  0.00     0.170 HD
ENDBRANCH   1  19
TORSDOF 3
ENDMDL
MODEL 2
REMARK VINA RESULT:    -6.859      0.236      2.494
REMARK INTER + INTRA:          -8.149
REMARK INTER:                  -7.754
REMARK INTRA:                  -0.394
REMARK CONF_INDEPENDENT:        0.895
REMARK UNBOUND:                -0.394
REMARK  3 active torsions:
REMARK  status: ('A' for Active; 'I' for Inactive)
REMARK       I    between atoms: N_1  and  C_2 
REMARK       I    between atoms: C_2  and  N_4 
REMARK    1  A    between atoms: N_4  and  C_5 
REMARK    2  A    between atoms: C_8  and  O_9 
REMARK    3  A    between atoms: O_9  and  C_10 
ROOT
ATOM      1  C   UNL d   1      22.689 -18.577  -0.233  0.00  0.00     0.036 A 
ATOM      2  C   UNL d   1      24.015 -19.013  -0.145  0.00  0.00     0.032 A 
ATOM      3  C   UNL d   1      25.072 -18.084  -0.240  0.00  0.00     0.039 A 
ATOM      4  C   UNL d   1      24.809 -16.726  -0.468  0.00  0.00     0.076 A 
ATOM      5  C   UNL d   1      23.482 -16.308  -0.530  0.00  0.00     0.039 A 
ATOM      6  C   UNL d   1      22.440 -17.219  -0.406  0.00  0.00     0.032 A 
ENDROOT
BRANCH   4   7
ATOM      7  O   UNL d   1      25.895 -15.897  -0.681  0.00  0.00    -0.304 OA
BRANCH   7   8
ATOM      8  C   UNL d   1      25.900 -15.066  -1.783  0.00  0.00     0.159 A 
ATOM      9  C   UNL d   1      25.583 -15.591  -3.038  0.00  0.00     0.195 A 
ATOM     10  F   UNL d   1      25.155 -16.857  -3.158  0.00  0.00    -0.200 F 
ATOM     11  C   UNL d   1      25.682 -14.797  -4.181  0.00  0.00     0.199 A 
ATOM     12  F   UNL d   1      25.490 -15.334  -5.395  0.00  0.00    -0.199 F 
ATOM     13  C   UNL d   1      26.009 -13.451  -4.070  0.00  0.00     0.199 A 
ATOM     14  F   UNL d   1      26.023 -12.668  -5.157  0.00  0.00    -0.199 F 
ATOM     15  C   UNL d   1      26.317 -12.919  -2.828  0.00  0.00     0.199 A 
ATOM     16  F   UNL d   1      26.640 -11.624  -2.713  0.00  0.00    -0.199 F 
ATOM     17  C   UNL d   1      26.303 -13.730  -1.699  0.00  0.00     0.195 A 
ATOM     18  F   UNL d   1      26.626 -13.194  -0.514  0.00  0.00    -0.200 F 
ENDBRANCH   7   8
ENDBRANCH   4   7
BRANCH   1  19
ATOM     19  N   UNL d   1      21.601 -19.469  -0.105  0.00  0.00    -0.309 N 
ATOM     20  C   UNL d   1      20.353 -19.189  -0.602  0.00  0.00     0.318 C 
ATOM     21  N   UNL d   1      19.410 -20.123  -0.341  0.00  0.00    -0.352 N 
ATOM     22  O   UNL d   1      20.032 -18.204  -1.270  0.00  0.00    -0.247 OA
ATOM     23  H   UNL d   1      18.490 -19.929  -0.718  0.00  0.00     0.160 HD
ATOM     24  H   UNL d   1      19.539 -20.945   0.223  0.00  0.00     0.160 HD
ATOM     25  H   UNL d   1      21.786 -20.402   0.232  0.00  0.00     0.170 HD
ENDBRANCH   1  19
TORSDOF 3
ENDMDL
MODEL 3
REMARK VINA RESULT:    -6.800      1.566      2.159
REMARK INTER + INTRA:          -8.049
REMARK INTER:                  -7.695
REMARK INTRA:                  -0.354
REMARK CONF_INDEPENDENT:        0.895
REMARK UNBOUND:                -0.354
REMARK  3 active torsions:
REMARK  status: ('A' for Active; 'I' for Inactive)
REMARK       I    between atoms: N_1  and  C_2 
REMARK       I    between atoms: C_2  and  N_4 
REMARK    1  A    between atoms: N_4  and  C_5 
REMARK    2  A    between atoms: C_8  and  O_9 
REMARK    3  A    between atoms: O_9  and  C_10 
ROOT
ATOM      1  C   UNL d   1      22.735 -18.537  -0.274  0.00  0.00     0.036 A 
ATOM      2  C   UNL d   1      24.063 -18.956  -0.144  0.00  0.00     0.032 A 
ATOM      3  C   UNL d   1      25.114 -18.022  -0.267  0.00  0.00     0.039 A 
ATOM      4  C   UNL d   1      24.842 -16.679  -0.563  0.00  0.00     0.076 A 
ATOM      5  C   UNL d   1      23.513 -16.277  -0.666  0.00  0.00     0.039 A 
ATOM      6  C   UNL d   1      22.477 -17.191  -0.516  0.00  0.00     0.032 A 
ENDROOT
BRANCH   4   7
ATOM      7  O   UNL d   1      25.924 -15.850  -0.798  0.00  0.00    -0.304 OA
BRANCH   7   8
ATOM      8  C   UNL d   1      26.269 -15.549  -2.100  0.00  0.00     0.159 A 
ATOM      9  C   UNL d   1      27.518 -15.944  -2.586  0.00  0.00     0.195 A 
ATOM     10  F   UNL d   1      28.324 -16.716  -1.844  0.00  0.00    -0.200 F 
ATOM     11  C   UNL d   1      27.931 -15.561  -3.863  0.00  0.00     0.199 A 
ATOM     12  F   UNL d   1      29.174 -15.842  -4.283  0.00  0.00    -0.199 F 
ATOM     13  C   UNL d   1      27.067 -14.862  -4.696  0.00  0.00     0.199 A 
ATOM     14  F   UNL d   1      27.431 -14.566  -5.952  0.00  0.00    -0.199 F 
ATOM     15  C   UNL d   1      25.823 -14.472  -4.226  0.00  0.00     0.199 A 
ATOM     16  F   UNL d   1      24.987 -13.791  -5.020  0.00  0.00    -0.199 F 
ATOM     17  C   UNL d   1      25.443 -14.778  -2.924  0.00  0.00     0.195 A 
ATOM     18  F   UNL d   1      24.243 -14.371  -2.488  0.00  0.00    -0.200 F 
ENDBRANCH   7   8
ENDBRANCH   4   7
BRANCH   1  19
ATOM     19  N   UNL d   1      21.653 -19.433  -0.121  0.00  0.00    -0.309 N 
ATOM     20  C   UNL d   1      20.396 -19.162  -0.599  0.00  0.00     0.318 C 
ATOM     21  N   UNL d   1      19.461 -20.098  -0.315  0.00  0.00    -0.352 N 
ATOM     22  O   UNL d   1      20.059 -18.184  -1.269  0.00  0.00    -0.247 OA
ATOM     23  H   UNL d   1      18.535 -19.911  -0.679  0.00  0.00     0.160 HD
ATOM     24  H   UNL d   1      19.603 -20.915   0.254  0.00  0.00     0.160 HD
ATOM     25  H   UNL d   1      21.848 -20.363   0.221  0.00  0.00     0.170 HD
ENDBRANCH   1  19
TORSDOF 3
ENDMDL
MODEL 4
REMARK VINA RESULT:    -6.779      1.598      1.936
REMARK INTER + INTRA:          -8.074
REMARK INTER:                  -7.674
REMARK INTRA:                  -0.401
REMARK CONF_INDEPENDENT:        0.895
REMARK UNBOUND:                -0.401
REMARK  3 active torsions:
REMARK  status: ('A' for Active; 'I' for Inactive)
REMARK       I    between atoms: N_1  and  C_2 
REMARK       I    between atoms: C_2  and  N_4 
REMARK    1  A    between atoms: N_4  and  C_5 
REMARK    2  A    between atoms: C_8  and  O_9 
REMARK    3  A    between atoms: O_9  and  C_10 
ROOT
ATOM      1  C   UNL d   1      22.701 -18.459  -0.195  0.00  0.00     0.036 A 
ATOM      2  C   UNL d   1      22.502 -17.119  -0.543  0.00  0.00     0.032 A 
ATOM      3  C   UNL d   1      23.608 -16.289  -0.824  0.00  0.00     0.039 A 
ATOM      4  C   UNL d   1      24.916 -16.784  -0.715  0.00  0.00     0.076 A 
ATOM      5  C   UNL d   1      25.093 -18.127  -0.390  0.00  0.00     0.039 A 
ATOM      6  C   UNL d   1      24.002 -18.951  -0.142  0.00  0.00     0.032 A 
ENDROOT
BRANCH   4   7
ATOM      7  O   UNL d   1      25.951 -15.882  -0.877  0.00  0.00    -0.304 OA
BRANCH   7   8
ATOM      8  C   UNL d   1      26.342 -15.532  -2.153  0.00  0.00     0.159 A 
ATOM      9  C   UNL d   1      27.590 -15.947  -2.625  0.00  0.00     0.195 A 
ATOM     10  F   UNL d   1      28.349 -16.781  -1.898  0.00  0.00    -0.200 F 
ATOM     11  C   UNL d   1      28.053 -15.520  -3.870  0.00  0.00     0.199 A 
ATOM     12  F   UNL d   1      29.297 -15.824  -4.270  0.00  0.00    -0.199 F 
ATOM     13  C   UNL d   1      27.237 -14.753  -4.692  0.00  0.00     0.199 A 
ATOM     14  F   UNL d   1      27.646 -14.412  -5.922  0.00  0.00    -0.199 F 
ATOM     15  C   UNL d   1      25.994 -14.343  -4.237  0.00  0.00     0.199 A 
ATOM     16  F   UNL d   1      25.203 -13.597  -5.020  0.00  0.00    -0.199 F 
ATOM     17  C   UNL d   1      25.567 -14.695  -2.962  0.00  0.00     0.195 A 
ATOM     18  F   UNL d   1      24.369 -14.267  -2.539  0.00  0.00    -0.200 F 
ENDBRANCH   7   8
ENDBRANCH   4   7
BRANCH   1  19
ATOM     19  N   UNL d   1      21.620 -19.331   0.058  0.00  0.00    -0.309 N 
ATOM     20  C   UNL d   1      20.370 -19.131  -0.472  0.00  0.00     0.318 C 
ATOM     21  N   UNL d   1      19.433 -20.026  -0.082  0.00  0.00    -0.352 N 
ATOM     22  O   UNL d   1      20.041 -18.250  -1.270  0.00  0.00    -0.247 OA
ATOM     23  H   UNL d   1      18.512 -19.892  -0.482  0.00  0.00     0.160 HD
ATOM     24  H   UNL d   1      19.567 -20.760   0.591  0.00  0.00     0.160 HD
ATOM     25  H   UNL d   1      21.811 -20.207   0.521  0.00  0.00     0.170 HD
ENDBRANCH   1  19
TORSDOF 3
ENDMDL
MODEL 5
REMARK VINA RESULT:    -6.728      0.956      1.642
REMARK INTER + INTRA:          -8.174
REMARK INTER:                  -7.623
REMARK INTRA:                  -0.551
REMARK CONF_INDEPENDENT:        0.895
REMARK UNBOUND:                -0.551
REMARK  3 active torsions:
REMARK  status: ('A' for Active; 'I' for Inactive)
REMARK       I    between atoms: N_1  and  C_2 
REMARK       I    between atoms: C_2  and  N_4 
REMARK    1  A    between atoms: N_4  and  C_5 
REMARK    2  A    between atoms: C_8  and  O_9 
REMARK    3  A    between atoms: O_9  and  C_10 
ROOT
ATOM      1  C   UNL d   1      22.180 -18.237  -0.306  0.00  0.00     0.036 A 
ATOM      2  C   UNL d   1      23.295 -19.079  -0.255  0.00  0.00     0.032 A 
ATOM      3  C   UNL d   1      24.582 -18.566  -0.520  0.00  0.00     0.039 A 
ATOM      4  C   UNL d   1      24.752 -17.222  -0.880  0.00  0.00     0.076 A 
ATOM      5  C   UNL d   1      23.633 -16.393  -0.902  0.00  0.00     0.039 A 
ATOM      6  C   UNL d   1      22.369 -16.892  -0.613  0.00  0.00     0.032 A 
ENDROOT
BRANCH   4   7
ATOM      7  O   UNL d   1      26.022 -16.821  -1.251  0.00  0.00    -0.304 OA
BRANCH   7   8
ATOM      8  C   UNL d   1      26.195 -15.573  -1.815  0.00  0.00     0.159 A 
ATOM      9  C   UNL d   1      26.577 -14.502  -1.003  0.00  0.00     0.195 A 
ATOM     10  F   UNL d   1      26.897 -14.703   0.283  0.00  0.00    -0.200 F 
ATOM     11  C   UNL d   1      26.657 -13.211  -1.529  0.00  0.00     0.199 A 
ATOM     12  F   UNL d   1      26.911 -12.169  -0.723  0.00  0.00    -0.199 F 
ATOM     13  C   UNL d   1      26.447 -12.996  -2.885  0.00  0.00     0.199 A 
ATOM     14  F   UNL d   1      26.605 -11.771  -3.406  0.00  0.00    -0.199 F 
ATOM     15  C   UNL d   1      26.075 -14.053  -3.700  0.00  0.00     0.199 A 
ATOM     16  F   UNL d   1      25.863 -13.852  -5.007  0.00  0.00    -0.199 F 
ATOM     17  C   UNL d   1      25.911 -15.324  -3.161  0.00  0.00     0.195 A 
ATOM     18  F   UNL d   1      25.530 -16.325  -3.968  0.00  0.00    -0.200 F 
ENDBRANCH   7   8
ENDBRANCH   4   7
BRANCH   1  19
ATOM     19  N   UNL d   1      20.879 -18.703  -0.011  0.00  0.00    -0.309 N 
ATOM     20  C   UNL d   1      20.104 -19.362  -0.932  0.00  0.00     0.318 C 
ATOM     21  N   UNL d   1      18.862 -19.688  -0.506  0.00  0.00    -0.352 N 
ATOM     22  O   UNL d   1      20.441 -19.700  -2.069  0.00  0.00    -0.247 OA
ATOM     23  H   UNL d   1      18.291 -20.188  -1.177  0.00  0.00     0.160 HD
ATOM     24  H   UNL d   1      18.460 -19.434   0.379  0.00  0.00     0.160 HD
ATOM     25  H   UNL d   1      20.570 -18.680   0.949  0.00  0.00     0.170 HD
ENDBRANCH   1  19
TORSDOF 3
ENDMDL
MODEL 6
REMARK VINA RESULT:    -6.725      1.851      2.278
REMARK INTER + INTRA:          -8.044
REMARK INTER:                  -7.620
REMARK INTRA:                  -0.424
REMARK CONF_INDEPENDENT:        0.895
REMARK UNBOUND:                -0.424
REMARK  3 active torsions:
REMARK  status: ('A' for Active; 'I' for Inactive)
REMARK       I    between atoms: N_1  and  C_2 
REMARK       I    between atoms: C_2  and  N_4 
REMARK    1  A    between atoms: N_4  and  C_5 
REMARK    2  A    between atoms: C_8  and  O_9 
REMARK    3  A    between atoms: O_9  and  C_10 
ROOT
ATOM      1  C   UNL d   1      22.724 -18.476  -0.229  0.00  0.00     0.036 A 
ATOM      2  C   UNL d   1      22.514 -17.128  -0.537  0.00  0.00     0.032 A 
ATOM      3  C   UNL d   1      23.614 -16.272  -0.752  0.00  0.00     0.039 A 
ATOM      4  C   UNL d   1      24.925 -16.750  -0.617  0.00  0.00     0.076 A 
ATOM      5  C   UNL d   1      25.114 -18.100  -0.333  0.00  0.00     0.039 A 
ATOM      6  C   UNL d   1      24.030 -18.950  -0.150  0.00  0.00     0.032 A 
ENDROOT
BRANCH   4   7
ATOM      7  O   UNL d   1      25.950 -15.826  -0.714  0.00  0.00    -0.304 OA
BRANCH   7   8
ATOM      8  C   UNL d   1      26.619 -15.689  -1.912  0.00  0.00     0.159 A 
ATOM      9  C   UNL d   1      25.926 -15.230  -3.035  0.00  0.00     0.195 A 
ATOM     10  F   UNL d   1      24.658 -14.808  -2.927  0.00  0.00    -0.200 F 
ATOM     11  C   UNL d   1      26.553 -15.182  -4.281  0.00  0.00     0.199 A 
ATOM     12  F   UNL d   1      25.853 -14.852  -5.377  0.00  0.00    -0.199 F 
ATOM     13  C   UNL d   1      27.900 -15.502  -4.398  0.00  0.00     0.199 A 
ATOM     14  F   UNL d   1      28.524 -15.376  -5.577  0.00  0.00    -0.199 F 
ATOM     15  C   UNL d   1      28.598 -15.950  -3.288  0.00  0.00     0.199 A 
ATOM     16  F   UNL d   1      29.896 -16.267  -3.393  0.00  0.00    -0.199 F 
ATOM     17  C   UNL d   1      27.953 -16.081  -2.064  0.00  0.00     0.195 A 
ATOM     18  F   UNL d   1      28.647 -16.537  -1.012  0.00  0.00    -0.200 F 
ENDBRANCH   7   8
ENDBRANCH   4   7
BRANCH   1  19
ATOM     19  N   UNL d   1      21.650 -19.375  -0.043  0.00  0.00    -0.309 N 
ATOM     20  C   UNL d   1      20.395 -19.140  -0.548  0.00  0.00     0.318 C 
ATOM     21  N   UNL d   1      19.466 -20.071  -0.228  0.00  0.00    -0.352 N 
ATOM     22  O   UNL d   1      20.057 -18.200  -1.270  0.00  0.00    -0.247 OA
ATOM     23  H   UNL d   1      18.542 -19.911  -0.610  0.00  0.00     0.160 HD
ATOM     24  H   UNL d   1      19.610 -20.856   0.383  0.00  0.00     0.160 HD
ATOM     25  H   UNL d   1      21.849 -20.284   0.346  0.00  0.00     0.170 HD
ENDBRANCH   1  19
TORSDOF 3
ENDMDL
MODEL 7
REMARK VINA RESULT:    -6.714      0.940      2.622
REMARK INTER + INTRA:          -8.155
REMARK INTER:                  -7.609
REMARK INTRA:                  -0.546
REMARK CONF_INDEPENDENT:        0.895
REMARK UNBOUND:                -0.546
REMARK  3 active torsions:
REMARK  status: ('A' for Active; 'I' for Inactive)
REMARK       I    between atoms: N_1  and  C_2 
REMARK       I    between atoms: C_2  and  N_4 
REMARK    1  A    between atoms: N_4  and  C_5 
REMARK    2  A    between atoms: C_8  and  O_9 
REMARK    3  A    between atoms: O_9  and  C_10 
ROOT
ATOM      1  C   UNL d   1      22.139 -18.293  -0.278  0.00  0.00     0.036 A 
ATOM      2  C   UNL d   1      23.271 -19.114  -0.237  0.00  0.00     0.032 A 
ATOM      3  C   UNL d   1      24.545 -18.576  -0.518  0.00  0.00     0.039 A 
ATOM      4  C   UNL d   1      24.685 -17.229  -0.882  0.00  0.00     0.076 A 
ATOM      5  C   UNL d   1      23.550 -16.423  -0.894  0.00  0.00     0.039 A 
ATOM      6  C   UNL d   1      22.299 -16.946  -0.589  0.00  0.00     0.032 A 
ENDROOT
BRANCH   4   7
ATOM      7  O   UNL d   1      25.943 -16.805  -1.269  0.00  0.00    -0.304 OA
BRANCH   7   8
ATOM      8  C   UNL d   1      26.096 -15.529  -1.771  0.00  0.00     0.159 A 
ATOM      9  C   UNL d   1      25.943 -15.309  -3.142  0.00  0.00     0.195 A 
ATOM     10  F   UNL d   1      25.528 -16.298  -3.947  0.00  0.00    -0.200 F 
ATOM     11  C   UNL d   1      26.195 -14.049  -3.688  0.00  0.00     0.199 A 
ATOM     12  F   UNL d   1      26.160 -13.870  -5.017  0.00  0.00    -0.199 F 
ATOM     13  C   UNL d   1      26.511 -12.980  -2.859  0.00  0.00     0.199 A 
ATOM     14  F   UNL d   1      26.670 -11.752  -3.372  0.00  0.00    -0.199 F 
ATOM     15  C   UNL d   1      26.656 -13.186  -1.497  0.00  0.00     0.199 A 
ATOM     16  F   UNL d   1      26.968 -12.162  -0.691  0.00  0.00    -0.199 F 
ATOM     17  C   UNL d   1      26.491 -14.458  -0.962  0.00  0.00     0.195 A 
ATOM     18  F   UNL d   1      26.659 -14.634   0.356  0.00  0.00    -0.200 F 
ENDBRANCH   7   8
ENDBRANCH   4   7
BRANCH   1  19
ATOM     19  N   UNL d   1      20.852 -18.784   0.033  0.00  0.00    -0.309 N 
ATOM     20  C   UNL d   1      20.058 -19.412  -0.893  0.00  0.00     0.318 C 
ATOM     21  N   UNL d   1      18.830 -19.768  -0.448  0.00  0.00    -0.352 N 
ATOM     22  O   UNL d   1      20.365 -19.700  -2.052  0.00  0.00    -0.247 OA
ATOM     23  H   UNL d   1      18.245 -20.246  -1.123  0.00  0.00     0.160 HD
ATOM     24  H   UNL d   1      18.451 -19.554   0.458  0.00  0.00     0.160 HD
ATOM     25  H   UNL d   1      20.569 -18.804   1.001  0.00  0.00     0.170 HD
ENDBRANCH   1  19
TORSDOF 3
ENDMDL
MODEL 8
REMARK VINA RESULT:    -6.325      1.429      2.966
REMARK INTER + INTRA:          -7.768
REMARK INTER:                  -7.220
REMARK INTRA:                  -0.548
REMARK CONF_INDEPENDENT:        0.895
REMARK UNBOUND:                -0.548
REMARK  3 active torsions:
REMARK  status: ('A' for Active; 'I' for Inactive)
REMARK       I    between atoms: N_1  and  C_2 
REMARK       I    between atoms: C_2  and  N_4 
REMARK    1  A    between atoms: N_4  and  C_5 
REMARK    2  A    between atoms: C_8  and  O_9 
REMARK    3  A    between atoms: O_9  and  C_10 
ROOT
ATOM      1  C   UNL d   1      22.437 -18.413  -0.158  0.00  0.00     0.036 A 
ATOM      2  C   UNL d   1      23.731 -18.943  -0.176  0.00  0.00     0.032 A 
ATOM      3  C   UNL d   1      24.793 -18.198  -0.731  0.00  0.00     0.039 A 
ATOM      4  C   UNL d   1      24.556 -16.942  -1.307  0.00  0.00     0.076 A 
ATOM      5  C   UNL d   1      23.265 -16.421  -1.259  0.00  0.00     0.039 A 
ATOM      6  C   UNL d   1      22.225 -17.143  -0.686  0.00  0.00     0.032 A 
ENDROOT
BRANCH   4   7
ATOM      7  O   UNL d   1      25.617 -16.328  -1.946  0.00  0.00    -0.304 OA
BRANCH   7   8
ATOM      8  C   UNL d   1      26.053 -15.099  -1.495  0.00  0.00     0.159 A 
ATOM      9  C   UNL d   1      25.989 -13.994  -2.347  0.00  0.00     0.195 A 
ATOM     10  F   UNL d   1      25.396 -14.092  -3.545  0.00  0.00    -0.200 F 
ATOM     11  C   UNL d   1      26.519 -12.765  -1.950  0.00  0.00     0.199 A 
ATOM     12  F   UNL d   1      26.561 -11.738  -2.812  0.00  0.00    -0.199 F 
ATOM     13  C   UNL d   1      27.032 -12.606  -0.669  0.00  0.00     0.199 A 
ATOM     14  F   UNL d   1      27.465 -11.406  -0.259  0.00  0.00    -0.199 F 
ATOM     15  C   UNL d   1      27.093 -13.695   0.186  0.00  0.00     0.199 A 
ATOM     16  F   UNL d   1      27.593 -13.553   1.421  0.00  0.00    -0.199 F 
ATOM     17  C   UNL d   1      26.644 -14.941  -0.237  0.00  0.00     0.195 A 
ATOM     18  F   UNL d   1      26.734 -15.981   0.603  0.00  0.00    -0.200 F 
ENDBRANCH   7   8
ENDBRANCH   4   7
BRANCH   1  19
ATOM     19  N   UNL d   1      21.354 -19.112   0.421  0.00  0.00    -0.309 N 
ATOM     20  C   UNL d   1      20.345 -19.663  -0.328  0.00  0.00     0.318 C 
ATOM     21  N   UNL d   1      19.354 -20.245   0.386  0.00  0.00    -0.352 N 
ATOM     22  O   UNL d   1      20.279 -19.700  -1.559  0.00  0.00    -0.247 OA
ATOM     23  H   UNL d   1      18.614 -20.667  -0.162  0.00  0.00     0.160 HD
ATOM     24  H   UNL d   1      19.276 -20.245   1.388  0.00  0.00     0.160 HD
ATOM     25  H   UNL d   1      21.402 -19.338   1.403  0.00  0.00     0.170 HD
ENDBRANCH   1  19
TORSDOF 3
ENDMDL
MODEL 9
REMARK VINA RESULT:    -6.121      2.352      2.806
REMARK INTER + INTRA:          -7.429
REMARK INTER:                  -7.016
REMARK INTRA:                  -0.414
REMARK CONF_INDEPENDENT:        0.895
REMARK UNBOUND:                -0.414
REMARK  3 active torsions:
REMARK  status: ('A' for Active; 'I' for Inactive)
REMARK       I    between atoms: N_1  and  C_2 
REMARK       I    between atoms: C_2  and  N_4 
REMARK    1  A    between atoms: N_4  and  C_5 
REMARK    2  A    between atoms: C_8  and  O_9 
REMARK    3  A    between atoms: O_9  and  C_10 
ROOT
ATOM      1  C   UNL d   1      22.571 -18.503  -0.317  0.00  0.00     0.036 A 
ATOM      2  C   UNL d   1      22.156 -17.182  -0.517  0.00  0.00     0.032 A 
ATOM      3  C   UNL d   1      23.090 -16.200  -0.911  0.00  0.00     0.039 A 
ATOM      4  C   UNL d   1      24.445 -16.526  -1.063  0.00  0.00     0.076 A 
ATOM      5  C   UNL d   1      24.834 -17.851  -0.882  0.00  0.00     0.039 A 
ATOM      6  C   UNL d   1      23.909 -18.824  -0.522  0.00  0.00     0.032 A 
ENDROOT
BRANCH   4   7
ATOM      7  O   UNL d   1      25.321 -15.489  -1.323  0.00  0.00    -0.304 OA
BRANCH   7   8
ATOM      8  C   UNL d   1      26.608 -15.781  -1.725  0.00  0.00     0.159 A 
ATOM      9  C   UNL d   1      27.543 -16.204  -0.776  0.00  0.00     0.195 A 
ATOM     10  F   UNL d   1      27.167 -16.445   0.488  0.00  0.00    -0.200 F 
ATOM     11  C   UNL d   1      28.876 -16.405  -1.139  0.00  0.00     0.199 A 
ATOM     12  F   UNL d   1      29.793 -16.697  -0.204  0.00  0.00    -0.199 F 
ATOM     13  C   UNL d   1      29.265 -16.277  -2.466  0.00  0.00     0.199 A 
ATOM     14  F   UNL d   1      30.525 -16.551  -2.829  0.00  0.00    -0.199 F 
ATOM     15  C   UNL d   1      28.343 -15.866  -3.416  0.00  0.00     0.199 A 
ATOM     16  F   UNL d   1      28.712 -15.733  -4.697  0.00  0.00    -0.199 F 
ATOM     17  C   UNL d   1      27.035 -15.581  -3.041  0.00  0.00     0.195 A 
ATOM     18  F   UNL d   1      26.170 -15.165  -3.976  0.00  0.00    -0.200 F 
ENDBRANCH   7   8
ENDBRANCH   4   7
BRANCH   1  19
ATOM     19  N   UNL d   1      21.661 -19.523   0.041  0.00  0.00    -0.309 N 
ATOM     20  C   UNL d   1      20.321 -19.451  -0.245  0.00  0.00     0.318 C 
ATOM     21  N   UNL d   1      19.580 -20.484   0.221  0.00  0.00    -0.352 N 
ATOM     22  O   UNL d   1      19.754 -18.571  -0.895  0.00  0.00    -0.247 OA
ATOM     23  H   UNL d   1      18.593 -20.444  -0.000  0.00  0.00     0.160 HD
ATOM     24  H   UNL d   1      19.919 -21.236   0.795  0.00  0.00     0.160 HD
ATOM     25  H   UNL d   1      22.033 -20.395   0.387  0.00  0.00     0.170 HD
ENDBRANCH   1  19
TORSDOF 3
ENDMDL
