MODEL 1
REMARK VINA RESULT:    -7.967      0.000      0.000
REMARK INTER + INTRA:          -9.813
REMARK INTER:                  -9.161
REMARK INTRA:                  -0.652
REMARK CONF_INDEPENDENT:        1.193
REMARK UNBOUND:                -0.652
REMARK  4 active torsions:
REMARK  status: ('A' for Active; 'I' for Inactive)
REMARK    1  A    between atoms: N_1  and  C_2 
REMARK    2  A    between atoms: C_7  and  N_8 
REMARK       I    between atoms: N_8  and  C_9 
REMARK    3  A    between atoms: C_9  and  C_11 
REMARK    4  A    between atoms: C_13  and  C_14 
ROOT
ATOM      1  C   UNL d   1      27.416 -10.573   3.748  0.00  0.00     0.036 C 
ATOM      2  C   UNL d   1      27.219 -10.113   2.432  0.00  0.00     0.030 C 
ATOM      3  C   UNL d   1      27.303 -10.980   1.391  0.00  0.00     0.003 C 
ATOM      4  C   UNL d   1      27.643 -12.269   1.693  0.00  0.00     0.014 C 
ATOM      5  C   UNL d   1      27.736 -12.858   2.936  0.00  0.00     0.003 A 
ATOM      6  C   UNL d   1      27.952 -14.253   3.047  0.00  0.00     0.045 A 
ATOM      7  C   UNL d   1      28.164 -14.754   4.354  0.00  0.00     0.030 A 
ATOM      8  C   UNL d   1      28.117 -13.899   5.475  0.00  0.00     0.003 A 
ATOM      9  C   UNL d   1      27.865 -12.530   5.315  0.00  0.00     0.014 A 
ATOM     10  C   UNL d   1      27.662 -11.969   4.032  0.00  0.00     0.003 A 
ENDROOT
BRANCH   6  11
ATOM     11  N   UNL d   1      27.982 -15.186   1.923  0.00  0.00    -0.326 N 
ATOM     12  C   UNL d   1      27.278 -15.243   0.678  0.00  0.00     0.227 C 
ATOM     13  O   UNL d   1      26.343 -14.645   0.226  0.00  0.00    -0.273 OA
ATOM     14  H   UNL d   1      28.627 -15.950   2.066  0.00  0.00     0.169 HD
BRANCH  12  15
ATOM     15  C   UNL d   1      27.811 -16.278  -0.228  0.00  0.00     0.087 A 
ATOM     16  C   UNL d   1      27.456 -16.638  -1.645  0.00  0.00     0.025 A 
ATOM     17  C   UNL d   1      26.834 -17.435  -0.541  0.00  0.00     0.032 A 
BRANCH  17  18
ATOM     18  C   UNL d   1      25.280 -17.414  -0.436  0.00  0.00    -0.053 A 
ATOM     19  C   UNL d   1      24.592 -18.575  -0.038  0.00  0.00     0.007 A 
ATOM     20  C   UNL d   1      23.197 -18.694  -0.145  0.00  0.00     0.001 A 
ATOM     21  C   UNL d   1      22.428 -17.609  -0.552  0.00  0.00     0.000 A 
ATOM     22  C   UNL d   1      23.060 -16.423  -0.895  0.00  0.00     0.001 A 
ATOM     23  C   UNL d   1      24.460 -16.334  -0.841  0.00  0.00     0.007 A 
ENDBRANCH  17  18
ENDBRANCH  12  15
ENDBRANCH   6  11
BRANCH   1  24
ATOM     24  N   UNL d   1      27.393  -9.593   4.730  0.00  0.00    -0.398 N 
ATOM     25  H   UNL d   1      26.551  -9.492   5.282  0.00  0.00     0.156 HD
ATOM     26  H   UNL d   1      28.204  -9.040   4.944  0.00  0.00     0.156 HD
ENDBRANCH   1  24
TORSDOF 4
ENDMDL
MODEL 2
REMARK VINA RESULT:    -7.914      0.922      2.480
REMARK INTER + INTRA:          -9.687
REMARK INTER:                  -9.107
REMARK INTRA:                  -0.580
REMARK CONF_INDEPENDENT:        1.193
REMARK UNBOUND:                -0.580
REMARK  4 active torsions:
REMARK  status: ('A' for Active; 'I' for Inactive)
REMARK    1  A    between atoms: N_1  and  C_2 
REMARK    2  A    between atoms: C_7  and  N_8 
REMARK       I    between atoms: N_8  and  C_9 
REMARK    3  A    between atoms: C_9  and  C_11 
REMARK    4  A    between atoms: C_13  and  C_14 
ROOT
ATOM      1  C   UNL d   1      28.229 -12.491   6.177  0.00  0.00     0.036 C 
ATOM      2  C   UNL d   1      28.646 -13.721   6.720  0.00  0.00     0.030 C 
ATOM      3  C   UNL d   1      28.691 -14.828   5.937  0.00  0.00     0.003 C 
ATOM      4  C   UNL d   1      28.258 -14.685   4.647  0.00  0.00     0.014 C 
ATOM      5  C   UNL d   1      27.951 -13.520   3.976  0.00  0.00     0.003 A 
ATOM      6  C   UNL d   1      27.667 -13.555   2.589  0.00  0.00     0.045 A 
ATOM      7  C   UNL d   1      27.235 -12.338   2.006  0.00  0.00     0.030 A 
ATOM      8  C   UNL d   1      27.140 -11.159   2.774  0.00  0.00     0.003 A 
ATOM      9  C   UNL d   1      27.467 -11.171   4.137  0.00  0.00     0.014 A 
ATOM     10  C   UNL d   1      27.889 -12.359   4.779  0.00  0.00     0.003 A 
ENDROOT
BRANCH   6  11
ATOM     11  N   UNL d   1      27.775 -14.740   1.742  0.00  0.00    -0.326 N 
ATOM     12  C   UNL d   1      27.297 -15.053   0.429  0.00  0.00     0.227 C 
ATOM     13  O   UNL d   1      26.540 -14.515  -0.328  0.00  0.00    -0.273 OA
ATOM     14  H   UNL d   1      28.283 -15.492   2.185  0.00  0.00     0.169 HD
BRANCH  12  15
ATOM     15  C   UNL d   1      27.846 -16.322  -0.085  0.00  0.00     0.087 A 
ATOM     16  C   UNL d   1      27.582 -17.075  -1.361  0.00  0.00     0.025 A 
ATOM     17  C   UNL d   1      26.839 -17.495  -0.131  0.00  0.00     0.032 A 
BRANCH  17  18
ATOM     18  C   UNL d   1      25.285 -17.405  -0.171  0.00  0.00    -0.053 A 
ATOM     19  C   UNL d   1      24.511 -18.509   0.231  0.00  0.00     0.007 A 
ATOM     20  C   UNL d   1      23.128 -18.579   0.003  0.00  0.00     0.001 A 
ATOM     21  C   UNL d   1      22.449 -17.493  -0.539  0.00  0.00     0.000 A 
ATOM     22  C   UNL d   1      23.163 -16.358  -0.895  0.00  0.00     0.001 A 
ATOM     23  C   UNL d   1      24.554 -16.322  -0.717  0.00  0.00     0.007 A 
ENDBRANCH  17  18
ENDBRANCH  12  15
ENDBRANCH   6  11
BRANCH   1  24
ATOM     24  N   UNL d   1      28.137 -11.443   7.081  0.00  0.00    -0.398 N 
ATOM     25  H   UNL d   1      27.482 -10.698   6.881  0.00  0.00     0.156 HD
ATOM     26  H   UNL d   1      28.648 -11.444   7.945  0.00  0.00     0.156 HD
ENDBRANCH   1  24
TORSDOF 4
ENDMDL
MODEL 3
REMARK VINA RESULT:    -6.720      3.662      5.232
REMARK INTER + INTRA:          -8.874
REMARK INTER:                  -7.913
REMARK INTRA:                  -0.960
REMARK CONF_INDEPENDENT:        1.193
REMARK UNBOUND:                -0.960
REMARK  4 active torsions:
REMARK  status: ('A' for Active; 'I' for Inactive)
REMARK    1  A    between atoms: N_1  and  C_2 
REMARK    2  A    between atoms: C_7  and  N_8 
REMARK       I    between atoms: N_8  and  C_9 
REMARK    3  A    between atoms: C_9  and  C_11 
REMARK    4  A    between atoms: C_13  and  C_14 
ROOT
ATOM      1  C   UNL d   1      26.411 -10.880  -3.328  0.00  0.00     0.036 C 
ATOM      2  C   UNL d   1      27.154 -10.419  -2.224  0.00  0.00     0.030 C 
ATOM      3  C   UNL d   1      27.565 -11.294  -1.271  0.00  0.00     0.003 C 
ATOM      4  C   UNL d   1      27.168 -12.595  -1.421  0.00  0.00     0.014 C 
ATOM      5  C   UNL d   1      26.556 -13.179  -2.509  0.00  0.00     0.003 A 
ATOM      6  C   UNL d   1      26.358 -14.582  -2.544  0.00  0.00     0.045 A 
ATOM      7  C   UNL d   1      25.608 -15.083  -3.635  0.00  0.00     0.030 A 
ATOM      8  C   UNL d   1      25.128 -14.221  -4.643  0.00  0.00     0.003 A 
ATOM      9  C   UNL d   1      25.381 -12.843  -4.580  0.00  0.00     0.014 A 
ATOM     10  C   UNL d   1      26.111 -12.282  -3.506  0.00  0.00     0.003 A 
ENDROOT
BRANCH   6  11
ATOM     11  N   UNL d   1      26.856 -15.521  -1.542  0.00  0.00    -0.326 N 
ATOM     12  C   UNL d   1      26.858 -15.517  -0.111  0.00  0.00     0.227 C 
ATOM     13  O   UNL d   1      26.595 -14.691   0.716  0.00  0.00    -0.273 OA
ATOM     14  H   UNL d   1      27.298 -16.332  -1.951  0.00  0.00     0.169 HD
BRANCH  12  15
ATOM     15  C   UNL d   1      27.298 -16.804   0.459  0.00  0.00     0.087 A 
ATOM     16  C   UNL d   1      27.351 -18.188  -0.131  0.00  0.00     0.025 A 
ATOM     17  C   UNL d   1      26.165 -17.827   0.709  0.00  0.00     0.032 A 
BRANCH  17  18
ATOM     18  C   UNL d   1      24.767 -17.873   0.024  0.00  0.00    -0.053 A 
ATOM     19  C   UNL d   1      24.097 -16.673  -0.276  0.00  0.00     0.007 A 
ATOM     20  C   UNL d   1      22.752 -16.644  -0.675  0.00  0.00     0.001 A 
ATOM     21  C   UNL d   1      22.058 -17.830  -0.896  0.00  0.00     0.000 A 
ATOM     22  C   UNL d   1      22.699 -19.039  -0.672  0.00  0.00     0.001 A 
ATOM     23  C   UNL d   1      24.026 -19.055  -0.215  0.00  0.00     0.007 A 
ENDBRANCH  17  18
ENDBRANCH  12  15
ENDBRANCH   6  11
BRANCH   1  24
ATOM     24  N   UNL d   1      25.967  -9.894  -4.198  0.00  0.00    -0.398 N 
ATOM     25  H   UNL d   1      24.979  -9.856  -4.409  0.00  0.00     0.156 HD
ATOM     26  H   UNL d   1      26.586  -9.191  -4.560  0.00  0.00     0.156 HD
ENDBRANCH   1  24
TORSDOF 4
ENDMDL
MODEL 4
REMARK VINA RESULT:    -6.675      2.053      3.610
REMARK INTER + INTRA:          -8.536
REMARK INTER:                  -7.869
REMARK INTRA:                  -0.667
REMARK CONF_INDEPENDENT:        1.193
REMARK UNBOUND:                -0.667
REMARK  4 active torsions:
REMARK  status: ('A' for Active; 'I' for Inactive)
REMARK    1  A    between atoms: N_1  and  C_2 
REMARK    2  A    between atoms: C_7  and  N_8 
REMARK       I    between atoms: N_8  and  C_9 
REMARK    3  A    between atoms: C_9  and  C_11 
REMARK    4  A    between atoms: C_13  and  C_14 
ROOT
ATOM      1  C   UNL d   1      28.113 -12.518   5.809  0.00  0.00     0.036 C 
ATOM      2  C   UNL d   1      28.530 -13.696   6.458  0.00  0.00     0.030 C 
ATOM      3  C   UNL d   1      28.621 -14.858   5.763  0.00  0.00     0.003 C 
ATOM      4  C   UNL d   1      28.233 -14.819   4.452  0.00  0.00     0.014 C 
ATOM      5  C   UNL d   1      27.932 -13.714   3.684  0.00  0.00     0.003 A 
ATOM      6  C   UNL d   1      27.699 -13.858   2.294  0.00  0.00     0.045 A 
ATOM      7  C   UNL d   1      27.270 -12.697   1.606  0.00  0.00     0.030 A 
ATOM      8  C   UNL d   1      27.128 -11.466   2.279  0.00  0.00     0.003 A 
ATOM      9  C   UNL d   1      27.405 -11.369   3.650  0.00  0.00     0.014 A 
ATOM     10  C   UNL d   1      27.822 -12.498   4.394  0.00  0.00     0.003 A 
ENDROOT
BRANCH   6  11
ATOM     11  N   UNL d   1      27.857 -15.102   1.544  0.00  0.00    -0.326 N 
ATOM     12  C   UNL d   1      27.030 -15.785   0.596  0.00  0.00     0.227 C 
ATOM     13  O   UNL d   1      25.898 -15.645   0.230  0.00  0.00    -0.273 OA
ATOM     14  H   UNL d   1      28.724 -15.575   1.749  0.00  0.00     0.169 HD
BRANCH  12  15
ATOM     15  C   UNL d   1      27.723 -16.916  -0.049  0.00  0.00     0.087 A 
ATOM     16  C   UNL d   1      28.889 -16.957  -1.000  0.00  0.00     0.025 A 
ATOM     17  C   UNL d   1      27.509 -17.024  -1.577  0.00  0.00     0.032 A 
BRANCH  17  18
ATOM     18  C   UNL d   1      27.090 -15.887  -2.555  0.00  0.00    -0.053 A 
ATOM     19  C   UNL d   1      25.743 -15.488  -2.624  0.00  0.00     0.007 A 
ATOM     20  C   UNL d   1      25.262 -14.642  -3.636  0.00  0.00     0.001 A 
ATOM     21  C   UNL d   1      26.139 -14.075  -4.554  0.00  0.00     0.000 A 
ATOM     22  C   UNL d   1      27.488 -14.392  -4.485  0.00  0.00     0.001 A 
ATOM     23  C   UNL d   1      27.948 -15.285  -3.507  0.00  0.00     0.007 A 
ENDBRANCH  17  18
ENDBRANCH  12  15
ENDBRANCH   6  11
BRANCH   1  24
ATOM     24  N   UNL d   1      27.972 -11.407   6.627  0.00  0.00    -0.398 N 
ATOM     25  H   UNL d   1      27.109 -10.882   6.572  0.00  0.00     0.156 HD
ATOM     26  H   UNL d   1      28.668 -11.160   7.308  0.00  0.00     0.156 HD
ENDBRANCH   1  24
TORSDOF 4
ENDMDL
MODEL 5
REMARK VINA RESULT:    -6.562      4.929      7.648
REMARK INTER + INTRA:          -9.081
REMARK INTER:                  -7.755
REMARK INTRA:                  -1.326
REMARK CONF_INDEPENDENT:        1.193
REMARK UNBOUND:                -1.326
REMARK  4 active torsions:
REMARK  status: ('A' for Active; 'I' for Inactive)
REMARK    1  A    between atoms: N_1  and  C_2 
REMARK    2  A    between atoms: C_7  and  N_8 
REMARK       I    between atoms: N_8  and  C_9 
REMARK    3  A    between atoms: C_9  and  C_11 
REMARK    4  A    between atoms: C_13  and  C_14 
ROOT
ATOM      1  C   UNL d   1      31.290 -17.934  -3.269  0.00  0.00     0.036 C 
ATOM      2  C   UNL d   1      30.775 -17.937  -1.959  0.00  0.00     0.030 C 
ATOM      3  C   UNL d   1      29.692 -17.177  -1.654  0.00  0.00     0.003 C 
ATOM      4  C   UNL d   1      29.195 -16.389  -2.655  0.00  0.00     0.014 C 
ATOM      5  C   UNL d   1      29.531 -16.396  -3.992  0.00  0.00     0.003 A 
ATOM      6  C   UNL d   1      28.795 -15.611  -4.913  0.00  0.00     0.045 A 
ATOM      7  C   UNL d   1      29.286 -15.575  -6.241  0.00  0.00     0.030 A 
ATOM      8  C   UNL d   1      30.424 -16.320  -6.614  0.00  0.00     0.003 A 
ATOM      9  C   UNL d   1      31.097 -17.110  -5.671  0.00  0.00     0.014 A 
ATOM     10  C   UNL d   1      30.663 -17.173  -4.326  0.00  0.00     0.003 A 
ENDROOT
BRANCH   6  11
ATOM     11  N   UNL d   1      27.596 -14.843  -4.586  0.00  0.00    -0.326 N 
ATOM     12  C   UNL d   1      26.197 -15.088  -4.764  0.00  0.00     0.227 C 
ATOM     13  O   UNL d   1      25.570 -15.915  -5.363  0.00  0.00    -0.273 OA
ATOM     14  H   UNL d   1      27.806 -13.954  -4.156  0.00  0.00     0.169 HD
BRANCH  12  15
ATOM     15  C   UNL d   1      25.355 -14.093  -4.074  0.00  0.00     0.087 A 
ATOM     16  C   UNL d   1      25.543 -13.362  -2.772  0.00  0.00     0.025 A 
ATOM     17  C   UNL d   1      24.692 -14.594  -2.770  0.00  0.00     0.032 A 
BRANCH  17  18
ATOM     18  C   UNL d   1      25.154 -15.777  -1.869  0.00  0.00    -0.053 A 
ATOM     19  C   UNL d   1      24.287 -16.861  -1.641  0.00  0.00     0.007 A 
ATOM     20  C   UNL d   1      24.546 -17.837  -0.667  0.00  0.00     0.001 A 
ATOM     21  C   UNL d   1      25.742 -17.823   0.042  0.00  0.00     0.000 A 
ATOM     22  C   UNL d   1      26.656 -16.806  -0.193  0.00  0.00     0.001 A 
ATOM     23  C   UNL d   1      26.360 -15.802  -1.128  0.00  0.00     0.007 A 
ENDBRANCH  17  18
ENDBRANCH  12  15
ENDBRANCH   6  11
BRANCH   1  24
ATOM     24  N   UNL d   1      32.446 -18.677  -3.455  0.00  0.00    -0.398 N 
ATOM     25  H   UNL d   1      33.287 -18.188  -3.732  0.00  0.00     0.156 HD
ATOM     26  H   UNL d   1      32.480 -19.661  -3.257  0.00  0.00     0.156 HD
ENDBRANCH   1  24
TORSDOF 4
ENDMDL
MODEL 6
REMARK VINA RESULT:    -6.541      4.876      7.658
REMARK INTER + INTRA:          -8.831
REMARK INTER:                  -7.735
REMARK INTRA:                  -1.097
REMARK CONF_INDEPENDENT:        1.193
REMARK UNBOUND:                -1.097
REMARK  4 active torsions:
REMARK  status: ('A' for Active; 'I' for Inactive)
REMARK    1  A    between atoms: N_1  and  C_2 
REMARK    2  A    between atoms: C_7  and  N_8 
REMARK       I    between atoms: N_8  and  C_9 
REMARK    3  A    between atoms: C_9  and  C_11 
REMARK    4  A    between atoms: C_13  and  C_14 
ROOT
ATOM      1  C   UNL d   1      31.690 -17.460  -5.768  0.00  0.00     0.036 C 
ATOM      2  C   UNL d   1      31.333 -16.762  -6.938  0.00  0.00     0.030 C 
ATOM      3  C   UNL d   1      30.235 -15.963  -6.943  0.00  0.00     0.003 C 
ATOM      4  C   UNL d   1      29.493 -15.934  -5.794  0.00  0.00     0.014 C 
ATOM      5  C   UNL d   1      29.808 -16.467  -4.562  0.00  0.00     0.003 A 
ATOM      6  C   UNL d   1      28.981 -16.203  -3.443  0.00  0.00     0.045 A 
ATOM      7  C   UNL d   1      29.303 -16.892  -2.248  0.00  0.00     0.030 A 
ATOM      8  C   UNL d   1      30.414 -17.759  -2.187  0.00  0.00     0.003 A 
ATOM      9  C   UNL d   1      31.222 -17.959  -3.316  0.00  0.00     0.014 A 
ATOM     10  C   UNL d   1      30.941 -17.311  -4.541  0.00  0.00     0.003 A 
ENDROOT
BRANCH   6  11
ATOM     11  N   UNL d   1      27.837 -15.295  -3.444  0.00  0.00    -0.326 N 
ATOM     12  C   UNL d   1      26.716 -15.134  -4.319  0.00  0.00     0.227 C 
ATOM     13  O   UNL d   1      26.434 -15.577  -5.396  0.00  0.00    -0.273 OA
ATOM     14  H   UNL d   1      27.852 -14.644  -2.672  0.00  0.00     0.169 HD
BRANCH  12  15
ATOM     15  C   UNL d   1      25.705 -14.205  -3.780  0.00  0.00     0.087 A 
ATOM     16  C   UNL d   1      25.561 -13.569  -2.424  0.00  0.00     0.025 A 
ATOM     17  C   UNL d   1      24.772 -14.812  -2.705  0.00  0.00     0.032 A 
BRANCH  17  18
ATOM     18  C   UNL d   1      25.051 -16.051  -1.803  0.00  0.00    -0.053 A 
ATOM     19  C   UNL d   1      24.016 -16.966  -1.537  0.00  0.00     0.007 A 
ATOM     20  C   UNL d   1      24.132 -17.965  -0.558  0.00  0.00     0.001 A 
ATOM     21  C   UNL d   1      25.335 -18.154   0.115  0.00  0.00     0.000 A 
ATOM     22  C   UNL d   1      26.403 -17.313  -0.161  0.00  0.00     0.001 A 
ATOM     23  C   UNL d   1      26.257 -16.280  -1.098  0.00  0.00     0.007 A 
ENDBRANCH  17  18
ENDBRANCH  12  15
ENDBRANCH   6  11
BRANCH   1  24
ATOM     24  N   UNL d   1      32.776 -18.313  -5.893  0.00  0.00    -0.398 N 
ATOM     25  H   UNL d   1      33.384 -18.430  -5.094  0.00  0.00     0.156 HD
ATOM     26  H   UNL d   1      32.927 -18.858  -6.723  0.00  0.00     0.156 HD
ENDBRANCH   1  24
TORSDOF 4
ENDMDL
MODEL 7
REMARK VINA RESULT:    -6.529      5.350      8.387
REMARK INTER + INTRA:          -8.657
REMARK INTER:                  -7.722
REMARK INTRA:                  -0.935
REMARK CONF_INDEPENDENT:        1.193
REMARK UNBOUND:                -0.935
REMARK  4 active torsions:
REMARK  status: ('A' for Active; 'I' for Inactive)
REMARK    1  A    between atoms: N_1  and  C_2 
REMARK    2  A    between atoms: C_7  and  N_8 
REMARK       I    between atoms: N_8  and  C_9 
REMARK    3  A    between atoms: C_9  and  C_11 
REMARK    4  A    between atoms: C_13  and  C_14 
ROOT
ATOM      1  C   UNL d   1      31.630 -14.524  -7.827  0.00  0.00     0.036 C 
ATOM      2  C   UNL d   1      31.161 -13.325  -8.398  0.00  0.00     0.030 C 
ATOM      3  C   UNL d   1      29.974 -12.804  -7.999  0.00  0.00     0.003 C 
ATOM      4  C   UNL d   1      29.261 -13.530  -7.085  0.00  0.00     0.014 C 
ATOM      5  C   UNL d   1      29.669 -14.636  -6.371  0.00  0.00     0.003 A 
ATOM      6  C   UNL d   1      28.843 -15.165  -5.348  0.00  0.00     0.045 A 
ATOM      7  C   UNL d   1      29.276 -16.375  -4.755  0.00  0.00     0.030 A 
ATOM      8  C   UNL d   1      30.488 -16.983  -5.146  0.00  0.00     0.003 A 
ATOM      9  C   UNL d   1      31.287 -16.399  -6.139  0.00  0.00     0.014 A 
ATOM     10  C   UNL d   1      30.899 -15.200  -6.780  0.00  0.00     0.003 A 
ENDROOT
BRANCH   6  11
ATOM     11  N   UNL d   1      27.595 -14.563  -4.887  0.00  0.00    -0.326 N 
ATOM     12  C   UNL d   1      26.237 -15.015  -4.870  0.00  0.00     0.227 C 
ATOM     13  O   UNL d   1      25.668 -15.950  -5.357  0.00  0.00    -0.273 OA
ATOM     14  H   UNL d   1      27.723 -13.633  -4.513  0.00  0.00     0.169 HD
BRANCH  12  15
ATOM     15  C   UNL d   1      25.351 -14.120  -4.102  0.00  0.00     0.087 A 
ATOM     16  C   UNL d   1      25.533 -13.441  -2.772  0.00  0.00     0.025 A 
ATOM     17  C   UNL d   1      24.774 -14.732  -2.804  0.00  0.00     0.032 A 
BRANCH  17  18
ATOM     18  C   UNL d   1      25.354 -15.920  -1.981  0.00  0.00    -0.053 A 
ATOM     19  C   UNL d   1      24.481 -16.856  -1.397  0.00  0.00     0.007 A 
ATOM     20  C   UNL d   1      24.918 -17.806  -0.461  0.00  0.00     0.001 A 
ATOM     21  C   UNL d   1      26.270 -17.926  -0.159  0.00  0.00     0.000 A 
ATOM     22  C   UNL d   1      27.176 -17.063  -0.758  0.00  0.00     0.001 A 
ATOM     23  C   UNL d   1      26.721 -16.078  -1.647  0.00  0.00     0.007 A 
ENDBRANCH  17  18
ENDBRANCH  12  15
ENDBRANCH   6  11
BRANCH   1  24
ATOM     24  N   UNL d   1      32.811 -15.016  -8.364  0.00  0.00    -0.398 N 
ATOM     25  H   UNL d   1      33.052 -14.747  -9.309  0.00  0.00     0.156 HD
ATOM     26  H   UNL d   1      33.450 -15.567  -7.820  0.00  0.00     0.156 HD
ENDBRANCH   1  24
TORSDOF 4
ENDMDL
MODEL 8
REMARK VINA RESULT:    -6.125      1.640      2.347
REMARK INTER + INTRA:          -8.494
REMARK INTER:                  -7.318
REMARK INTRA:                  -1.176
REMARK CONF_INDEPENDENT:        1.193
REMARK UNBOUND:                -1.176
REMARK  4 active torsions:
REMARK  status: ('A' for Active; 'I' for Inactive)
REMARK    1  A    between atoms: N_1  and  C_2 
REMARK    2  A    between atoms: C_7  and  N_8 
REMARK       I    between atoms: N_8  and  C_9 
REMARK    3  A    between atoms: C_9  and  C_11 
REMARK    4  A    between atoms: C_13  and  C_14 
ROOT
ATOM      1  C   UNL d   1      27.409 -11.064   3.911  0.00  0.00     0.036 C 
ATOM      2  C   UNL d   1      26.908  -9.930   3.243  0.00  0.00     0.030 C 
ATOM      3  C   UNL d   1      26.585 -10.005   1.927  0.00  0.00     0.003 C 
ATOM      4  C   UNL d   1      26.832 -11.197   1.303  0.00  0.00     0.014 C 
ATOM      5  C   UNL d   1      27.196 -12.399   1.873  0.00  0.00     0.003 A 
ATOM      6  C   UNL d   1      27.256 -13.571   1.079  0.00  0.00     0.045 A 
ATOM      7  C   UNL d   1      27.763 -14.732   1.713  0.00  0.00     0.030 A 
ATOM      8  C   UNL d   1      28.143 -14.710   3.071  0.00  0.00     0.003 A 
ATOM      9  C   UNL d   1      28.030 -13.532   3.822  0.00  0.00     0.014 A 
ATOM     10  C   UNL d   1      27.546 -12.337   3.240  0.00  0.00     0.003 A 
ENDROOT
BRANCH   6  11
ATOM     11  N   UNL d   1      26.851 -13.654  -0.321  0.00  0.00    -0.326 N 
ATOM     12  C   UNL d   1      27.539 -14.032  -1.519  0.00  0.00     0.227 C 
ATOM     13  O   UNL d   1      28.687 -14.251  -1.782  0.00  0.00    -0.273 OA
ATOM     14  H   UNL d   1      25.891 -13.378  -0.469  0.00  0.00     0.169 HD
BRANCH  12  15
ATOM     15  C   UNL d   1      26.633 -14.156  -2.677  0.00  0.00     0.087 A 
ATOM     16  C   UNL d   1      25.135 -14.262  -2.761  0.00  0.00     0.025 A 
ATOM     17  C   UNL d   1      25.933 -15.528  -2.811  0.00  0.00     0.032 A 
BRANCH  17  18
ATOM     18  C   UNL d   1      25.680 -16.574  -1.685  0.00  0.00    -0.053 A 
ATOM     19  C   UNL d   1      24.363 -16.952  -1.367  0.00  0.00     0.007 A 
ATOM     20  C   UNL d   1      24.054 -17.704  -0.223  0.00  0.00     0.001 A 
ATOM     21  C   UNL d   1      25.069 -18.199   0.589  0.00  0.00     0.000 A 
ATOM     22  C   UNL d   1      26.388 -17.902   0.279  0.00  0.00     0.001 A 
ATOM     23  C   UNL d   1      26.682 -17.100  -0.834  0.00  0.00     0.007 A 
ENDBRANCH  17  18
ENDBRANCH  12  15
ENDBRANCH   6  11
BRANCH   1  24
ATOM     24  N   UNL d   1      27.787 -10.859   5.230  0.00  0.00    -0.398 N 
ATOM     25  H   UNL d   1      28.767 -10.705   5.425  0.00  0.00     0.156 HD
ATOM     26  H   UNL d   1      27.111 -10.792   5.969  0.00  0.00     0.156 HD
ENDBRANCH   1  24
TORSDOF 4
ENDMDL
MODEL 9
REMARK VINA RESULT:    -5.828      2.288      3.669
REMARK INTER + INTRA:          -8.514
REMARK INTER:                  -7.021
REMARK INTRA:                  -1.492
REMARK CONF_INDEPENDENT:        1.193
REMARK UNBOUND:                -1.492
REMARK  4 active torsions:
REMARK  status: ('A' for Active; 'I' for Inactive)
REMARK    1  A    between atoms: N_1  and  C_2 
REMARK    2  A    between atoms: C_7  and  N_8 
REMARK       I    between atoms: N_8  and  C_9 
REMARK    3  A    between atoms: C_9  and  C_11 
REMARK    4  A    between atoms: C_13  and  C_14 
ROOT
ATOM      1  C   UNL d   1      30.509 -14.453   2.576  0.00  0.00     0.036 C 
ATOM      2  C   UNL d   1      31.240 -14.991   1.499  0.00  0.00     0.030 C 
ATOM      3  C   UNL d   1      30.657 -15.116   0.280  0.00  0.00     0.003 C 
ATOM      4  C   UNL d   1      29.341 -14.756   0.189  0.00  0.00     0.014 C 
ATOM      5  C   UNL d   1      28.569 -14.107   1.129  0.00  0.00     0.003 A 
ATOM      6  C   UNL d   1      27.261 -13.675   0.797  0.00  0.00     0.045 A 
ATOM      7  C   UNL d   1      26.490 -13.135   1.856  0.00  0.00     0.030 A 
ATOM      8  C   UNL d   1      27.030 -13.005   3.153  0.00  0.00     0.003 A 
ATOM      9  C   UNL d   1      28.343 -13.416   3.421  0.00  0.00     0.014 A 
ATOM     10  C   UNL d   1      29.155 -13.978   2.408  0.00  0.00     0.003 A 
ENDROOT
BRANCH   6  11
ATOM     11  N   UNL d   1      26.665 -13.761  -0.533  0.00  0.00    -0.326 N 
ATOM     12  C   UNL d   1      27.206 -13.681  -1.856  0.00  0.00     0.227 C 
ATOM     13  O   UNL d   1      28.276 -13.371  -2.297  0.00  0.00    -0.273 OA
ATOM     14  H   UNL d   1      25.664 -13.894  -0.506  0.00  0.00     0.169 HD
BRANCH  12  15
ATOM     15  C   UNL d   1      26.221 -14.038  -2.894  0.00  0.00     0.087 A 
ATOM     16  C   UNL d   1      24.779 -14.459  -2.795  0.00  0.00     0.025 A 
ATOM     17  C   UNL d   1      25.818 -15.531  -2.922  0.00  0.00     0.032 A 
BRANCH  17  18
ATOM     18  C   UNL d   1      25.925 -16.560  -1.758  0.00  0.00    -0.053 A 
ATOM     19  C   UNL d   1      24.755 -17.118  -1.210  0.00  0.00     0.007 A 
ATOM     20  C   UNL d   1      24.765 -17.864  -0.021  0.00  0.00     0.001 A 
ATOM     21  C   UNL d   1      25.968 -18.172   0.605  0.00  0.00     0.000 A 
ATOM     22  C   UNL d   1      27.153 -17.694   0.066  0.00  0.00     0.001 A 
ATOM     23  C   UNL d   1      27.126 -16.899  -1.090  0.00  0.00     0.007 A 
ENDBRANCH  17  18
ENDBRANCH  12  15
ENDBRANCH   6  11
BRANCH   1  24
ATOM     24  N   UNL d   1      31.168 -14.448   3.797  0.00  0.00    -0.398 N 
ATOM     25  H   UNL d   1      31.825 -13.701   3.980  0.00  0.00     0.156 HD
ATOM     26  H   UNL d   1      30.957 -15.118   4.514  0.00  0.00     0.156 HD
ENDBRANCH   1  24
TORSDOF 4
ENDMDL
