MODEL 1
REMARK VINA RESULT:    -9.278      0.000      0.000
REMARK INTER + INTRA:         -14.329
REMARK INTER:                 -12.261
REMARK INTRA:                  -2.068
REMARK CONF_INDEPENDENT:        2.983
REMARK UNBOUND:                -2.068
REMARK  10 active torsions:
REMARK  status: ('A' for Active; 'I' for Inactive)
REMARK    1  A    between atoms: C_2  and  C_3 
REMARK    2  A    between atoms: C_3  and  C_4 
REMARK    3  A    between atoms: C_4  and  O_5 
REMARK    4  A    between atoms: O_5  and  C_6 
REMARK    5  A    between atoms: C_11  and  N_12 
REMARK    6  A    between atoms: N_12  and  C_13 
REMARK    7  A    between atoms: C_13  and  C_14 
REMARK       I    between atoms: C_14  and  N_16 
REMARK    8  A    between atoms: N_16  and  C_17 
REMARK    9  A    between atoms: C_22  and  C_23 
REMARK       I    between atoms: C_23  and  N_25 
REMARK   10  A    between atoms: N_25  and  C_26 
ROOT
ATOM      1  C   UNL d   1      25.329 -13.870  -4.009  0.00  0.00     0.239 C 
ATOM      2  O   UNL d   1      24.907 -14.825  -4.634  0.00  0.00    -0.271 OA
ATOM      3  N   UNL d   1      25.836 -13.895  -2.691  0.00  0.00    -0.326 N 
ATOM      4  H   UNL d   1      25.898 -13.035  -2.152  0.00  0.00     0.169 HD
ENDROOT
BRANCH   3   5
ATOM      5  C   UNL d   1      25.937 -15.090  -1.974  0.00  0.00     0.035 A 
ATOM      6  C   UNL d   1      27.092 -15.361  -1.253  0.00  0.00     0.031 A 
ATOM      7  C   UNL d   1      27.104 -16.463  -0.406  0.00  0.00     0.027 A 
ATOM      8  C   UNL d   1      25.974 -17.288  -0.284  0.00  0.00     0.049 A 
ATOM      9 CL   UNL d   1      26.070 -18.467   0.980  0.00  0.00    -0.083 Cl
ATOM     10  C   UNL d   1      24.854 -17.088  -1.113  0.00  0.00     0.055 A 
ATOM     11  C   UNL d   1      24.865 -15.981  -1.962  0.00  0.00     0.048 A 
BRANCH  10  12
ATOM     12  C   UNL d   1      23.686 -18.024  -1.116  0.00  0.00     0.253 C 
ATOM     13  O   UNL d   1      23.431 -18.688  -2.100  0.00  0.00    -0.268 OA
ATOM     14  N   UNL d   1      22.882 -18.094   0.022  0.00  0.00    -0.352 N 
ATOM     15  H   UNL d   1      23.048 -17.536   0.843  0.00  0.00     0.163 HD
BRANCH  14  16
ATOM     16  C   UNL d   1      21.766 -19.029   0.069  0.00  0.00     0.084 C 
ATOM     17  C   UNL d   1      21.049 -18.950   1.426  0.00  0.00     0.025 C 
ATOM     18  C   UNL d   1      19.850 -19.881   1.495  0.00  0.00     0.002 C 
ATOM     19  C   UNL d   1      18.872 -19.600   0.365  0.00  0.00     0.000 C 
ATOM     20  C   UNL d   1      19.565 -19.699  -0.990  0.00  0.00     0.002 C 
ATOM     21  C   UNL d   1      20.773 -18.766  -1.073  0.00  0.00     0.025 C 
ENDBRANCH  14  16
ENDBRANCH  10  12
ENDBRANCH   3   5
BRANCH   1  22
ATOM     22  C   UNL d   1      25.494 -12.522  -4.634  0.00  0.00     0.223 C 
BRANCH  22  23
ATOM     23  N   UNL d   1      26.787 -11.964  -4.908  0.00  0.00    -0.379 N 
ATOM     24  H   UNL d   1      26.814 -10.958  -4.761  0.00  0.00     0.160 HD
BRANCH  23  25
ATOM     25  C   UNL d   1      27.566 -12.449  -5.986  0.00  0.00     0.062 A 
ATOM     26  C   UNL d   1      28.214 -11.407  -6.703  0.00  0.00     0.032 A 
ATOM     27  C   UNL d   1      29.187 -11.637  -7.681  0.00  0.00     0.002 A 
ATOM     28  C   UNL d   1      29.555 -12.935  -7.985  0.00  0.00     0.003 A 
ATOM     29  C   UNL d   1      28.913 -13.996  -7.344  0.00  0.00     0.039 A 
ATOM     30  C   UNL d   1      27.948 -13.789  -6.327  0.00  0.00     0.095 A 
BRANCH  30  31
ATOM     31  O   UNL d   1      27.659 -14.999  -5.698  0.00  0.00    -0.349 OA
BRANCH  31  32
ATOM     32  C   UNL d   1      28.257 -15.222  -4.435  0.00  0.00     0.175 C 
BRANCH  32  33
ATOM     33  C   UNL d   1      29.635 -15.861  -4.383  0.00  0.00     0.026 C 
BRANCH  33  34
ATOM     34  C   UNL d   1      29.881 -16.683  -5.675  0.00  0.00    -0.002 C 
ATOM     35  C   UNL d   1      30.406 -18.053  -5.315  0.00  0.00     0.005 C 
ENDBRANCH  33  34
ENDBRANCH  32  33
ENDBRANCH  31  32
ENDBRANCH  30  31
ENDBRANCH  23  25
ENDBRANCH  22  23
ENDBRANCH   1  22
TORSDOF 10
ENDMDL
MODEL 2
REMARK VINA RESULT:    -9.051      3.139      9.410
REMARK INTER + INTRA:         -13.505
REMARK INTER:                 -12.034
REMARK INTRA:                  -1.471
REMARK CONF_INDEPENDENT:        2.983
REMARK UNBOUND:                -1.471
REMARK  10 active torsions:
REMARK  status: ('A' for Active; 'I' for Inactive)
REMARK    1  A    between atoms: C_2  and  C_3 
REMARK    2  A    between atoms: C_3  and  C_4 
REMARK    3  A    between atoms: C_4  and  O_5 
REMARK    4  A    between atoms: O_5  and  C_6 
REMARK    5  A    between atoms: C_11  and  N_12 
REMARK    6  A    between atoms: N_12  and  C_13 
REMARK    7  A    between atoms: C_13  and  C_14 
REMARK       I    between atoms: C_14  and  N_16 
REMARK    8  A    between atoms: N_16  and  C_17 
REMARK    9  A    between atoms: C_22  and  C_23 
REMARK       I    between atoms: C_23  and  N_25 
REMARK   10  A    between atoms: N_25  and  C_26 
ROOT
ATOM      1  C   UNL d   1      25.759 -14.810  -3.973  0.00  0.00     0.239 C 
ATOM      2  O   UNL d   1      25.246 -15.169  -5.017  0.00  0.00    -0.271 OA
ATOM      3  N   UNL d   1      27.134 -14.574  -3.759  0.00  0.00    -0.326 N 
ATOM      4  H   UNL d   1      27.507 -14.556  -2.814  0.00  0.00     0.169 HD
ENDROOT
BRANCH   3   5
ATOM      5  C   UNL d   1      28.063 -14.701  -4.796  0.00  0.00     0.035 A 
ATOM      6  C   UNL d   1      28.217 -13.665  -5.707  0.00  0.00     0.031 A 
ATOM      7  C   UNL d   1      29.265 -13.731  -6.618  0.00  0.00     0.027 A 
ATOM      8  C   UNL d   1      30.147 -14.824  -6.620  0.00  0.00     0.049 A 
ATOM      9 CL   UNL d   1      31.527 -14.640  -7.649  0.00  0.00    -0.083 Cl
ATOM     10  C   UNL d   1      29.910 -15.932  -5.784  0.00  0.00     0.055 A 
ATOM     11  C   UNL d   1      28.848 -15.849  -4.882  0.00  0.00     0.048 A 
BRANCH  10  12
ATOM     12  C   UNL d   1      30.742 -17.175  -5.851  0.00  0.00     0.253 C 
ATOM     13  O   UNL d   1      31.389 -17.534  -4.888  0.00  0.00    -0.268 OA
ATOM     14  N   UNL d   1      30.780 -17.891  -7.047  0.00  0.00    -0.352 N 
ATOM     15  H   UNL d   1      30.279 -17.604  -7.872  0.00  0.00     0.163 HD
BRANCH  14  16
ATOM     16  C   UNL d   1      31.542 -19.130  -7.131  0.00  0.00     0.084 C 
ATOM     17  C   UNL d   1      30.996 -20.170  -6.141  0.00  0.00     0.025 C 
ATOM     18  C   UNL d   1      31.739 -21.493  -6.232  0.00  0.00     0.002 C 
ATOM     19  C   UNL d   1      31.704 -22.044  -7.649  0.00  0.00     0.000 C 
ATOM     20  C   UNL d   1      32.267 -21.031  -8.640  0.00  0.00     0.002 C 
ATOM     21  C   UNL d   1      31.526 -19.696  -8.559  0.00  0.00     0.025 C 
ENDBRANCH  14  16
ENDBRANCH  10  12
ENDBRANCH   3   5
BRANCH   1  22
ATOM     22  C   UNL d   1      24.944 -14.429  -2.778  0.00  0.00     0.223 C 
BRANCH  22  23
ATOM     23  N   UNL d   1      23.968 -15.313  -2.212  0.00  0.00    -0.379 N 
ATOM     24  H   UNL d   1      23.138 -14.820  -1.890  0.00  0.00     0.160 HD
BRANCH  23  25
ATOM     25  C   UNL d   1      24.369 -16.420  -1.425  0.00  0.00     0.062 A 
ATOM     26  C   UNL d   1      25.745 -16.368  -1.073  0.00  0.00     0.032 A 
ATOM     27  C   UNL d   1      26.335 -17.234  -0.146  0.00  0.00     0.002 A 
ATOM     28  C   UNL d   1      25.562 -18.199   0.473  0.00  0.00     0.003 A 
ATOM     29  C   UNL d   1      24.216 -18.324   0.125  0.00  0.00     0.039 A 
ATOM     30  C   UNL d   1      23.588 -17.439  -0.786  0.00  0.00     0.095 A 
BRANCH  30  31
ATOM     31  O   UNL d   1      22.207 -17.635  -0.759  0.00  0.00    -0.349 OA
BRANCH  31  32
ATOM     32  C   UNL d   1      21.754 -18.971  -0.653  0.00  0.00     0.175 C 
BRANCH  32  33
ATOM     33  C   UNL d   1      20.259 -19.229  -0.556  0.00  0.00     0.026 C 
BRANCH  33  34
ATOM     34  C   UNL d   1      19.938 -19.961   0.773  0.00  0.00    -0.002 C 
ATOM     35  C   UNL d   1      18.710 -20.824   0.595  0.00  0.00     0.005 C 
ENDBRANCH  33  34
ENDBRANCH  32  33
ENDBRANCH  31  32
ENDBRANCH  30  31
ENDBRANCH  23  25
ENDBRANCH  22  23
ENDBRANCH   1  22
TORSDOF 10
ENDMDL
MODEL 3
REMARK VINA RESULT:    -8.819      1.987      3.050
REMARK INTER + INTRA:         -13.626
REMARK INTER:                 -11.802
REMARK INTRA:                  -1.824
REMARK CONF_INDEPENDENT:        2.983
REMARK UNBOUND:                -1.824
REMARK  10 active torsions:
REMARK  status: ('A' for Active; 'I' for Inactive)
REMARK    1  A    between atoms: C_2  and  C_3 
REMARK    2  A    between atoms: C_3  and  C_4 
REMARK    3  A    between atoms: C_4  and  O_5 
REMARK    4  A    between atoms: O_5  and  C_6 
REMARK    5  A    between atoms: C_11  and  N_12 
REMARK    6  A    between atoms: N_12  and  C_13 
REMARK    7  A    between atoms: C_13  and  C_14 
REMARK       I    between atoms: C_14  and  N_16 
REMARK    8  A    between atoms: N_16  and  C_17 
REMARK    9  A    between atoms: C_22  and  C_23 
REMARK       I    between atoms: C_23  and  N_25 
REMARK   10  A    between atoms: N_25  and  C_26 
ROOT
ATOM      1  C   UNL d   1      25.653 -13.580  -4.266  0.00  0.00     0.239 C 
ATOM      2  O   UNL d   1      24.673 -14.183  -4.663  0.00  0.00    -0.271 OA
ATOM      3  N   UNL d   1      26.468 -13.945  -3.172  0.00  0.00    -0.326 N 
ATOM      4  H   UNL d   1      27.078 -13.257  -2.739  0.00  0.00     0.169 HD
ENDROOT
BRANCH   3   5
ATOM      5  C   UNL d   1      26.226 -15.113  -2.444  0.00  0.00     0.035 A 
ATOM      6  C   UNL d   1      27.287 -15.947  -2.116  0.00  0.00     0.031 A 
ATOM      7  C   UNL d   1      27.056 -17.004  -1.242  0.00  0.00     0.027 A 
ATOM      8  C   UNL d   1      25.778 -17.226  -0.705  0.00  0.00     0.049 A 
ATOM      9 CL   UNL d   1      25.714 -18.425   0.541  0.00  0.00    -0.083 Cl
ATOM     10  C   UNL d   1      24.680 -16.460  -1.140  0.00  0.00     0.055 A 
ATOM     11  C   UNL d   1      24.931 -15.409  -2.023  0.00  0.00     0.048 A 
BRANCH  10  12
ATOM     12  C   UNL d   1      23.279 -16.751  -0.700  0.00  0.00     0.253 C 
ATOM     13  O   UNL d   1      22.591 -15.874  -0.217  0.00  0.00    -0.268 OA
ATOM     14  N   UNL d   1      22.794 -18.052  -0.829  0.00  0.00    -0.352 N 
ATOM     15  H   UNL d   1      23.348 -18.807  -1.197  0.00  0.00     0.163 HD
BRANCH  14  16
ATOM     16  C   UNL d   1      21.419 -18.358  -0.454  0.00  0.00     0.084 C 
ATOM     17  C   UNL d   1      20.783 -19.323  -1.466  0.00  0.00     0.025 C 
ATOM     18  C   UNL d   1      19.362 -19.700  -1.082  0.00  0.00     0.002 C 
ATOM     19  C   UNL d   1      19.311 -20.294   0.317  0.00  0.00     0.000 C 
ATOM     20  C   UNL d   1      19.918 -19.336   1.336  0.00  0.00     0.002 C 
ATOM     21  C   UNL d   1      21.349 -18.950   0.962  0.00  0.00     0.025 C 
ENDBRANCH  14  16
ENDBRANCH  10  12
ENDBRANCH   3   5
BRANCH   1  22
ATOM     22  C   UNL d   1      26.214 -12.406  -5.001  0.00  0.00     0.223 C 
BRANCH  22  23
ATOM     23  N   UNL d   1      25.687 -11.082  -4.835  0.00  0.00    -0.379 N 
ATOM     24  H   UNL d   1      24.779 -11.082  -4.375  0.00  0.00     0.160 HD
BRANCH  23  25
ATOM     25  C   UNL d   1      25.867 -10.104  -5.842  0.00  0.00     0.062 A 
ATOM     26  C   UNL d   1      24.933  -9.037  -5.740  0.00  0.00     0.032 A 
ATOM     27  C   UNL d   1      25.024  -7.861  -6.491  0.00  0.00     0.002 A 
ATOM     28  C   UNL d   1      26.065  -7.704  -7.388  0.00  0.00     0.003 A 
ATOM     29  C   UNL d   1      26.981  -8.743  -7.562  0.00  0.00     0.039 A 
ATOM     30  C   UNL d   1      26.929  -9.930  -6.790  0.00  0.00     0.095 A 
BRANCH  30  31
ATOM     31  O   UNL d   1      28.090 -10.676  -6.993  0.00  0.00    -0.349 OA
BRANCH  31  32
ATOM     32  C   UNL d   1      28.148 -11.458  -8.170  0.00  0.00     0.175 C 
BRANCH  32  33
ATOM     33  C   UNL d   1      28.529 -12.925  -8.054  0.00  0.00     0.026 C 
BRANCH  33  34
ATOM     34  C   UNL d   1      28.944 -13.245  -6.595  0.00  0.00    -0.002 C 
ATOM     35  C   UNL d   1      28.470 -14.631  -6.224  0.00  0.00     0.005 C 
ENDBRANCH  33  34
ENDBRANCH  32  33
ENDBRANCH  31  32
ENDBRANCH  30  31
ENDBRANCH  23  25
ENDBRANCH  22  23
ENDBRANCH   1  22
TORSDOF 10
ENDMDL
MODEL 4
REMARK VINA RESULT:    -8.755      3.179      9.185
REMARK INTER + INTRA:         -13.296
REMARK INTER:                 -11.738
REMARK INTRA:                  -1.558
REMARK CONF_INDEPENDENT:        2.983
REMARK UNBOUND:                -1.558
REMARK  10 active torsions:
REMARK  status: ('A' for Active; 'I' for Inactive)
REMARK    1  A    between atoms: C_2  and  C_3 
REMARK    2  A    between atoms: C_3  and  C_4 
REMARK    3  A    between atoms: C_4  and  O_5 
REMARK    4  A    between atoms: O_5  and  C_6 
REMARK    5  A    between atoms: C_11  and  N_12 
REMARK    6  A    between atoms: N_12  and  C_13 
REMARK    7  A    between atoms: C_13  and  C_14 
REMARK       I    between atoms: C_14  and  N_16 
REMARK    8  A    between atoms: N_16  and  C_17 
REMARK    9  A    between atoms: C_22  and  C_23 
REMARK       I    between atoms: C_23  and  N_25 
REMARK   10  A    between atoms: N_25  and  C_26 
ROOT
ATOM      1  C   UNL d   1      26.010 -15.093  -4.188  0.00  0.00     0.239 C 
ATOM      2  O   UNL d   1      25.529 -15.723  -5.111  0.00  0.00    -0.271 OA
ATOM      3  N   UNL d   1      27.373 -14.758  -4.027  0.00  0.00    -0.326 N 
ATOM      4  H   UNL d   1      27.727 -14.489  -3.114  0.00  0.00     0.169 HD
ENDROOT
BRANCH   3   5
ATOM      5  C   UNL d   1      28.324 -15.107  -4.990  0.00  0.00     0.035 A 
ATOM      6  C   UNL d   1      28.628 -14.213  -6.007  0.00  0.00     0.031 A 
ATOM      7  C   UNL d   1      29.699 -14.499  -6.846  0.00  0.00     0.027 A 
ATOM      8  C   UNL d   1      30.456 -15.669  -6.672  0.00  0.00     0.049 A 
ATOM      9 CL   UNL d   1      31.888 -15.758  -7.639  0.00  0.00    -0.083 Cl
ATOM     10  C   UNL d   1      30.064 -16.635  -5.726  0.00  0.00     0.055 A 
ATOM     11  C   UNL d   1      28.982 -16.332  -4.898  0.00  0.00     0.048 A 
BRANCH  10  12
ATOM     12  C   UNL d   1      30.757 -17.957  -5.600  0.00  0.00     0.253 C 
ATOM     13  O   UNL d   1      31.657 -18.106  -4.798  0.00  0.00    -0.268 OA
ATOM     14  N   UNL d   1      30.367 -18.999  -6.441  0.00  0.00    -0.352 N 
ATOM     15  H   UNL d   1      29.646 -18.899  -7.136  0.00  0.00     0.163 HD
BRANCH  14  16
ATOM     16  C   UNL d   1      30.989 -20.310  -6.312  0.00  0.00     0.084 C 
ATOM     17  C   UNL d   1      32.469 -20.251  -6.717  0.00  0.00     0.025 C 
ATOM     18  C   UNL d   1      33.162 -21.594  -6.552  0.00  0.00     0.002 C 
ATOM     19  C   UNL d   1      33.025 -22.110  -5.128  0.00  0.00     0.000 C 
ATOM     20  C   UNL d   1      31.558 -22.197  -4.721  0.00  0.00     0.002 C 
ATOM     21  C   UNL d   1      30.850 -20.852  -4.881  0.00  0.00     0.025 C 
ENDBRANCH  14  16
ENDBRANCH  10  12
ENDBRANCH   3   5
BRANCH   1  22
ATOM     22  C   UNL d   1      25.162 -14.454  -3.135  0.00  0.00     0.223 C 
BRANCH  22  23
ATOM     23  N   UNL d   1      24.179 -15.195  -2.398  0.00  0.00    -0.379 N 
ATOM     24  H   UNL d   1      23.468 -14.594  -1.987  0.00  0.00     0.160 HD
BRANCH  23  25
ATOM     25  C   UNL d   1      24.556 -16.320  -1.625  0.00  0.00     0.062 A 
ATOM     26  C   UNL d   1      25.943 -16.329  -1.317  0.00  0.00     0.032 A 
ATOM     27  C   UNL d   1      26.523 -17.222  -0.410  0.00  0.00     0.002 A 
ATOM     28  C   UNL d   1      25.728 -18.154   0.232  0.00  0.00     0.003 A 
ATOM     29  C   UNL d   1      24.367 -18.219  -0.073  0.00  0.00     0.039 A 
ATOM     30  C   UNL d   1      23.751 -17.305  -0.963  0.00  0.00     0.095 A 
BRANCH  30  31
ATOM     31  O   UNL d   1      22.364 -17.440  -0.893  0.00  0.00    -0.349 OA
BRANCH  31  32
ATOM     32  C   UNL d   1      21.865 -18.709  -0.517  0.00  0.00     0.175 C 
BRANCH  32  33
ATOM     33  C   UNL d   1      20.599 -19.222  -1.184  0.00  0.00     0.026 C 
BRANCH  33  34
ATOM     34  C   UNL d   1      19.507 -19.474  -0.112  0.00  0.00    -0.002 C 
ATOM     35  C   UNL d   1      20.045 -20.399   0.955  0.00  0.00     0.005 C 
ENDBRANCH  33  34
ENDBRANCH  32  33
ENDBRANCH  31  32
ENDBRANCH  30  31
ENDBRANCH  23  25
ENDBRANCH  22  23
ENDBRANCH   1  22
TORSDOF 10
ENDMDL
MODEL 5
REMARK VINA RESULT:    -8.286      1.553      2.170
REMARK INTER + INTRA:         -13.766
REMARK INTER:                 -11.269
REMARK INTRA:                  -2.497
REMARK CONF_INDEPENDENT:        2.983
REMARK UNBOUND:                -2.497
REMARK  10 active torsions:
REMARK  status: ('A' for Active; 'I' for Inactive)
REMARK    1  A    between atoms: C_2  and  C_3 
REMARK    2  A    between atoms: C_3  and  C_4 
REMARK    3  A    between atoms: C_4  and  O_5 
REMARK    4  A    between atoms: O_5  and  C_6 
REMARK    5  A    between atoms: C_11  and  N_12 
REMARK    6  A    between atoms: N_12  and  C_13 
REMARK    7  A    between atoms: C_13  and  C_14 
REMARK       I    between atoms: C_14  and  N_16 
REMARK    8  A    between atoms: N_16  and  C_17 
REMARK    9  A    between atoms: C_22  and  C_23 
REMARK       I    between atoms: C_23  and  N_25 
REMARK   10  A    between atoms: N_25  and  C_26 
ROOT
ATOM      1  C   UNL d   1      25.148 -14.310  -4.136  0.00  0.00     0.239 C 
ATOM      2  O   UNL d   1      25.594 -15.198  -4.838  0.00  0.00    -0.271 OA
ATOM      3  N   UNL d   1      24.984 -14.359  -2.734  0.00  0.00    -0.326 N 
ATOM      4  H   UNL d   1      24.356 -13.708  -2.271  0.00  0.00     0.169 HD
ENDROOT
BRANCH   3   5
ATOM      5  C   UNL d   1      25.382 -15.477  -1.995  0.00  0.00     0.035 A 
ATOM      6  C   UNL d   1      26.692 -15.570  -1.547  0.00  0.00     0.031 A 
ATOM      7  C   UNL d   1      27.022 -16.594  -0.666  0.00  0.00     0.027 A 
ATOM      8  C   UNL d   1      26.053 -17.517  -0.242  0.00  0.00     0.049 A 
ATOM      9 CL   UNL d   1      26.566 -18.575   1.029  0.00  0.00    -0.083 Cl
ATOM     10  C   UNL d   1      24.761 -17.499  -0.799  0.00  0.00     0.055 A 
ATOM     11  C   UNL d   1      24.451 -16.468  -1.687  0.00  0.00     0.048 A 
BRANCH  10  12
ATOM     12  C   UNL d   1      23.738 -18.546  -0.480  0.00  0.00     0.253 C 
ATOM     13  O   UNL d   1      24.031 -19.724  -0.521  0.00  0.00    -0.268 OA
ATOM     14  N   UNL d   1      22.441 -18.140  -0.166  0.00  0.00    -0.352 N 
ATOM     15  H   UNL d   1      22.159 -17.174  -0.153  0.00  0.00     0.163 HD
BRANCH  14  16
ATOM     16  C   UNL d   1      21.436 -19.131   0.195  0.00  0.00     0.084 C 
ATOM     17  C   UNL d   1      20.997 -18.950   1.656  0.00  0.00     0.025 C 
ATOM     18  C   UNL d   1      19.914 -19.939   2.055  0.00  0.00     0.002 C 
ATOM     19  C   UNL d   1      18.713 -19.841   1.128  0.00  0.00     0.000 C 
ATOM     20  C   UNL d   1      19.130 -20.043  -0.325  0.00  0.00     0.002 C 
ATOM     21  C   UNL d   1      20.218 -19.052  -0.740  0.00  0.00     0.025 C 
ENDBRANCH  14  16
ENDBRANCH  10  12
ENDBRANCH   3   5
BRANCH   1  22
ATOM     22  C   UNL d   1      24.830 -12.953  -4.677  0.00  0.00     0.223 C 
BRANCH  22  23
ATOM     23  N   UNL d   1      25.479 -11.770  -4.192  0.00  0.00    -0.379 N 
ATOM     24  H   UNL d   1      25.193 -10.935  -4.697  0.00  0.00     0.160 HD
BRANCH  23  25
ATOM     25  C   UNL d   1      26.835 -11.808  -3.786  0.00  0.00     0.062 A 
ATOM     26  C   UNL d   1      27.024 -11.310  -2.467  0.00  0.00     0.032 A 
ATOM     27  C   UNL d   1      28.231 -11.422  -1.769  0.00  0.00     0.002 A 
ATOM     28  C   UNL d   1      29.311 -12.042  -2.370  0.00  0.00     0.003 A 
ATOM     29  C   UNL d   1      29.193 -12.504  -3.682  0.00  0.00     0.039 A 
ATOM     30  C   UNL d   1      27.972 -12.432  -4.398  0.00  0.00     0.095 A 
BRANCH  30  31
ATOM     31  O   UNL d   1      28.069 -13.178  -5.573  0.00  0.00    -0.349 OA
BRANCH  31  32
ATOM     32  C   UNL d   1      29.297 -13.841  -5.808  0.00  0.00     0.175 C 
BRANCH  32  33
ATOM     33  C   UNL d   1      29.272 -15.213  -6.461  0.00  0.00     0.026 C 
BRANCH  33  34
ATOM     34  C   UNL d   1      29.512 -16.309  -5.390  0.00  0.00    -0.002 C 
ATOM     35  C   UNL d   1      29.185 -15.761  -4.020  0.00  0.00     0.005 C 
ENDBRANCH  33  34
ENDBRANCH  32  33
ENDBRANCH  31  32
ENDBRANCH  30  31
ENDBRANCH  23  25
ENDBRANCH  22  23
ENDBRANCH   1  22
TORSDOF 10
ENDMDL
MODEL 6
REMARK VINA RESULT:    -7.827      2.192      3.781
REMARK INTER + INTRA:         -13.814
REMARK INTER:                 -10.810
REMARK INTRA:                  -3.004
REMARK CONF_INDEPENDENT:        2.983
REMARK UNBOUND:                -3.004
REMARK  10 active torsions:
REMARK  status: ('A' for Active; 'I' for Inactive)
REMARK    1  A    between atoms: C_2  and  C_3 
REMARK    2  A    between atoms: C_3  and  C_4 
REMARK    3  A    between atoms: C_4  and  O_5 
REMARK    4  A    between atoms: O_5  and  C_6 
REMARK    5  A    between atoms: C_11  and  N_12 
REMARK    6  A    between atoms: N_12  and  C_13 
REMARK    7  A    between atoms: C_13  and  C_14 
REMARK       I    between atoms: C_14  and  N_16 
REMARK    8  A    between atoms: N_16  and  C_17 
REMARK    9  A    between atoms: C_22  and  C_23 
REMARK       I    between atoms: C_23  and  N_25 
REMARK   10  A    between atoms: N_25  and  C_26 
ROOT
ATOM      1  C   UNL d   1      26.521 -14.464  -4.929  0.00  0.00     0.239 C 
ATOM      2  O   UNL d   1      26.617 -15.545  -5.479  0.00  0.00    -0.271 OA
ATOM      3  N   UNL d   1      26.175 -14.245  -3.577  0.00  0.00    -0.326 N 
ATOM      4  H   UNL d   1      25.844 -13.332  -3.277  0.00  0.00     0.169 HD
ENDROOT
BRANCH   3   5
ATOM      5  C   UNL d   1      25.943 -15.312  -2.705  0.00  0.00     0.035 A 
ATOM      6  C   UNL d   1      27.019 -16.034  -2.206  0.00  0.00     0.031 A 
ATOM      7  C   UNL d   1      26.785 -16.970  -1.205  0.00  0.00     0.027 A 
ATOM      8  C   UNL d   1      25.488 -17.185  -0.712  0.00  0.00     0.049 A 
ATOM      9 CL   UNL d   1      25.403 -18.203   0.685  0.00  0.00    -0.083 Cl
ATOM     10  C   UNL d   1      24.384 -16.548  -1.311  0.00  0.00     0.055 A 
ATOM     11  C   UNL d   1      24.640 -15.618  -2.318  0.00  0.00     0.048 A 
BRANCH  10  12
ATOM     12  C   UNL d   1      22.974 -16.852  -0.910  0.00  0.00     0.253 C 
ATOM     13  O   UNL d   1      22.168 -15.955  -0.769  0.00  0.00    -0.268 OA
ATOM     14  N   UNL d   1      22.616 -18.179  -0.676  0.00  0.00    -0.352 N 
ATOM     15  H   UNL d   1      23.267 -18.943  -0.755  0.00  0.00     0.163 HD
BRANCH  14  16
ATOM     16  C   UNL d   1      21.240 -18.513  -0.331  0.00  0.00     0.084 C 
ATOM     17  C   UNL d   1      20.570 -19.294  -1.471  0.00  0.00     0.025 C 
ATOM     18  C   UNL d   1      19.146 -19.699  -1.128  0.00  0.00     0.002 C 
ATOM     19  C   UNL d   1      19.100 -20.505   0.161  0.00  0.00     0.000 C 
ATOM     20  C   UNL d   1      19.742 -19.731   1.308  0.00  0.00     0.002 C 
ATOM     21  C   UNL d   1      21.176 -19.319   0.976  0.00  0.00     0.025 C 
ENDBRANCH  14  16
ENDBRANCH  10  12
ENDBRANCH   3   5
BRANCH   1  22
ATOM     22  C   UNL d   1      26.903 -13.189  -5.610  0.00  0.00     0.223 C 
BRANCH  22  23
ATOM     23  N   UNL d   1      27.853 -12.278  -5.040  0.00  0.00    -0.379 N 
ATOM     24  H   UNL d   1      28.680 -12.751  -4.686  0.00  0.00     0.160 HD
BRANCH  23  25
ATOM     25  C   UNL d   1      27.415 -11.159  -4.290  0.00  0.00     0.062 A 
ATOM     26  C   UNL d   1      27.342  -9.974  -5.072  0.00  0.00     0.032 A 
ATOM     27  C   UNL d   1      26.758  -8.788  -4.617  0.00  0.00     0.002 A 
ATOM     28  C   UNL d   1      26.216  -8.739  -3.344  0.00  0.00     0.003 A 
ATOM     29  C   UNL d   1      26.307  -9.861  -2.519  0.00  0.00     0.039 A 
ATOM     30  C   UNL d   1      26.865 -11.084  -2.968  0.00  0.00     0.095 A 
BRANCH  30  31
ATOM     31  O   UNL d   1      26.605 -12.090  -2.039  0.00  0.00    -0.349 OA
BRANCH  31  32
ATOM     32  C   UNL d   1      27.408 -12.108  -0.875  0.00  0.00     0.175 C 
BRANCH  32  33
ATOM     33  C   UNL d   1      27.461 -13.379  -0.043  0.00  0.00     0.026 C 
BRANCH  33  34
ATOM     34  C   UNL d   1      26.605 -13.204   1.238  0.00  0.00    -0.002 C 
ATOM     35  C   UNL d   1      26.978 -11.912   1.927  0.00  0.00     0.005 C 
ENDBRANCH  33  34
ENDBRANCH  32  33
ENDBRANCH  31  32
ENDBRANCH  30  31
ENDBRANCH  23  25
ENDBRANCH  22  23
ENDBRANCH   1  22
TORSDOF 10
ENDMDL
MODEL 7
REMARK VINA RESULT:    -7.772      2.296      3.297
REMARK INTER + INTRA:         -13.577
REMARK INTER:                 -10.755
REMARK INTRA:                  -2.823
REMARK CONF_INDEPENDENT:        2.983
REMARK UNBOUND:                -2.823
REMARK  10 active torsions:
REMARK  status: ('A' for Active; 'I' for Inactive)
REMARK    1  A    between atoms: C_2  and  C_3 
REMARK    2  A    between atoms: C_3  and  C_4 
REMARK    3  A    between atoms: C_4  and  O_5 
REMARK    4  A    between atoms: O_5  and  C_6 
REMARK    5  A    between atoms: C_11  and  N_12 
REMARK    6  A    between atoms: N_12  and  C_13 
REMARK    7  A    between atoms: C_13  and  C_14 
REMARK       I    between atoms: C_14  and  N_16 
REMARK    8  A    between atoms: N_16  and  C_17 
REMARK    9  A    between atoms: C_22  and  C_23 
REMARK       I    between atoms: C_23  and  N_25 
REMARK   10  A    between atoms: N_25  and  C_26 
ROOT
ATOM      1  C   UNL d   1      26.419 -14.305  -4.720  0.00  0.00     0.239 C 
ATOM      2  O   UNL d   1      26.769 -15.335  -5.268  0.00  0.00    -0.271 OA
ATOM      3  N   UNL d   1      26.018 -14.174  -3.373  0.00  0.00    -0.326 N 
ATOM      4  H   UNL d   1      25.481 -13.363  -3.078  0.00  0.00     0.169 HD
ENDROOT
BRANCH   3   5
ATOM      5  C   UNL d   1      26.030 -15.267  -2.502  0.00  0.00     0.035 A 
ATOM      6  C   UNL d   1      27.240 -15.732  -2.005  0.00  0.00     0.031 A 
ATOM      7  C   UNL d   1      27.222 -16.698  -1.005  0.00  0.00     0.027 A 
ATOM      8  C   UNL d   1      26.006 -17.196  -0.510  0.00  0.00     0.049 A 
ATOM      9 CL   UNL d   1      26.151 -18.208   0.887  0.00  0.00    -0.083 Cl
ATOM     10  C   UNL d   1      24.787 -16.819  -1.105  0.00  0.00     0.055 A 
ATOM     11  C   UNL d   1      24.828 -15.854  -2.113  0.00  0.00     0.048 A 
BRANCH  10  12
ATOM     12  C   UNL d   1      23.479 -17.427  -0.702  0.00  0.00     0.253 C 
ATOM     13  O   UNL d   1      22.599 -16.738  -0.230  0.00  0.00    -0.268 OA
ATOM     14  N   UNL d   1      23.307 -18.803  -0.855  0.00  0.00    -0.352 N 
ATOM     15  H   UNL d   1      24.027 -19.407  -1.216  0.00  0.00     0.163 HD
BRANCH  14  16
ATOM     16  C   UNL d   1      22.031 -19.419  -0.517  0.00  0.00     0.084 C 
ATOM     17  C   UNL d   1      21.551 -18.950   0.865  0.00  0.00     0.025 C 
ATOM     18  C   UNL d   1      20.198 -19.538   1.231  0.00  0.00     0.002 C 
ATOM     19  C   UNL d   1      19.155 -19.216   0.173  0.00  0.00     0.000 C 
ATOM     20  C   UNL d   1      19.608 -19.698  -1.201  0.00  0.00     0.002 C 
ATOM     21  C   UNL d   1      20.967 -19.112  -1.583  0.00  0.00     0.025 C 
ENDBRANCH  14  16
ENDBRANCH  10  12
ENDBRANCH   3   5
BRANCH   1  22
ATOM     22  C   UNL d   1      26.503 -12.976  -5.399  0.00  0.00     0.223 C 
BRANCH  22  23
ATOM     23  N   UNL d   1      25.526 -11.949  -5.184  0.00  0.00    -0.379 N 
ATOM     24  H   UNL d   1      24.955 -11.778  -6.008  0.00  0.00     0.160 HD
BRANCH  23  25
ATOM     25  C   UNL d   1      25.839 -10.810  -4.404  0.00  0.00     0.062 A 
ATOM     26  C   UNL d   1      25.531  -9.592  -5.070  0.00  0.00     0.032 A 
ATOM     27  C   UNL d   1      25.565  -8.343  -4.443  0.00  0.00     0.002 A 
ATOM     28  C   UNL d   1      25.916  -8.260  -3.108  0.00  0.00     0.003 A 
ATOM     29  C   UNL d   1      26.276  -9.421  -2.421  0.00  0.00     0.039 A 
ATOM     30  C   UNL d   1      26.217 -10.701  -3.025  0.00  0.00     0.095 A 
BRANCH  30  31
ATOM     31  O   UNL d   1      26.388 -11.689  -2.055  0.00  0.00    -0.349 OA
BRANCH  31  32
ATOM     32  C   UNL d   1      27.719 -12.015  -1.704  0.00  0.00     0.175 C 
BRANCH  32  33
ATOM     33  C   UNL d   1      28.678 -12.450  -2.801  0.00  0.00     0.026 C 
BRANCH  33  34
ATOM     34  C   UNL d   1      29.996 -11.640  -2.697  0.00  0.00    -0.002 C 
ATOM     35  C   UNL d   1      31.111 -12.542  -2.220  0.00  0.00     0.005 C 
ENDBRANCH  33  34
ENDBRANCH  32  33
ENDBRANCH  31  32
ENDBRANCH  30  31
ENDBRANCH  23  25
ENDBRANCH  22  23
ENDBRANCH   1  22
TORSDOF 10
ENDMDL
MODEL 8
REMARK VINA RESULT:    -7.644      5.800      8.823
REMARK INTER + INTRA:         -13.423
REMARK INTER:                 -10.627
REMARK INTRA:                  -2.796
REMARK CONF_INDEPENDENT:        2.983
REMARK UNBOUND:                -2.796
REMARK  10 active torsions:
REMARK  status: ('A' for Active; 'I' for Inactive)
REMARK    1  A    between atoms: C_2  and  C_3 
REMARK    2  A    between atoms: C_3  and  C_4 
REMARK    3  A    between atoms: C_4  and  O_5 
REMARK    4  A    between atoms: O_5  and  C_6 
REMARK    5  A    between atoms: C_11  and  N_12 
REMARK    6  A    between atoms: N_12  and  C_13 
REMARK    7  A    between atoms: C_13  and  C_14 
REMARK       I    between atoms: C_14  and  N_16 
REMARK    8  A    between atoms: N_16  and  C_17 
REMARK    9  A    between atoms: C_22  and  C_23 
REMARK       I    between atoms: C_23  and  N_25 
REMARK   10  A    between atoms: N_25  and  C_26 
ROOT
ATOM      1  C   UNL d   1      28.147 -15.849   0.185  0.00  0.00     0.239 C 
ATOM      2  O   UNL d   1      29.321 -15.657   0.443  0.00  0.00    -0.271 OA
ATOM      3  N   UNL d   1      27.062 -15.039   0.586  0.00  0.00    -0.326 N 
ATOM      4  H   UNL d   1      26.117 -15.411   0.577  0.00  0.00     0.169 HD
ENDROOT
BRANCH   3   5
ATOM      5  C   UNL d   1      27.265 -13.864   1.316  0.00  0.00     0.035 A 
ATOM      6  C   UNL d   1      27.149 -12.636   0.680  0.00  0.00     0.031 A 
ATOM      7  C   UNL d   1      27.175 -11.481   1.455  0.00  0.00     0.027 A 
ATOM      8  C   UNL d   1      27.318 -11.555   2.850  0.00  0.00     0.049 A 
ATOM      9 CL   UNL d   1      27.093 -10.054   3.682  0.00  0.00    -0.083 Cl
ATOM     10  C   UNL d   1      27.566 -12.791   3.475  0.00  0.00     0.055 A 
ATOM     11  C   UNL d   1      27.544 -13.937   2.679  0.00  0.00     0.048 A 
BRANCH  10  12
ATOM     12  C   UNL d   1      27.863 -12.901   4.939  0.00  0.00     0.253 C 
ATOM     13  O   UNL d   1      27.029 -13.340   5.704  0.00  0.00    -0.268 OA
ATOM     14  N   UNL d   1      29.101 -12.461   5.405  0.00  0.00    -0.352 N 
ATOM     15  H   UNL d   1      29.803 -12.064   4.802  0.00  0.00     0.163 HD
BRANCH  14  16
ATOM     16  C   UNL d   1      29.439 -12.597   6.816  0.00  0.00     0.084 C 
ATOM     17  C   UNL d   1      28.478 -11.772   7.685  0.00  0.00     0.025 C 
ATOM     18  C   UNL d   1      28.773 -11.926   9.168  0.00  0.00     0.002 C 
ATOM     19  C   UNL d   1      28.738 -13.388   9.586  0.00  0.00     0.000 C 
ATOM     20  C   UNL d   1      29.705 -14.216   8.746  0.00  0.00     0.002 C 
ATOM     21  C   UNL d   1      29.418 -14.071   7.251  0.00  0.00     0.025 C 
ENDBRANCH  14  16
ENDBRANCH  10  12
ENDBRANCH   3   5
BRANCH   1  22
ATOM     22  C   UNL d   1      27.704 -16.939  -0.738  0.00  0.00     0.223 C 
BRANCH  22  23
ATOM     23  N   UNL d   1      26.693 -17.885  -0.368  0.00  0.00    -0.379 N 
ATOM     24  H   UNL d   1      26.985 -18.847  -0.525  0.00  0.00     0.160 HD
BRANCH  23  25
ATOM     25  C   UNL d   1      25.325 -17.609  -0.612  0.00  0.00     0.062 A 
ATOM     26  C   UNL d   1      24.469 -18.646  -0.151  0.00  0.00     0.032 A 
ATOM     27  C   UNL d   1      23.077 -18.527  -0.099  0.00  0.00     0.002 A 
ATOM     28  C   UNL d   1      22.477 -17.351  -0.513  0.00  0.00     0.003 A 
ATOM     29  C   UNL d   1      23.270 -16.321  -1.021  0.00  0.00     0.039 A 
ATOM     30  C   UNL d   1      24.684 -16.405  -1.054  0.00  0.00     0.095 A 
BRANCH  30  31
ATOM     31  O   UNL d   1      25.224 -15.159  -1.372  0.00  0.00    -0.349 OA
BRANCH  31  32
ATOM     32  C   UNL d   1      25.005 -14.686  -2.688  0.00  0.00     0.175 C 
BRANCH  32  33
ATOM     33  C   UNL d   1      26.031 -13.751  -3.307  0.00  0.00     0.026 C 
BRANCH  33  34
ATOM     34  C   UNL d   1      26.782 -14.480  -4.451  0.00  0.00    -0.002 C 
ATOM     35  C   UNL d   1      25.907 -15.575  -5.017  0.00  0.00     0.005 C 
ENDBRANCH  33  34
ENDBRANCH  32  33
ENDBRANCH  31  32
ENDBRANCH  30  31
ENDBRANCH  23  25
ENDBRANCH  22  23
ENDBRANCH   1  22
TORSDOF 10
ENDMDL
MODEL 9
REMARK VINA RESULT:    -7.190      4.434      6.850
REMARK INTER + INTRA:         -13.269
REMARK INTER:                 -10.173
REMARK INTRA:                  -3.096
REMARK CONF_INDEPENDENT:        2.983
REMARK UNBOUND:                -3.096
REMARK  10 active torsions:
REMARK  status: ('A' for Active; 'I' for Inactive)
REMARK    1  A    between atoms: C_2  and  C_3 
REMARK    2  A    between atoms: C_3  and  C_4 
REMARK    3  A    between atoms: C_4  and  O_5 
REMARK    4  A    between atoms: O_5  and  C_6 
REMARK    5  A    between atoms: C_11  and  N_12 
REMARK    6  A    between atoms: N_12  and  C_13 
REMARK    7  A    between atoms: C_13  and  C_14 
REMARK       I    between atoms: C_14  and  N_16 
REMARK    8  A    between atoms: N_16  and  C_17 
REMARK    9  A    between atoms: C_22  and  C_23 
REMARK       I    between atoms: C_23  and  N_25 
REMARK   10  A    between atoms: N_25  and  C_26 
ROOT
ATOM      1  C   UNL d   1      27.263 -11.797  -2.178  0.00  0.00     0.239 C 
ATOM      2  O   UNL d   1      28.280 -11.169  -1.952  0.00  0.00    -0.271 OA
ATOM      3  N   UNL d   1      26.986 -13.115  -1.751  0.00  0.00    -0.326 N 
ATOM      4  H   UNL d   1      26.259 -13.657  -2.209  0.00  0.00     0.169 HD
ENDROOT
BRANCH   3   5
ATOM      5  C   UNL d   1      27.890 -13.826  -0.957  0.00  0.00     0.035 A 
ATOM      6  C   UNL d   1      28.734 -14.756  -1.547  0.00  0.00     0.031 A 
ATOM      7  C   UNL d   1      29.746 -15.320  -0.777  0.00  0.00     0.027 A 
ATOM      8  C   UNL d   1      29.909 -14.958   0.570  0.00  0.00     0.049 A 
ATOM      9 CL   UNL d   1      31.348 -15.565   1.315  0.00  0.00    -0.083 Cl
ATOM     10  C   UNL d   1      28.972 -14.116   1.199  0.00  0.00     0.055 A 
ATOM     11  C   UNL d   1      27.960 -13.567   0.411  0.00  0.00     0.048 A 
BRANCH  10  12
ATOM     12  C   UNL d   1      29.027 -13.815   2.665  0.00  0.00     0.253 C 
ATOM     13  O   UNL d   1      29.512 -12.775   3.062  0.00  0.00    -0.268 OA
ATOM     14  N   UNL d   1      28.538 -14.765   3.562  0.00  0.00    -0.352 N 
ATOM     15  H   UNL d   1      28.157 -15.648   3.267  0.00  0.00     0.163 HD
BRANCH  14  16
ATOM     16  C   UNL d   1      28.534 -14.483   4.991  0.00  0.00     0.084 C 
ATOM     17  C   UNL d   1      29.969 -14.412   5.535  0.00  0.00     0.025 C 
ATOM     18  C   UNL d   1      30.004 -14.074   7.016  0.00  0.00     0.002 C 
ATOM     19  C   UNL d   1      29.268 -12.774   7.300  0.00  0.00     0.000 C 
ATOM     20  C   UNL d   1      27.833 -12.839   6.787  0.00  0.00     0.002 C 
ATOM     21  C   UNL d   1      27.784 -13.176   5.297  0.00  0.00     0.025 C 
ENDBRANCH  14  16
ENDBRANCH  10  12
ENDBRANCH   3   5
BRANCH   1  22
ATOM     22  C   UNL d   1      26.078 -11.178  -2.848  0.00  0.00     0.223 C 
BRANCH  22  23
ATOM     23  N   UNL d   1      25.566 -11.671  -4.093  0.00  0.00    -0.379 N 
ATOM     24  H   UNL d   1      24.555 -11.578  -4.160  0.00  0.00     0.160 HD
BRANCH  23  25
ATOM     25  C   UNL d   1      26.118 -12.830  -4.690  0.00  0.00     0.062 A 
ATOM     26  C   UNL d   1      27.226 -12.536  -5.530  0.00  0.00     0.032 A 
ATOM     27  C   UNL d   1      28.059 -13.518  -6.075  0.00  0.00     0.002 A 
ATOM     28  C   UNL d   1      27.813 -14.851  -5.801  0.00  0.00     0.003 A 
ATOM     29  C   UNL d   1      26.707 -15.196  -5.022  0.00  0.00     0.039 A 
ATOM     30  C   UNL d   1      25.868 -14.219  -4.431  0.00  0.00     0.095 A 
BRANCH  30  31
ATOM     31  O   UNL d   1      25.006 -14.826  -3.518  0.00  0.00    -0.349 OA
BRANCH  31  32
ATOM     32  C   UNL d   1      25.528 -15.908  -2.770  0.00  0.00     0.175 C 
BRANCH  32  33
ATOM     33  C   UNL d   1      24.990 -16.153  -1.369  0.00  0.00     0.026 C 
BRANCH  33  34
ATOM     34  C   UNL d   1      24.211 -17.493  -1.333  0.00  0.00    -0.002 C 
ATOM     35  C   UNL d   1      22.958 -17.332  -0.505  0.00  0.00     0.005 C 
ENDBRANCH  33  34
ENDBRANCH  32  33
ENDBRANCH  31  32
ENDBRANCH  30  31
ENDBRANCH  23  25
ENDBRANCH  22  23
ENDBRANCH   1  22
TORSDOF 10
ENDMDL
