MODEL 1
REMARK VINA RESULT:   -10.294      0.000      0.000
REMARK INTER + INTRA:         -14.947
REMARK INTER:                 -13.277
REMARK INTRA:                  -1.670
REMARK CONF_INDEPENDENT:        2.983
REMARK UNBOUND:                -1.670
REMARK  10 active torsions:
REMARK  status: ('A' for Active; 'I' for Inactive)
REMARK    1  A    between atoms: C_2  and  C_4 
REMARK    2  A    between atoms: C_4  and  C_5 
REMARK    3  A    between atoms: C_5  and  O_6 
REMARK    4  A    between atoms: O_6  and  C_7 
REMARK    5  A    between atoms: C_11  and  N_12 
REMARK       I    between atoms: N_12  and  C_13 
REMARK    6  A    between atoms: C_13  and  C_15 
REMARK    7  A    between atoms: C_15  and  N_16 
REMARK    8  A    between atoms: N_16  and  C_17 
REMARK    9  A    between atoms: C_22  and  C_23 
REMARK       I    between atoms: C_23  and  N_25 
REMARK   10  A    between atoms: N_25  and  C_26 
ROOT
ATOM      1  N   UNL d   1      25.633 -12.341  -4.247  0.00  0.00    -0.381 N 
ATOM      2  H   UNL d   1      24.652 -12.459  -4.532  0.00  0.00     0.160 HD
ENDROOT
BRANCH   1   3
ATOM      3  C   UNL d   1      25.879 -12.771  -2.862  0.00  0.00     0.223 C 
BRANCH   3   4
ATOM      4  C   UNL d   1      25.171 -14.106  -2.652  0.00  0.00     0.239 C 
ATOM      5  N   UNL d   1      25.525 -14.833  -1.512  0.00  0.00    -0.326 N 
ATOM      6  H   UNL d   1      26.210 -14.447  -0.872  0.00  0.00     0.169 HD
ATOM      7  O   UNL d   1      24.362 -14.452  -3.518  0.00  0.00    -0.271 OA
BRANCH   5   8
ATOM      8  C   UNL d   1      24.930 -16.075  -1.144  0.00  0.00     0.037 A 
ATOM      9  C   UNL d   1      25.690 -17.115  -0.602  0.00  0.00     0.029 A 
ATOM     10  C   UNL d   1      25.056 -18.298  -0.179  0.00  0.00     0.005 A 
ATOM     11  C   UNL d   1      23.677 -18.473  -0.346  0.00  0.00     0.037 A 
ATOM     12  C   UNL d   1      22.917 -17.451  -0.883  0.00  0.00     0.070 A 
ATOM     13  C   UNL d   1      23.555 -16.279  -1.266  0.00  0.00     0.066 A 
BRANCH  12  14
ATOM     14  O   UNL d   1      21.557 -17.614  -0.914  0.00  0.00    -0.351 OA
BRANCH  14  15
ATOM     15  C   UNL d   1      21.118 -18.957  -1.145  0.00  0.00     0.176 C 
BRANCH  15  16
ATOM     16  C   UNL d   1      19.732 -19.151  -0.538  0.00  0.00     0.030 C 
BRANCH  16  17
ATOM     17  C   UNL d   1      19.716 -20.269   0.519  0.00  0.00    -0.021 C 
ATOM     18  C   UNL d   1      20.084 -19.700   1.889  0.00  0.00     0.009 C 
ATOM     19  C   UNL d   1      18.351 -20.957   0.607  0.00  0.00     0.009 C 
ENDBRANCH  16  17
ENDBRANCH  15  16
ENDBRANCH  14  15
ENDBRANCH  12  14
ENDBRANCH   5   8
ENDBRANCH   3   4
ENDBRANCH   1   3
BRANCH   1  20
ATOM     20  C   UNL d   1      26.547 -12.449  -5.270  0.00  0.00     0.029 A 
ATOM     21  C   UNL d   1      26.578 -11.462  -6.257  0.00  0.00     0.031 A 
ATOM     22  C   UNL d   1      27.462 -11.545  -7.330  0.00  0.00     0.027 A 
ATOM     23  C   UNL d   1      28.379 -12.591  -7.402  0.00  0.00     0.049 A 
ATOM     24 CL   UNL d   1      29.484 -12.486  -8.735  0.00  0.00    -0.083 Cl
ATOM     25  C   UNL d   1      28.368 -13.599  -6.418  0.00  0.00     0.055 A 
ATOM     26  C   UNL d   1      27.453 -13.501  -5.359  0.00  0.00     0.048 A 
BRANCH  25  27
ATOM     27  C   UNL d   1      29.276 -14.765  -6.492  0.00  0.00     0.253 C 
ATOM     28  O   UNL d   1      28.842 -15.861  -6.139  0.00  0.00    -0.268 OA
ATOM     29  N   UNL d   1      30.581 -14.612  -6.941  0.00  0.00    -0.352 N 
ATOM     30  H   UNL d   1      30.897 -13.757  -7.371  0.00  0.00     0.163 HD
BRANCH  29  31
ATOM     31  C   UNL d   1      31.501 -15.745  -7.034  0.00  0.00     0.084 C 
ATOM     32  C   UNL d   1      30.780 -17.050  -7.415  0.00  0.00     0.025 C 
ATOM     33  C   UNL d   1      31.716 -18.217  -7.645  0.00  0.00     0.002 C 
ATOM     34  C   UNL d   1      32.803 -17.845  -8.648  0.00  0.00     0.000 C 
ATOM     35  C   UNL d   1      33.582 -16.623  -8.178  0.00  0.00     0.002 C 
ATOM     36  C   UNL d   1      32.664 -15.420  -7.977  0.00  0.00     0.025 C 
ENDBRANCH  29  31
ENDBRANCH  25  27
ENDBRANCH   1  20
TORSDOF 10
ENDMDL
MODEL 2
REMARK VINA RESULT:    -9.824      2.782     10.374
REMARK INTER + INTRA:         -14.777
REMARK INTER:                 -12.807
REMARK INTRA:                  -1.970
REMARK CONF_INDEPENDENT:        2.983
REMARK UNBOUND:                -1.970
REMARK  10 active torsions:
REMARK  status: ('A' for Active; 'I' for Inactive)
REMARK    1  A    between atoms: C_2  and  C_4 
REMARK    2  A    between atoms: C_4  and  C_5 
REMARK    3  A    between atoms: C_5  and  O_6 
REMARK    4  A    between atoms: O_6  and  C_7 
REMARK    5  A    between atoms: C_11  and  N_12 
REMARK       I    between atoms: N_12  and  C_13 
REMARK    6  A    between atoms: C_13  and  C_15 
REMARK    7  A    between atoms: C_15  and  N_16 
REMARK    8  A    between atoms: N_16  and  C_17 
REMARK    9  A    between atoms: C_22  and  C_23 
REMARK       I    between atoms: C_23  and  N_25 
REMARK   10  A    between atoms: N_25  and  C_26 
ROOT
ATOM      1  N   UNL d   1      25.357 -13.680  -2.980  0.00  0.00    -0.381 N 
ATOM      2  H   UNL d   1      25.756 -12.809  -2.607  0.00  0.00     0.160 HD
ENDROOT
BRANCH   1   3
ATOM      3  C   UNL d   1      25.396 -13.740  -4.449  0.00  0.00     0.223 C 
BRANCH   3   4
ATOM      4  C   UNL d   1      26.419 -14.799  -4.849  0.00  0.00     0.239 C 
ATOM      5  N   UNL d   1      27.750 -14.549  -4.507  0.00  0.00    -0.326 N 
ATOM      6  H   UNL d   1      27.980 -13.700  -4.003  0.00  0.00     0.169 HD
ATOM      7  O   UNL d   1      25.995 -15.781  -5.466  0.00  0.00    -0.271 OA
BRANCH   5   8
ATOM      8  C   UNL d   1      28.822 -15.451  -4.768  0.00  0.00     0.037 A 
ATOM      9  C   UNL d   1      29.323 -16.295  -3.773  0.00  0.00     0.029 A 
ATOM     10  C   UNL d   1      30.329 -17.228  -4.089  0.00  0.00     0.005 A 
ATOM     11  C   UNL d   1      30.878 -17.285  -5.374  0.00  0.00     0.037 A 
ATOM     12  C   UNL d   1      30.390 -16.453  -6.365  0.00  0.00     0.070 A 
ATOM     13  C   UNL d   1      29.376 -15.561  -6.044  0.00  0.00     0.066 A 
BRANCH  12  14
ATOM     14  O   UNL d   1      30.868 -16.626  -7.638  0.00  0.00    -0.351 OA
BRANCH  14  15
ATOM     15  C   UNL d   1      32.280 -16.844  -7.726  0.00  0.00     0.176 C 
BRANCH  15  16
ATOM     16  C   UNL d   1      32.552 -18.322  -7.985  0.00  0.00     0.030 C 
BRANCH  16  17
ATOM     17  C   UNL d   1      31.311 -19.050  -8.528  0.00  0.00    -0.021 C 
ATOM     18  C   UNL d   1      31.654 -19.769  -9.833  0.00  0.00     0.009 C 
ATOM     19  C   UNL d   1      30.753 -20.062  -7.524  0.00  0.00     0.009 C 
ENDBRANCH  16  17
ENDBRANCH  15  16
ENDBRANCH  14  15
ENDBRANCH  12  14
ENDBRANCH   5   8
ENDBRANCH   3   4
ENDBRANCH   1   3
BRANCH   1  20
ATOM     20  C   UNL d   1      25.483 -14.772  -2.152  0.00  0.00     0.029 A 
ATOM     21  C   UNL d   1      26.654 -14.924  -1.406  0.00  0.00     0.031 A 
ATOM     22  C   UNL d   1      26.842 -16.029  -0.581  0.00  0.00     0.027 A 
ATOM     23  C   UNL d   1      25.831 -16.977  -0.438  0.00  0.00     0.049 A 
ATOM     24 CL   UNL d   1      26.177 -18.227   0.713  0.00  0.00    -0.083 Cl
ATOM     25  C   UNL d   1      24.640 -16.845  -1.179  0.00  0.00     0.055 A 
ATOM     26  C   UNL d   1      24.486 -15.732  -2.018  0.00  0.00     0.048 A 
BRANCH  25  27
ATOM     27  C   UNL d   1      23.569 -17.864  -1.112  0.00  0.00     0.253 C 
ATOM     28  O   UNL d   1      23.438 -18.630  -2.065  0.00  0.00    -0.268 OA
ATOM     29  N   UNL d   1      22.737 -17.936  -0.003  0.00  0.00    -0.352 N 
ATOM     30  H   UNL d   1      22.929 -17.417   0.839  0.00  0.00     0.163 HD
BRANCH  29  31
ATOM     31  C   UNL d   1      21.673 -18.935   0.097  0.00  0.00     0.084 C 
ATOM     32  C   UNL d   1      21.025 -18.957   1.492  0.00  0.00     0.025 C 
ATOM     33  C   UNL d   1      19.836 -19.888   1.595  0.00  0.00     0.002 C 
ATOM     34  C   UNL d   1      18.824 -19.592   0.495  0.00  0.00     0.000 C 
ATOM     35  C   UNL d   1      19.468 -19.703  -0.882  0.00  0.00     0.002 C 
ATOM     36  C   UNL d   1      20.647 -18.744  -1.025  0.00  0.00     0.025 C 
ENDBRANCH  29  31
ENDBRANCH  25  27
ENDBRANCH   1  20
TORSDOF 10
ENDMDL
MODEL 3
REMARK VINA RESULT:    -9.766      2.817     10.007
REMARK INTER + INTRA:         -14.430
REMARK INTER:                 -12.749
REMARK INTRA:                  -1.682
REMARK CONF_INDEPENDENT:        2.983
REMARK UNBOUND:                -1.682
REMARK  10 active torsions:
REMARK  status: ('A' for Active; 'I' for Inactive)
REMARK    1  A    between atoms: C_2  and  C_4 
REMARK    2  A    between atoms: C_4  and  C_5 
REMARK    3  A    between atoms: C_5  and  O_6 
REMARK    4  A    between atoms: O_6  and  C_7 
REMARK    5  A    between atoms: C_11  and  N_12 
REMARK       I    between atoms: N_12  and  C_13 
REMARK    6  A    between atoms: C_13  and  C_15 
REMARK    7  A    between atoms: C_15  and  N_16 
REMARK    8  A    between atoms: N_16  and  C_17 
REMARK    9  A    between atoms: C_22  and  C_23 
REMARK       I    between atoms: C_23  and  N_25 
REMARK   10  A    between atoms: N_25  and  C_26 
ROOT
ATOM      1  N   UNL d   1      24.845 -13.858  -2.985  0.00  0.00    -0.381 N 
ATOM      2  H   UNL d   1      25.028 -12.931  -2.580  0.00  0.00     0.160 HD
ENDROOT
BRANCH   1   3
ATOM      3  C   UNL d   1      24.843 -13.846  -4.456  0.00  0.00     0.223 C 
BRANCH   3   4
ATOM      4  C   UNL d   1      25.946 -14.784  -4.936  0.00  0.00     0.239 C 
ATOM      5  N   UNL d   1      27.229 -14.243  -5.045  0.00  0.00    -0.326 N 
ATOM      6  H   UNL d   1      27.380 -13.273  -4.790  0.00  0.00     0.169 HD
ATOM      7  O   UNL d   1      25.614 -15.940  -5.216  0.00  0.00    -0.271 OA
BRANCH   5   8
ATOM      8  C   UNL d   1      28.378 -14.991  -5.436  0.00  0.00     0.037 A 
ATOM      9  C   UNL d   1      29.106 -14.663  -6.583  0.00  0.00     0.029 A 
ATOM     10  C   UNL d   1      30.279 -15.376  -6.894  0.00  0.00     0.005 A 
ATOM     11  C   UNL d   1      30.699 -16.449  -6.101  0.00  0.00     0.037 A 
ATOM     12  C   UNL d   1      29.984 -16.783  -4.965  0.00  0.00     0.070 A 
ATOM     13  C   UNL d   1      28.847 -16.049  -4.656  0.00  0.00     0.066 A 
BRANCH  12  14
ATOM     14  O   UNL d   1      30.497 -17.758  -4.150  0.00  0.00    -0.351 OA
BRANCH  14  15
ATOM     15  C   UNL d   1      31.354 -18.699  -4.806  0.00  0.00     0.176 C 
BRANCH  15  16
ATOM     16  C   UNL d   1      30.555 -19.944  -5.176  0.00  0.00     0.030 C 
BRANCH  16  17
ATOM     17  C   UNL d   1      30.908 -20.459  -6.582  0.00  0.00    -0.021 C 
ATOM     18  C   UNL d   1      30.783 -19.327  -7.602  0.00  0.00     0.009 C 
ATOM     19  C   UNL d   1      32.324 -21.040  -6.642  0.00  0.00     0.009 C 
ENDBRANCH  16  17
ENDBRANCH  15  16
ENDBRANCH  14  15
ENDBRANCH  12  14
ENDBRANCH   5   8
ENDBRANCH   3   4
ENDBRANCH   1   3
BRANCH   1  20
ATOM     20  C   UNL d   1      25.270 -14.918  -2.216  0.00  0.00     0.029 A 
ATOM     21  C   UNL d   1      26.624 -15.014  -1.886  0.00  0.00     0.031 A 
ATOM     22  C   UNL d   1      27.108 -16.085  -1.140  0.00  0.00     0.027 A 
ATOM     23  C   UNL d   1      26.232 -17.053  -0.654  0.00  0.00     0.049 A 
ATOM     24 CL   UNL d   1      26.975 -18.254   0.353  0.00  0.00    -0.083 Cl
ATOM     25  C   UNL d   1      24.862 -16.978  -0.974  0.00  0.00     0.055 A 
ATOM     26  C   UNL d   1      24.405 -15.899  -1.744  0.00  0.00     0.048 A 
BRANCH  25  27
ATOM     27  C   UNL d   1      23.906 -18.022  -0.540  0.00  0.00     0.253 C 
ATOM     28  O   UNL d   1      24.337 -18.956   0.135  0.00  0.00    -0.268 OA
ATOM     29  N   UNL d   1      22.568 -17.943  -0.900  0.00  0.00    -0.352 N 
ATOM     30  H   UNL d   1      22.181 -17.113  -1.321  0.00  0.00     0.163 HD
BRANCH  29  31
ATOM     31  C   UNL d   1      21.598 -18.954  -0.482  0.00  0.00     0.084 C 
ATOM     32  C   UNL d   1      21.372 -18.950   1.039  0.00  0.00     0.025 C 
ATOM     33  C   UNL d   1      20.281 -19.895   1.495  0.00  0.00     0.002 C 
ATOM     34  C   UNL d   1      18.992 -19.641   0.721  0.00  0.00     0.000 C 
ATOM     35  C   UNL d   1      19.222 -19.778  -0.779  0.00  0.00     0.002 C 
ATOM     36  C   UNL d   1      20.292 -18.806  -1.270  0.00  0.00     0.025 C 
ENDBRANCH  29  31
ENDBRANCH  25  27
ENDBRANCH   1  20
TORSDOF 10
ENDMDL
MODEL 4
REMARK VINA RESULT:    -9.669      4.697      7.462
REMARK INTER + INTRA:         -14.088
REMARK INTER:                 -12.652
REMARK INTRA:                  -1.436
REMARK CONF_INDEPENDENT:        2.983
REMARK UNBOUND:                -1.436
REMARK  10 active torsions:
REMARK  status: ('A' for Active; 'I' for Inactive)
REMARK    1  A    between atoms: C_2  and  C_4 
REMARK    2  A    between atoms: C_4  and  C_5 
REMARK    3  A    between atoms: C_5  and  O_6 
REMARK    4  A    between atoms: O_6  and  C_7 
REMARK    5  A    between atoms: C_11  and  N_12 
REMARK       I    between atoms: N_12  and  C_13 
REMARK    6  A    between atoms: C_13  and  C_15 
REMARK    7  A    between atoms: C_15  and  N_16 
REMARK    8  A    between atoms: N_16  and  C_17 
REMARK    9  A    between atoms: C_22  and  C_23 
REMARK       I    between atoms: C_23  and  N_25 
REMARK   10  A    between atoms: N_25  and  C_26 
ROOT
ATOM      1  N   UNL d   1      26.715 -12.804  -2.228  0.00  0.00    -0.381 N 
ATOM      2  H   UNL d   1      26.762 -11.777  -2.255  0.00  0.00     0.160 HD
ENDROOT
BRANCH   1   3
ATOM      3  C   UNL d   1      26.109 -13.377  -3.439  0.00  0.00     0.223 C 
BRANCH   3   4
ATOM      4  C   UNL d   1      25.594 -14.771  -3.093  0.00  0.00     0.239 C 
ATOM      5  N   UNL d   1      25.400 -15.052  -1.738  0.00  0.00    -0.326 N 
ATOM      6  H   UNL d   1      25.589 -14.330  -1.052  0.00  0.00     0.169 HD
ATOM      7  O   UNL d   1      25.414 -15.550  -4.034  0.00  0.00    -0.271 OA
BRANCH   5   8
ATOM      8  C   UNL d   1      24.885 -16.287  -1.247  0.00  0.00     0.037 A 
ATOM      9  C   UNL d   1      25.723 -17.253  -0.683  0.00  0.00     0.029 A 
ATOM     10  C   UNL d   1      25.168 -18.426  -0.138  0.00  0.00     0.005 A 
ATOM     11  C   UNL d   1      23.792 -18.668  -0.202  0.00  0.00     0.037 A 
ATOM     12  C   UNL d   1      22.955 -17.719  -0.760  0.00  0.00     0.070 A 
ATOM     13  C   UNL d   1      23.516 -16.553  -1.265  0.00  0.00     0.066 A 
BRANCH  12  14
ATOM     14  O   UNL d   1      21.604 -17.938  -0.693  0.00  0.00    -0.351 OA
BRANCH  14  15
ATOM     15  C   UNL d   1      21.224 -19.312  -0.554  0.00  0.00     0.176 C 
BRANCH  15  16
ATOM     16  C   UNL d   1      19.734 -19.398  -0.241  0.00  0.00     0.030 C 
BRANCH  16  17
ATOM     17  C   UNL d   1      19.405 -20.592   0.672  0.00  0.00    -0.021 C 
ATOM     18  C   UNL d   1      19.437 -20.156   2.137  0.00  0.00     0.009 C 
ATOM     19  C   UNL d   1      18.035 -21.197   0.355  0.00  0.00     0.009 C 
ENDBRANCH  16  17
ENDBRANCH  15  16
ENDBRANCH  14  15
ENDBRANCH  12  14
ENDBRANCH   5   8
ENDBRANCH   3   4
ENDBRANCH   1   3
BRANCH   1  20
ATOM     20  C   UNL d   1      27.712 -13.408  -1.495  0.00  0.00     0.029 A 
ATOM     21  C   UNL d   1      28.572 -14.304  -2.134  0.00  0.00     0.031 A 
ATOM     22  C   UNL d   1      29.573 -14.966  -1.428  0.00  0.00     0.027 A 
ATOM     23  C   UNL d   1      29.774 -14.695  -0.077  0.00  0.00     0.049 A 
ATOM     24 CL   UNL d   1      31.132 -15.513   0.626  0.00  0.00    -0.083 Cl
ATOM     25  C   UNL d   1      28.920 -13.794   0.589  0.00  0.00     0.055 A 
ATOM     26  C   UNL d   1      27.906 -13.157  -0.141  0.00  0.00     0.048 A 
BRANCH  25  27
ATOM     27  C   UNL d   1      29.051 -13.530   2.040  0.00  0.00     0.253 C 
ATOM     28  O   UNL d   1      28.656 -12.447   2.469  0.00  0.00    -0.268 OA
ATOM     29  N   UNL d   1      29.615 -14.482   2.878  0.00  0.00    -0.352 N 
ATOM     30  H   UNL d   1      29.801 -15.421   2.565  0.00  0.00     0.163 HD
BRANCH  29  31
ATOM     31  C   UNL d   1      29.752 -14.254   4.317  0.00  0.00     0.084 C 
ATOM     32  C   UNL d   1      30.226 -12.827   4.637  0.00  0.00     0.025 C 
ATOM     33  C   UNL d   1      30.258 -12.514   6.118  0.00  0.00     0.002 C 
ATOM     34  C   UNL d   1      28.913 -12.833   6.763  0.00  0.00     0.000 C 
ATOM     35  C   UNL d   1      28.532 -14.291   6.535  0.00  0.00     0.002 C 
ATOM     36  C   UNL d   1      28.456 -14.621   5.047  0.00  0.00     0.025 C 
ENDBRANCH  29  31
ENDBRANCH  25  27
ENDBRANCH   1  20
TORSDOF 10
ENDMDL
MODEL 5
REMARK VINA RESULT:    -9.297      2.802     10.867
REMARK INTER + INTRA:         -14.177
REMARK INTER:                 -12.280
REMARK INTRA:                  -1.896
REMARK CONF_INDEPENDENT:        2.983
REMARK UNBOUND:                -1.896
REMARK  10 active torsions:
REMARK  status: ('A' for Active; 'I' for Inactive)
REMARK    1  A    between atoms: C_2  and  C_4 
REMARK    2  A    between atoms: C_4  and  C_5 
REMARK    3  A    between atoms: C_5  and  O_6 
REMARK    4  A    between atoms: O_6  and  C_7 
REMARK    5  A    between atoms: C_11  and  N_12 
REMARK       I    between atoms: N_12  and  C_13 
REMARK    6  A    between atoms: C_13  and  C_15 
REMARK    7  A    between atoms: C_15  and  N_16 
REMARK    8  A    between atoms: N_16  and  C_17 
REMARK    9  A    between atoms: C_22  and  C_23 
REMARK       I    between atoms: C_23  and  N_25 
REMARK   10  A    between atoms: N_25  and  C_26 
ROOT
ATOM      1  N   UNL d   1      24.530 -13.972  -2.788  0.00  0.00    -0.381 N 
ATOM      2  H   UNL d   1      24.651 -13.072  -2.307  0.00  0.00     0.160 HD
ENDROOT
BRANCH   1   3
ATOM      3  C   UNL d   1      24.777 -13.881  -4.236  0.00  0.00     0.223 C 
BRANCH   3   4
ATOM      4  C   UNL d   1      25.888 -14.867  -4.586  0.00  0.00     0.239 C 
ATOM      5  N   UNL d   1      27.200 -14.394  -4.500  0.00  0.00    -0.326 N 
ATOM      6  H   UNL d   1      27.363 -13.440  -4.199  0.00  0.00     0.169 HD
ATOM      7  O   UNL d   1      25.540 -15.997  -4.942  0.00  0.00    -0.271 OA
BRANCH   5   8
ATOM      8  C   UNL d   1      28.352 -15.195  -4.750  0.00  0.00     0.037 A 
ATOM      9  C   UNL d   1      28.924 -15.983  -3.748  0.00  0.00     0.029 A 
ATOM     10  C   UNL d   1      30.014 -16.820  -4.053  0.00  0.00     0.005 A 
ATOM     11  C   UNL d   1      30.573 -16.832  -5.335  0.00  0.00     0.037 A 
ATOM     12  C   UNL d   1      30.016 -16.055  -6.334  0.00  0.00     0.070 A 
ATOM     13  C   UNL d   1      28.922 -15.258  -6.022  0.00  0.00     0.066 A 
BRANCH  12  14
ATOM     14  O   UNL d   1      30.514 -16.189  -7.602  0.00  0.00    -0.351 OA
BRANCH  14  15
ATOM     15  C   UNL d   1      31.774 -16.865  -7.685  0.00  0.00     0.176 C 
BRANCH  15  16
ATOM     16  C   UNL d   1      32.852 -15.881  -8.127  0.00  0.00     0.030 C 
BRANCH  16  17
ATOM     17  C   UNL d   1      32.281 -14.475  -8.378  0.00  0.00    -0.021 C 
ATOM     18  C   UNL d   1      32.245 -13.683  -7.072  0.00  0.00     0.009 C 
ATOM     19  C   UNL d   1      33.096 -13.701  -9.418  0.00  0.00     0.009 C 
ENDBRANCH  16  17
ENDBRANCH  15  16
ENDBRANCH  14  15
ENDBRANCH  12  14
ENDBRANCH   5   8
ENDBRANCH   3   4
ENDBRANCH   1   3
BRANCH   1  20
ATOM     20  C   UNL d   1      24.806 -15.080  -2.020  0.00  0.00     0.029 A 
ATOM     21  C   UNL d   1      26.062 -15.190  -1.419  0.00  0.00     0.031 A 
ATOM     22  C   UNL d   1      26.401 -16.307  -0.661  0.00  0.00     0.027 A 
ATOM     23  C   UNL d   1      25.463 -17.312  -0.436  0.00  0.00     0.049 A 
ATOM     24 CL   UNL d   1      26.003 -18.575   0.623  0.00  0.00    -0.083 Cl
ATOM     25  C   UNL d   1      24.189 -17.223  -1.031  0.00  0.00     0.055 A 
ATOM     26  C   UNL d   1      23.881 -16.097  -1.807  0.00  0.00     0.048 A 
BRANCH  25  27
ATOM     27  C   UNL d   1      23.186 -18.301  -0.878  0.00  0.00     0.253 C 
ATOM     28  O   UNL d   1      23.281 -19.288  -1.606  0.00  0.00    -0.268 OA
ATOM     29  N   UNL d   1      22.166 -18.184   0.057  0.00  0.00    -0.352 N 
ATOM     30  H   UNL d   1      22.167 -17.457   0.754  0.00  0.00     0.163 HD
BRANCH  29  31
ATOM     31  C   UNL d   1      21.164 -19.234   0.237  0.00  0.00     0.084 C 
ATOM     32  C   UNL d   1      20.672 -19.325   1.692  0.00  0.00     0.025 C 
ATOM     33  C   UNL d   1      19.543 -20.312   1.891  0.00  0.00     0.002 C 
ATOM     34  C   UNL d   1      18.405 -20.032   0.916  0.00  0.00     0.000 C 
ATOM     35  C   UNL d   1      18.900 -20.075  -0.525  0.00  0.00     0.002 C 
ATOM     36  C   UNL d   1      20.015 -19.059  -0.761  0.00  0.00     0.025 C 
ENDBRANCH  29  31
ENDBRANCH  25  27
ENDBRANCH   1  20
TORSDOF 10
ENDMDL
MODEL 6
REMARK VINA RESULT:    -9.287      4.198      7.306
REMARK INTER + INTRA:         -13.581
REMARK INTER:                 -12.270
REMARK INTRA:                  -1.311
REMARK CONF_INDEPENDENT:        2.983
REMARK UNBOUND:                -1.311
REMARK  10 active torsions:
REMARK  status: ('A' for Active; 'I' for Inactive)
REMARK    1  A    between atoms: C_2  and  C_4 
REMARK    2  A    between atoms: C_4  and  C_5 
REMARK    3  A    between atoms: C_5  and  O_6 
REMARK    4  A    between atoms: O_6  and  C_7 
REMARK    5  A    between atoms: C_11  and  N_12 
REMARK       I    between atoms: N_12  and  C_13 
REMARK    6  A    between atoms: C_13  and  C_15 
REMARK    7  A    between atoms: C_15  and  N_16 
REMARK    8  A    between atoms: N_16  and  C_17 
REMARK    9  A    between atoms: C_22  and  C_23 
REMARK       I    between atoms: C_23  and  N_25 
REMARK   10  A    between atoms: N_25  and  C_26 
ROOT
ATOM      1  N   UNL d   1      25.669 -12.656  -3.151  0.00  0.00    -0.381 N 
ATOM      2  H   UNL d   1      24.656 -12.790  -3.043  0.00  0.00     0.160 HD
ENDROOT
BRANCH   1   3
ATOM      3  C   UNL d   1      26.302 -13.718  -3.949  0.00  0.00     0.223 C 
BRANCH   3   4
ATOM      4  C   UNL d   1      25.822 -15.062  -3.408  0.00  0.00     0.239 C 
ATOM      5  N   UNL d   1      25.807 -15.212  -2.020  0.00  0.00    -0.326 N 
ATOM      6  H   UNL d   1      26.092 -14.435  -1.435  0.00  0.00     0.169 HD
ATOM      7  O   UNL d   1      25.511 -15.919  -4.240  0.00  0.00    -0.271 OA
BRANCH   5   8
ATOM      8  C   UNL d   1      25.348 -16.384  -1.351  0.00  0.00     0.037 A 
ATOM      9  C   UNL d   1      26.084 -16.970  -0.318  0.00  0.00     0.029 A 
ATOM     10  C   UNL d   1      25.561 -18.081   0.371  0.00  0.00     0.005 A 
ATOM     11  C   UNL d   1      24.337 -18.646  -0.003  0.00  0.00     0.037 A 
ATOM     12  C   UNL d   1      23.602 -18.075  -1.025  0.00  0.00     0.070 A 
ATOM     13  C   UNL d   1      24.118 -16.961  -1.673  0.00  0.00     0.066 A 
BRANCH  12  14
ATOM     14  O   UNL d   1      22.354 -18.583  -1.277  0.00  0.00    -0.351 OA
BRANCH  14  15
ATOM     15  C   UNL d   1      21.563 -18.840  -0.111  0.00  0.00     0.176 C 
BRANCH  15  16
ATOM     16  C   UNL d   1      20.216 -19.420  -0.528  0.00  0.00     0.030 C 
BRANCH  16  17
ATOM     17  C   UNL d   1      19.709 -20.477   0.469  0.00  0.00    -0.021 C 
ATOM     18  C   UNL d   1      19.881 -19.971   1.900  0.00  0.00     0.009 C 
ATOM     19  C   UNL d   1      18.239 -20.833   0.230  0.00  0.00     0.009 C 
ENDBRANCH  16  17
ENDBRANCH  15  16
ENDBRANCH  14  15
ENDBRANCH  12  14
ENDBRANCH   5   8
ENDBRANCH   3   4
ENDBRANCH   1   3
BRANCH   1  20
ATOM     20  C   UNL d   1      26.082 -11.343  -3.135  0.00  0.00     0.029 A 
ATOM     21  C   UNL d   1      27.071 -10.956  -2.228  0.00  0.00     0.031 A 
ATOM     22  C   UNL d   1      27.497  -9.633  -2.151  0.00  0.00     0.027 A 
ATOM     23  C   UNL d   1      26.985  -8.680  -3.028  0.00  0.00     0.049 A 
ATOM     24 CL   UNL d   1      27.702  -7.108  -2.880  0.00  0.00    -0.083 Cl
ATOM     25  C   UNL d   1      25.987  -9.046  -3.953  0.00  0.00     0.055 A 
ATOM     26  C   UNL d   1      25.561 -10.381  -3.995  0.00  0.00     0.048 A 
BRANCH  25  27
ATOM     27  C   UNL d   1      25.363  -8.052  -4.855  0.00  0.00     0.253 C 
ATOM     28  O   UNL d   1      26.052  -7.573  -5.754  0.00  0.00    -0.268 OA
ATOM     29  N   UNL d   1      24.040  -7.672  -4.673  0.00  0.00    -0.352 N 
ATOM     30  H   UNL d   1      23.430  -8.163  -4.040  0.00  0.00     0.163 HD
BRANCH  29  31
ATOM     31  C   UNL d   1      23.393  -6.697  -5.550  0.00  0.00     0.084 C 
ATOM     32  C   UNL d   1      23.188  -7.242  -6.974  0.00  0.00     0.025 C 
ATOM     33  C   UNL d   1      22.407  -6.311  -7.875  0.00  0.00     0.002 C 
ATOM     34  C   UNL d   1      21.091  -5.907  -7.220  0.00  0.00     0.000 C 
ATOM     35  C   UNL d   1      21.336  -5.254  -5.865  0.00  0.00     0.002 C 
ATOM     36  C   UNL d   1      22.090  -6.189  -4.923  0.00  0.00     0.025 C 
ENDBRANCH  29  31
ENDBRANCH  25  27
ENDBRANCH   1  20
TORSDOF 10
ENDMDL
MODEL 7
REMARK VINA RESULT:    -9.150      2.663      3.403
REMARK INTER + INTRA:         -13.965
REMARK INTER:                 -12.133
REMARK INTRA:                  -1.832
REMARK CONF_INDEPENDENT:        2.983
REMARK UNBOUND:                -1.832
REMARK  10 active torsions:
REMARK  status: ('A' for Active; 'I' for Inactive)
REMARK    1  A    between atoms: C_2  and  C_4 
REMARK    2  A    between atoms: C_4  and  C_5 
REMARK    3  A    between atoms: C_5  and  O_6 
REMARK    4  A    between atoms: O_6  and  C_7 
REMARK    5  A    between atoms: C_11  and  N_12 
REMARK       I    between atoms: N_12  and  C_13 
REMARK    6  A    between atoms: C_13  and  C_15 
REMARK    7  A    between atoms: C_15  and  N_16 
REMARK    8  A    between atoms: N_16  and  C_17 
REMARK    9  A    between atoms: C_22  and  C_23 
REMARK       I    between atoms: C_23  and  N_25 
REMARK   10  A    between atoms: N_25  and  C_26 
ROOT
ATOM      1  N   UNL d   1      27.306 -13.076  -2.850  0.00  0.00    -0.381 N 
ATOM      2  H   UNL d   1      27.717 -12.149  -3.014  0.00  0.00     0.160 HD
ENDROOT
BRANCH   1   3
ATOM      3  C   UNL d   1      26.106 -13.320  -3.666  0.00  0.00     0.223 C 
BRANCH   3   4
ATOM      4  C   UNL d   1      25.521 -14.667  -3.252  0.00  0.00     0.239 C 
ATOM      5  N   UNL d   1      25.480 -14.942  -1.883  0.00  0.00    -0.326 N 
ATOM      6  H   UNL d   1      25.817 -14.245  -1.229  0.00  0.00     0.169 HD
ATOM      7  O   UNL d   1      25.155 -15.419  -4.160  0.00  0.00    -0.271 OA
BRANCH   5   8
ATOM      8  C   UNL d   1      24.927 -16.132  -1.327  0.00  0.00     0.037 A 
ATOM      9  C   UNL d   1      25.738 -17.104  -0.733  0.00  0.00     0.029 A 
ATOM     10  C   UNL d   1      25.149 -18.229  -0.125  0.00  0.00     0.005 A 
ATOM     11  C   UNL d   1      23.763 -18.419  -0.156  0.00  0.00     0.037 A 
ATOM     12  C   UNL d   1      22.953 -17.464  -0.742  0.00  0.00     0.070 A 
ATOM     13  C   UNL d   1      23.548 -16.346  -1.310  0.00  0.00     0.066 A 
BRANCH  12  14
ATOM     14  O   UNL d   1      21.596 -17.628  -0.642  0.00  0.00    -0.351 OA
BRANCH  14  15
ATOM     15  C   UNL d   1      21.163 -18.985  -0.502  0.00  0.00     0.176 C 
BRANCH  15  16
ATOM     16  C   UNL d   1      19.639 -19.031  -0.458  0.00  0.00     0.030 C 
BRANCH  16  17
ATOM     17  C   UNL d   1      19.119 -19.699   0.827  0.00  0.00    -0.021 C 
ATOM     18  C   UNL d   1      18.942 -21.200   0.602  0.00  0.00     0.009 C 
ATOM     19  C   UNL d   1      20.060 -19.472   2.013  0.00  0.00     0.009 C 
ENDBRANCH  16  17
ENDBRANCH  15  16
ENDBRANCH  14  15
ENDBRANCH  12  14
ENDBRANCH   5   8
ENDBRANCH   3   4
ENDBRANCH   1   3
BRANCH   1  20
ATOM     20  C   UNL d   1      28.207 -14.049  -2.482  0.00  0.00     0.029 A 
ATOM     21  C   UNL d   1      28.393 -14.319  -1.124  0.00  0.00     0.031 A 
ATOM     22  C   UNL d   1      29.318 -15.270  -0.701  0.00  0.00     0.027 A 
ATOM     23  C   UNL d   1      30.031 -16.017  -1.634  0.00  0.00     0.049 A 
ATOM     24 CL   UNL d   1      31.054 -17.238  -0.947  0.00  0.00    -0.083 Cl
ATOM     25  C   UNL d   1      29.860 -15.764  -3.010  0.00  0.00     0.055 A 
ATOM     26  C   UNL d   1      28.938 -14.786  -3.408  0.00  0.00     0.048 A 
BRANCH  25  27
ATOM     27  C   UNL d   1      30.650 -16.484  -4.035  0.00  0.00     0.253 C 
ATOM     28  O   UNL d   1      31.775 -16.064  -4.299  0.00  0.00    -0.268 OA
ATOM     29  N   UNL d   1      30.118 -17.593  -4.679  0.00  0.00    -0.352 N 
ATOM     30  H   UNL d   1      29.266 -18.030  -4.366  0.00  0.00     0.163 HD
BRANCH  29  31
ATOM     31  C   UNL d   1      30.875 -18.330  -5.691  0.00  0.00     0.084 C 
ATOM     32  C   UNL d   1      30.449 -19.806  -5.775  0.00  0.00     0.025 C 
ATOM     33  C   UNL d   1      31.119 -20.569  -6.897  0.00  0.00     0.002 C 
ATOM     34  C   UNL d   1      30.938 -19.841  -8.225  0.00  0.00     0.000 C 
ATOM     35  C   UNL d   1      31.485 -18.421  -8.147  0.00  0.00     0.002 C 
ATOM     36  C   UNL d   1      30.797 -17.618  -7.046  0.00  0.00     0.025 C 
ENDBRANCH  29  31
ENDBRANCH  25  27
ENDBRANCH   1  20
TORSDOF 10
ENDMDL
MODEL 8
REMARK VINA RESULT:    -8.836      3.291      9.782
REMARK INTER + INTRA:         -14.136
REMARK INTER:                 -11.819
REMARK INTRA:                  -2.318
REMARK CONF_INDEPENDENT:        2.983
REMARK UNBOUND:                -2.318
REMARK  10 active torsions:
REMARK  status: ('A' for Active; 'I' for Inactive)
REMARK    1  A    between atoms: C_2  and  C_4 
REMARK    2  A    between atoms: C_4  and  C_5 
REMARK    3  A    between atoms: C_5  and  O_6 
REMARK    4  A    between atoms: O_6  and  C_7 
REMARK    5  A    between atoms: C_11  and  N_12 
REMARK       I    between atoms: N_12  and  C_13 
REMARK    6  A    between atoms: C_13  and  C_15 
REMARK    7  A    between atoms: C_15  and  N_16 
REMARK    8  A    between atoms: N_16  and  C_17 
REMARK    9  A    between atoms: C_22  and  C_23 
REMARK       I    between atoms: C_23  and  N_25 
REMARK   10  A    between atoms: N_25  and  C_26 
ROOT
ATOM      1  N   UNL d   1      25.215 -13.797  -3.019  0.00  0.00    -0.381 N 
ATOM      2  H   UNL d   1      25.672 -12.938  -2.688  0.00  0.00     0.160 HD
ENDROOT
BRANCH   1   3
ATOM      3  C   UNL d   1      25.106 -13.855  -4.485  0.00  0.00     0.223 C 
BRANCH   3   4
ATOM      4  C   UNL d   1      26.193 -14.793  -5.001  0.00  0.00     0.239 C 
ATOM      5  N   UNL d   1      27.510 -14.479  -4.658  0.00  0.00    -0.326 N 
ATOM      6  H   UNL d   1      27.690 -13.667  -4.078  0.00  0.00     0.169 HD
ATOM      7  O   UNL d   1      25.826 -15.741  -5.702  0.00  0.00    -0.271 OA
BRANCH   5   8
ATOM      8  C   UNL d   1      28.638 -15.271  -5.021  0.00  0.00     0.037 A 
ATOM      9  C   UNL d   1      29.177 -15.226  -6.309  0.00  0.00     0.029 A 
ATOM     10  C   UNL d   1      30.338 -15.964  -6.608  0.00  0.00     0.005 A 
ATOM     11  C   UNL d   1      30.931 -16.790  -5.647  0.00  0.00     0.037 A 
ATOM     12  C   UNL d   1      30.404 -16.843  -4.369  0.00  0.00     0.070 A 
ATOM     13  C   UNL d   1      29.277 -16.085  -4.084  0.00  0.00     0.066 A 
BRANCH  12  14
ATOM     14  O   UNL d   1      31.086 -17.566  -3.426  0.00  0.00    -0.351 OA
BRANCH  14  15
ATOM     15  C   UNL d   1      32.225 -16.902  -2.867  0.00  0.00     0.176 C 
BRANCH  15  16
ATOM     16  C   UNL d   1      31.878 -16.381  -1.476  0.00  0.00     0.030 C 
BRANCH  16  17
ATOM     17  C   UNL d   1      30.425 -16.703  -1.086  0.00  0.00    -0.021 C 
ATOM     18  C   UNL d   1      30.259 -18.207  -0.875  0.00  0.00     0.009 C 
ATOM     19  C   UNL d   1      29.994 -15.963   0.184  0.00  0.00     0.009 C 
ENDBRANCH  16  17
ENDBRANCH  15  16
ENDBRANCH  14  15
ENDBRANCH  12  14
ENDBRANCH   5   8
ENDBRANCH   3   4
ENDBRANCH   1   3
BRANCH   1  20
ATOM     20  C   UNL d   1      25.393 -14.895  -2.208  0.00  0.00     0.029 A 
ATOM     21  C   UNL d   1      26.611 -15.054  -1.543  0.00  0.00     0.031 A 
ATOM     22  C   UNL d   1      26.851 -16.165  -0.739  0.00  0.00     0.027 A 
ATOM     23  C   UNL d   1      25.850 -17.111  -0.534  0.00  0.00     0.049 A 
ATOM     24 CL   UNL d   1      26.269 -18.370   0.584  0.00  0.00    -0.083 Cl
ATOM     25  C   UNL d   1      24.613 -16.973  -1.194  0.00  0.00     0.055 A 
ATOM     26  C   UNL d   1      24.405 -15.855  -2.014  0.00  0.00     0.048 A 
BRANCH  25  27
ATOM     27  C   UNL d   1      23.546 -17.991  -1.062  0.00  0.00     0.253 C 
ATOM     28  O   UNL d   1      23.444 -18.840  -1.946  0.00  0.00    -0.268 OA
ATOM     29  N   UNL d   1      22.686 -17.970   0.027  0.00  0.00    -0.352 N 
ATOM     30  H   UNL d   1      22.854 -17.376   0.824  0.00  0.00     0.163 HD
BRANCH  29  31
ATOM     31  C   UNL d   1      21.627 -18.965   0.190  0.00  0.00     0.084 C 
ATOM     32  C   UNL d   1      21.030 -18.953   1.607  0.00  0.00     0.025 C 
ATOM     33  C   UNL d   1      19.846 -19.880   1.777  0.00  0.00     0.002 C 
ATOM     34  C   UNL d   1      18.793 -19.608   0.707  0.00  0.00     0.000 C 
ATOM     35  C   UNL d   1      19.386 -19.753  -0.689  0.00  0.00     0.002 C 
ATOM     36  C   UNL d   1      20.560 -18.799  -0.898  0.00  0.00     0.025 C 
ENDBRANCH  29  31
ENDBRANCH  25  27
ENDBRANCH   1  20
TORSDOF 10
ENDMDL
MODEL 9
REMARK VINA RESULT:    -7.496      3.077      7.307
REMARK INTER + INTRA:         -13.684
REMARK INTER:                 -10.479
REMARK INTRA:                  -3.205
REMARK CONF_INDEPENDENT:        2.983
REMARK UNBOUND:                -3.205
REMARK  10 active torsions:
REMARK  status: ('A' for Active; 'I' for Inactive)
REMARK    1  A    between atoms: C_2  and  C_4 
REMARK    2  A    between atoms: C_4  and  C_5 
REMARK    3  A    between atoms: C_5  and  O_6 
REMARK    4  A    between atoms: O_6  and  C_7 
REMARK    5  A    between atoms: C_11  and  N_12 
REMARK       I    between atoms: N_12  and  C_13 
REMARK    6  A    between atoms: C_13  and  C_15 
REMARK    7  A    between atoms: C_15  and  N_16 
REMARK    8  A    between atoms: N_16  and  C_17 
REMARK    9  A    between atoms: C_22  and  C_23 
REMARK       I    between atoms: C_23  and  N_25 
REMARK   10  A    between atoms: N_25  and  C_26 
ROOT
ATOM      1  N   UNL d   1      28.886 -15.200  -7.023  0.00  0.00    -0.381 N 
ATOM      2  H   UNL d   1      28.807 -14.959  -8.019  0.00  0.00     0.160 HD
ENDROOT
BRANCH   1   3
ATOM      3  C   UNL d   1      30.195 -15.778  -6.679  0.00  0.00     0.223 C 
BRANCH   3   4
ATOM      4  C   UNL d   1      30.065 -16.463  -5.322  0.00  0.00     0.239 C 
ATOM      5  N   UNL d   1      30.146 -15.643  -4.193  0.00  0.00    -0.326 N 
ATOM      6  H   UNL d   1      30.269 -14.644  -4.315  0.00  0.00     0.169 HD
ATOM      7  O   UNL d   1      29.924 -17.689  -5.326  0.00  0.00    -0.271 OA
BRANCH   5   8
ATOM      8  C   UNL d   1      30.002 -16.115  -2.856  0.00  0.00     0.037 A 
ATOM      9  C   UNL d   1      30.358 -17.418  -2.499  0.00  0.00     0.029 A 
ATOM     10  C   UNL d   1      30.275 -17.823  -1.154  0.00  0.00     0.005 A 
ATOM     11  C   UNL d   1      29.785 -16.955  -0.171  0.00  0.00     0.037 A 
ATOM     12  C   UNL d   1      29.428 -15.663  -0.514  0.00  0.00     0.070 A 
ATOM     13  C   UNL d   1      29.546 -15.272  -1.841  0.00  0.00     0.066 A 
BRANCH  12  14
ATOM     14  O   UNL d   1      29.072 -14.809   0.496  0.00  0.00    -0.351 OA
BRANCH  14  15
ATOM     15  C   UNL d   1      27.908 -15.201   1.232  0.00  0.00     0.176 C 
BRANCH  15  16
ATOM     16  C   UNL d   1      27.438 -14.037   2.099  0.00  0.00     0.030 C 
BRANCH  16  17
ATOM     17  C   UNL d   1      26.472 -13.109   1.343  0.00  0.00    -0.021 C 
ATOM     18  C   UNL d   1      26.655 -11.667   1.813  0.00  0.00     0.009 C 
ATOM     19  C   UNL d   1      26.677 -13.178  -0.173  0.00  0.00     0.009 C 
ENDBRANCH  16  17
ENDBRANCH  15  16
ENDBRANCH  14  15
ENDBRANCH  12  14
ENDBRANCH   5   8
ENDBRANCH   3   4
ENDBRANCH   1   3
BRANCH   1  20
ATOM     20  C   UNL d   1      28.137 -14.413  -6.177  0.00  0.00     0.029 A 
ATOM     21  C   UNL d   1      28.178 -13.026  -6.331  0.00  0.00     0.031 A 
ATOM     22  C   UNL d   1      27.464 -12.187  -5.479  0.00  0.00     0.027 A 
ATOM     23  C   UNL d   1      26.642 -12.726  -4.492  0.00  0.00     0.049 A 
ATOM     24 CL   UNL d   1      25.734 -11.552  -3.594  0.00  0.00    -0.083 Cl
ATOM     25  C   UNL d   1      26.583 -14.123  -4.318  0.00  0.00     0.055 A 
ATOM     26  C   UNL d   1      27.328 -14.943  -5.177  0.00  0.00     0.048 A 
BRANCH  25  27
ATOM     27  C   UNL d   1      25.779 -14.736  -3.237  0.00  0.00     0.253 C 
ATOM     28  O   UNL d   1      24.585 -14.450  -3.171  0.00  0.00    -0.268 OA
ATOM     29  N   UNL d   1      26.371 -15.599  -2.325  0.00  0.00    -0.352 N 
ATOM     30  H   UNL d   1      27.305 -15.953  -2.459  0.00  0.00     0.163 HD
BRANCH  29  31
ATOM     31  C   UNL d   1      25.603 -16.226  -1.250  0.00  0.00     0.084 C 
ATOM     32  C   UNL d   1      24.197 -16.649  -1.709  0.00  0.00     0.025 C 
ATOM     33  C   UNL d   1      23.420 -17.416  -0.662  0.00  0.00     0.002 C 
ATOM     34  C   UNL d   1      24.235 -18.596  -0.145  0.00  0.00     0.000 C 
ATOM     35  C   UNL d   1      25.571 -18.129   0.420  0.00  0.00     0.002 C 
ATOM     36  C   UNL d   1      26.391 -17.386  -0.631  0.00  0.00     0.025 C 
ENDBRANCH  29  31
ENDBRANCH  25  27
ENDBRANCH   1  20
TORSDOF 10
ENDMDL
