MODEL 1
REMARK VINA RESULT:    -9.112      0.000      0.000
REMARK INTER + INTRA:         -14.071
REMARK INTER:                 -11.797
REMARK INTRA:                  -2.274
REMARK CONF_INDEPENDENT:        2.685
REMARK UNBOUND:                -2.274
REMARK  9 active torsions:
REMARK  status: ('A' for Active; 'I' for Inactive)
REMARK    1  A    between atoms: O_2  and  C_3 
REMARK    2  A    between atoms: C_6  and  C_7 
REMARK       I    between atoms: C_7  and  N_9 
REMARK    3  A    between atoms: N_9  and  C_10 
REMARK    4  A    between atoms: C_10  and  N_12 
REMARK    5  A    between atoms: N_12  and  C_13 
REMARK    6  A    between atoms: C_16  and  N_17 
REMARK    7  A    between atoms: N_20  and  C_21 
REMARK    8  A    between atoms: C_21  and  C_22 
REMARK    9  A    between atoms: C_33  and  O_34 
ROOT
ATOM      1  C   UNL d   1      28.509 -14.162  -0.262  0.00  0.00     0.034 A 
ATOM      2  C   UNL d   1      27.275 -13.720   0.218  0.00  0.00     0.032 A 
ATOM      3  C   UNL d   1      27.031 -13.653   1.620  0.00  0.00     0.031 A 
ATOM      4  C   UNL d   1      27.984 -14.031   2.589  0.00  0.00     0.030 A 
ATOM      5  C   UNL d   1      29.214 -14.449   2.089  0.00  0.00     0.031 A 
ATOM      6  C   UNL d   1      29.471 -14.488   0.702  0.00  0.00     0.032 A 
ENDROOT
BRANCH   1   7
ATOM      7  N   UNL d   1      28.809 -14.274  -1.677  0.00  0.00    -0.333 N 
ATOM      8  H   UNL d   1      29.373 -13.527  -2.067  0.00  0.00     0.168 HD
BRANCH   7   9
ATOM      9  C   UNL d   1      28.118 -15.145  -2.562  0.00  0.00     0.179 C 
ATOM     10  S   UNL d   1      28.456 -15.195  -4.223  0.00  0.00    -0.040 SA
BRANCH   9  11
ATOM     11  N   UNL d   1      27.162 -15.995  -1.946  0.00  0.00    -0.299 N 
ATOM     12  C   UNL d   1      25.773 -15.703  -1.823  0.00  0.00     0.260 C 
ATOM     13  O   UNL d   1      25.271 -14.644  -2.162  0.00  0.00    -0.267 OA
ATOM     14  H   UNL d   1      27.447 -16.895  -1.580  0.00  0.00     0.171 HD
BRANCH  12  15
ATOM     15  C   UNL d   1      24.806 -16.662  -1.192  0.00  0.00     0.065 A 
ATOM     16  C   UNL d   1      23.435 -16.302  -1.270  0.00  0.00     0.022 A 
ATOM     17  C   UNL d   1      22.441 -17.031  -0.614  0.00  0.00     0.038 A 
ATOM     18  C   UNL d   1      22.784 -18.179   0.082  0.00  0.00     0.070 A 
ATOM     19  C   UNL d   1      24.125 -18.576   0.119  0.00  0.00     0.074 A 
ATOM     20  C   UNL d   1      25.144 -17.831  -0.513  0.00  0.00     0.086 A 
BRANCH  18  21
ATOM     21  O   UNL d   1      21.747 -18.906   0.595  0.00  0.00    -0.356 OA
ATOM     22  C   UNL d   1      20.717 -19.267  -0.321  0.00  0.00     0.210 C 
ENDBRANCH  18  21
BRANCH  20  23
ATOM     23  O   UNL d   1      26.465 -18.202  -0.517  0.00  0.00    -0.355 OA
ATOM     24  C   UNL d   1      27.222 -17.810   0.624  0.00  0.00     0.210 C 
ENDBRANCH  20  23
ENDBRANCH  12  15
ENDBRANCH   9  11
ENDBRANCH   7   9
ENDBRANCH   1   7
BRANCH   4  25
ATOM     25  N   UNL d   1      27.684 -13.956   3.940  0.00  0.00    -0.378 N 
ATOM     26  C   UNL d   1      27.674 -12.711   4.715  0.00  0.00     0.150 C 
ATOM     27  C   UNL d   1      28.928 -12.555   5.615  0.00  0.00     0.255 C 
ATOM     28  N   UNL d   1      29.139 -13.789   6.522  0.00  0.00    -0.064 N 
ATOM     29  C   UNL d   1      29.009 -15.063   5.686  0.00  0.00     0.255 C 
ATOM     30  H   UNL d   1      28.394 -13.798   7.228  0.00  0.00     0.280 HD
ATOM     31  C   UNL d   1      27.780 -15.154   4.769  0.00  0.00     0.150 C 
BRANCH  28  32
ATOM     32  C   UNL d   1      30.478 -13.723   7.299  0.00  0.00     0.275 C 
BRANCH  32  33
ATOM     33  C   UNL d   1      30.458 -14.111   8.771  0.00  0.00    -0.011 C 
ATOM     34  C   UNL d   1      31.239 -15.199   9.225  0.00  0.00     0.010 C 
ATOM     35  C   UNL d   1      31.161 -15.637  10.558  0.00  0.00     0.001 C 
ATOM     36  C   UNL d   1      30.453 -14.901  11.499  0.00  0.00     0.002 C 
ATOM     37  C   UNL d   1      29.703 -13.816  11.086  0.00  0.00     0.024 C 
ATOM     38  C   UNL d   1      29.602 -13.522   9.728  0.00  0.00     0.042 C 
ATOM     39 CL   UNL d   1      28.208 -12.571   9.343  0.00  0.00    -0.084 Cl
ENDBRANCH  32  33
ENDBRANCH  28  32
ENDBRANCH   4  25
TORSDOF 9
ENDMDL
MODEL 2
REMARK VINA RESULT:    -9.097      1.397      2.262
REMARK INTER + INTRA:         -13.922
REMARK INTER:                 -11.781
REMARK INTRA:                  -2.141
REMARK CONF_INDEPENDENT:        2.685
REMARK UNBOUND:                -2.141
REMARK  9 active torsions:
REMARK  status: ('A' for Active; 'I' for Inactive)
REMARK    1  A    between atoms: O_2  and  C_3 
REMARK    2  A    between atoms: C_6  and  C_7 
REMARK       I    between atoms: C_7  and  N_9 
REMARK    3  A    between atoms: N_9  and  C_10 
REMARK    4  A    between atoms: C_10  and  N_12 
REMARK    5  A    between atoms: N_12  and  C_13 
REMARK    6  A    between atoms: C_16  and  N_17 
REMARK    7  A    between atoms: N_20  and  C_21 
REMARK    8  A    between atoms: C_21  and  C_22 
REMARK    9  A    between atoms: C_33  and  O_34 
ROOT
ATOM      1  C   UNL d   1      29.434 -14.665  -0.075  0.00  0.00     0.034 A 
ATOM      2  C   UNL d   1      28.225 -13.978   0.038  0.00  0.00     0.032 A 
ATOM      3  C   UNL d   1      27.779 -13.512   1.309  0.00  0.00     0.031 A 
ATOM      4  C   UNL d   1      28.498 -13.719   2.504  0.00  0.00     0.030 A 
ATOM      5  C   UNL d   1      29.712 -14.388   2.365  0.00  0.00     0.031 A 
ATOM      6  C   UNL d   1      30.172 -14.825   1.104  0.00  0.00     0.032 A 
ENDROOT
BRANCH   1   7
ATOM      7  N   UNL d   1      29.930 -15.184  -1.336  0.00  0.00    -0.333 N 
ATOM      8  H   UNL d   1      30.577 -14.583  -1.834  0.00  0.00     0.168 HD
BRANCH   7   9
ATOM      9  C   UNL d   1      29.336 -16.274  -2.027  0.00  0.00     0.179 C 
ATOM     10  S   UNL d   1      30.261 -17.413  -2.877  0.00  0.00    -0.040 SA
BRANCH   9  11
ATOM     11  N   UNL d   1      27.923 -16.361  -1.914  0.00  0.00    -0.299 N 
ATOM     12  C   UNL d   1      27.230 -17.080  -0.899  0.00  0.00     0.260 C 
ATOM     13  O   UNL d   1      27.784 -17.773  -0.061  0.00  0.00    -0.267 OA
ATOM     14  H   UNL d   1      27.333 -15.866  -2.571  0.00  0.00     0.171 HD
BRANCH  12  15
ATOM     15  C   UNL d   1      25.731 -17.103  -0.815  0.00  0.00     0.065 A 
ATOM     16  C   UNL d   1      25.163 -18.236  -0.177  0.00  0.00     0.022 A 
ATOM     17  C   UNL d   1      23.783 -18.452  -0.145  0.00  0.00     0.038 A 
ATOM     18  C   UNL d   1      22.932 -17.504  -0.690  0.00  0.00     0.070 A 
ATOM     19  C   UNL d   1      23.478 -16.354  -1.270  0.00  0.00     0.074 A 
ATOM     20  C   UNL d   1      24.872 -16.139  -1.339  0.00  0.00     0.086 A 
BRANCH  18  21
ATOM     21  O   UNL d   1      21.595 -17.723  -0.514  0.00  0.00    -0.356 OA
ATOM     22  C   UNL d   1      21.085 -18.950  -1.029  0.00  0.00     0.210 C 
ENDBRANCH  18  21
BRANCH  20  23
ATOM     23  O   UNL d   1      25.442 -15.014  -1.879  0.00  0.00    -0.355 OA
ATOM     24  C   UNL d   1      25.155 -14.775  -3.253  0.00  0.00     0.210 C 
ENDBRANCH  20  23
ENDBRANCH  12  15
ENDBRANCH   9  11
ENDBRANCH   7   9
ENDBRANCH   1   7
BRANCH   4  25
ATOM     25  N   UNL d   1      28.007 -13.253   3.713  0.00  0.00    -0.378 N 
ATOM     26  C   UNL d   1      28.489 -12.044   4.389  0.00  0.00     0.150 C 
ATOM     27  C   UNL d   1      29.418 -12.358   5.591  0.00  0.00     0.255 C 
ATOM     28  N   UNL d   1      28.755 -13.340   6.585  0.00  0.00    -0.064 N 
ATOM     29  C   UNL d   1      28.155 -14.516   5.814  0.00  0.00     0.255 C 
ATOM     30  H   UNL d   1      27.987 -12.847   7.056  0.00  0.00     0.280 HD
ATOM     31  C   UNL d   1      27.285 -14.161   4.599  0.00  0.00     0.150 C 
BRANCH  28  32
ATOM     32  C   UNL d   1      29.732 -13.795   7.698  0.00  0.00     0.275 C 
BRANCH  32  33
ATOM     33  C   UNL d   1      29.201 -13.848   9.123  0.00  0.00    -0.011 C 
ATOM     34  C   UNL d   1      28.238 -12.906   9.553  0.00  0.00     0.010 C 
ATOM     35  C   UNL d   1      27.807 -12.872  10.890  0.00  0.00     0.001 C 
ATOM     36  C   UNL d   1      28.183 -13.875  11.775  0.00  0.00     0.002 C 
ATOM     37  C   UNL d   1      29.103 -14.825  11.371  0.00  0.00     0.024 C 
ATOM     38  C   UNL d   1      29.699 -14.720  10.116  0.00  0.00     0.042 C 
ATOM     39 CL   UNL d   1      31.200 -15.575  10.007  0.00  0.00    -0.084 Cl
ENDBRANCH  32  33
ENDBRANCH  28  32
ENDBRANCH   4  25
TORSDOF 9
ENDMDL
MODEL 3
REMARK VINA RESULT:    -8.727      2.345      3.401
REMARK INTER + INTRA:         -13.835
REMARK INTER:                 -11.411
REMARK INTRA:                  -2.423
REMARK CONF_INDEPENDENT:        2.685
REMARK UNBOUND:                -2.423
REMARK  9 active torsions:
REMARK  status: ('A' for Active; 'I' for Inactive)
REMARK    1  A    between atoms: O_2  and  C_3 
REMARK    2  A    between atoms: C_6  and  C_7 
REMARK       I    between atoms: C_7  and  N_9 
REMARK    3  A    between atoms: N_9  and  C_10 
REMARK    4  A    between atoms: C_10  and  N_12 
REMARK    5  A    between atoms: N_12  and  C_13 
REMARK    6  A    between atoms: C_16  and  N_17 
REMARK    7  A    between atoms: N_20  and  C_21 
REMARK    8  A    between atoms: C_21  and  C_22 
REMARK    9  A    between atoms: C_33  and  O_34 
ROOT
ATOM      1  C   UNL d   1      29.679 -13.349  -2.794  0.00  0.00     0.034 A 
ATOM      2  C   UNL d   1      29.228 -12.623  -1.691  0.00  0.00     0.032 A 
ATOM      3  C   UNL d   1      29.933 -12.682  -0.454  0.00  0.00     0.031 A 
ATOM      4  C   UNL d   1      31.090 -13.465  -0.261  0.00  0.00     0.030 A 
ATOM      5  C   UNL d   1      31.535 -14.164  -1.380  0.00  0.00     0.031 A 
ATOM      6  C   UNL d   1      30.857 -14.085  -2.615  0.00  0.00     0.032 A 
ENDROOT
BRANCH   1   7
ATOM      7  N   UNL d   1      28.992 -13.348  -4.072  0.00  0.00    -0.333 N 
ATOM      8  H   UNL d   1      28.786 -12.433  -4.459  0.00  0.00     0.168 HD
BRANCH   7   9
ATOM      9  C   UNL d   1      28.337 -14.486  -4.615  0.00  0.00     0.179 C 
ATOM     10  S   UNL d   1      28.351 -14.825  -6.277  0.00  0.00    -0.040 SA
BRANCH   9  11
ATOM     11  N   UNL d   1      27.713 -15.333  -3.662  0.00  0.00    -0.299 N 
ATOM     12  C   UNL d   1      26.440 -15.093  -3.070  0.00  0.00     0.260 C 
ATOM     13  O   UNL d   1      25.785 -14.081  -3.260  0.00  0.00    -0.267 OA
ATOM     14  H   UNL d   1      28.165 -16.194  -3.379  0.00  0.00     0.171 HD
BRANCH  12  15
ATOM     15  C   UNL d   1      25.818 -16.049  -2.094  0.00  0.00     0.065 A 
ATOM     16  C   UNL d   1      24.401 -16.019  -2.014  0.00  0.00     0.022 A 
ATOM     17  C   UNL d   1      23.699 -16.756  -1.058  0.00  0.00     0.038 A 
ATOM     18  C   UNL d   1      24.392 -17.597  -0.201  0.00  0.00     0.070 A 
ATOM     19  C   UNL d   1      25.784 -17.679  -0.309  0.00  0.00     0.074 A 
ATOM     20  C   UNL d   1      26.509 -16.915  -1.249  0.00  0.00     0.086 A 
BRANCH  18  21
ATOM     21  O   UNL d   1      23.631 -18.377   0.624  0.00  0.00    -0.356 OA
ATOM     22  C   UNL d   1      22.276 -18.575   0.230  0.00  0.00     0.210 C 
ENDBRANCH  18  21
BRANCH  20  23
ATOM     23  O   UNL d   1      27.871 -16.987  -1.399  0.00  0.00    -0.355 OA
ATOM     24  C   UNL d   1      28.640 -16.555  -0.281  0.00  0.00     0.210 C 
ENDBRANCH  20  23
ENDBRANCH  12  15
ENDBRANCH   9  11
ENDBRANCH   7   9
ENDBRANCH   1   7
BRANCH   4  25
ATOM     25  N   UNL d   1      31.726 -13.492   0.970  0.00  0.00    -0.378 N 
ATOM     26  C   UNL d   1      32.405 -14.668   1.522  0.00  0.00     0.150 C 
ATOM     27  C   UNL d   1      31.577 -15.377   2.627  0.00  0.00     0.255 C 
ATOM     28  N   UNL d   1      31.147 -14.393   3.739  0.00  0.00    -0.064 N 
ATOM     29  C   UNL d   1      30.566 -13.129   3.104  0.00  0.00     0.255 C 
ATOM     30  H   UNL d   1      31.985 -14.123   4.268  0.00  0.00     0.280 HD
ATOM     31  C   UNL d   1      31.393 -12.490   1.978  0.00  0.00     0.150 C 
BRANCH  28  32
ATOM     32  C   UNL d   1      30.178 -15.045   4.757  0.00  0.00     0.275 C 
BRANCH  32  33
ATOM     33  C   UNL d   1      29.485 -14.131   5.757  0.00  0.00    -0.011 C 
ATOM     34  C   UNL d   1      29.940 -14.075   7.095  0.00  0.00     0.010 C 
ATOM     35  C   UNL d   1      29.255 -13.315   8.059  0.00  0.00     0.001 C 
ATOM     36  C   UNL d   1      28.225 -12.463   7.680  0.00  0.00     0.002 C 
ATOM     37  C   UNL d   1      27.780 -12.478   6.371  0.00  0.00     0.024 C 
ATOM     38  C   UNL d   1      28.312 -13.399   5.471  0.00  0.00     0.042 C 
ATOM     39 CL   UNL d   1      27.274 -13.699   4.119  0.00  0.00    -0.084 Cl
ENDBRANCH  32  33
ENDBRANCH  28  32
ENDBRANCH   4  25
TORSDOF 9
ENDMDL
MODEL 4
REMARK VINA RESULT:    -8.548      5.441     10.893
REMARK INTER + INTRA:         -13.543
REMARK INTER:                 -11.233
REMARK INTRA:                  -2.309
REMARK CONF_INDEPENDENT:        2.685
REMARK UNBOUND:                -2.309
REMARK  9 active torsions:
REMARK  status: ('A' for Active; 'I' for Inactive)
REMARK    1  A    between atoms: O_2  and  C_3 
REMARK    2  A    between atoms: C_6  and  C_7 
REMARK       I    between atoms: C_7  and  N_9 
REMARK    3  A    between atoms: N_9  and  C_10 
REMARK    4  A    between atoms: C_10  and  N_12 
REMARK    5  A    between atoms: N_12  and  C_13 
REMARK    6  A    between atoms: C_16  and  N_17 
REMARK    7  A    between atoms: N_20  and  C_21 
REMARK    8  A    between atoms: C_21  and  C_22 
REMARK    9  A    between atoms: C_33  and  O_34 
ROOT
ATOM      1  C   UNL d   1      28.892 -14.212   6.385  0.00  0.00     0.034 A 
ATOM      2  C   UNL d   1      29.984 -14.541   5.581  0.00  0.00     0.032 A 
ATOM      3  C   UNL d   1      29.904 -14.398   4.165  0.00  0.00     0.031 A 
ATOM      4  C   UNL d   1      28.748 -13.943   3.499  0.00  0.00     0.030 A 
ATOM      5  C   UNL d   1      27.677 -13.600   4.321  0.00  0.00     0.031 A 
ATOM      6  C   UNL d   1      27.763 -13.711   5.725  0.00  0.00     0.032 A 
ENDROOT
BRANCH   1   7
ATOM      7  N   UNL d   1      28.905 -14.357   7.828  0.00  0.00    -0.333 N 
ATOM      8  H   UNL d   1      28.956 -15.309   8.173  0.00  0.00     0.168 HD
BRANCH   7   9
ATOM      9  C   UNL d   1      28.535 -13.320   8.727  0.00  0.00     0.179 C 
ATOM     10  S   UNL d   1      28.157 -13.629  10.351  0.00  0.00    -0.040 SA
BRANCH   9  11
ATOM     11  N   UNL d   1      28.548 -12.012   8.175  0.00  0.00    -0.299 N 
ATOM     12  C   UNL d   1      29.356 -10.938   8.648  0.00  0.00     0.260 C 
ATOM     13  O   UNL d   1      30.066 -11.009   9.639  0.00  0.00    -0.267 OA
ATOM     14  H   UNL d   1      27.974 -11.797   7.370  0.00  0.00     0.171 HD
BRANCH  12  15
ATOM     15  C   UNL d   1      29.351  -9.585   7.997  0.00  0.00     0.065 A 
ATOM     16  C   UNL d   1      29.748  -8.499   8.820  0.00  0.00     0.022 A 
ATOM     17  C   UNL d   1      29.664  -7.174   8.387  0.00  0.00     0.038 A 
ATOM     18  C   UNL d   1      29.246  -6.905   7.094  0.00  0.00     0.070 A 
ATOM     19  C   UNL d   1      28.907  -7.970   6.253  0.00  0.00     0.074 A 
ATOM     20  C   UNL d   1      28.956  -9.313   6.689  0.00  0.00     0.086 A 
BRANCH  18  21
ATOM     21  O   UNL d   1      29.305  -5.597   6.701  0.00  0.00    -0.356 OA
ATOM     22  C   UNL d   1      30.273  -5.282   5.705  0.00  0.00     0.210 C 
ENDBRANCH  18  21
BRANCH  20  23
ATOM     23  O   UNL d   1      28.654 -10.384   5.886  0.00  0.00    -0.355 OA
ATOM     24  C   UNL d   1      29.722 -10.872   5.080  0.00  0.00     0.210 C 
ENDBRANCH  20  23
ENDBRANCH  12  15
ENDBRANCH   9  11
ENDBRANCH   7   9
ENDBRANCH   1   7
BRANCH   4  25
ATOM     25  N   UNL d   1      28.725 -13.837   2.117  0.00  0.00    -0.378 N 
ATOM     26  C   UNL d   1      27.527 -13.523   1.333  0.00  0.00     0.150 C 
ATOM     27  C   UNL d   1      26.926 -14.770   0.630  0.00  0.00     0.255 C 
ATOM     28  N   UNL d   1      27.984 -15.513  -0.218  0.00  0.00    -0.064 N 
ATOM     29  C   UNL d   1      29.260 -15.697   0.605  0.00  0.00     0.255 C 
ATOM     30  H   UNL d   1      28.214 -14.926  -1.029  0.00  0.00     0.280 HD
ATOM     31  C   UNL d   1      29.790 -14.449   1.327  0.00  0.00     0.150 C 
BRANCH  28  32
ATOM     32  C   UNL d   1      27.446 -16.850  -0.786  0.00  0.00     0.275 C 
BRANCH  32  33
ATOM     33  C   UNL d   1      25.942 -17.085  -0.731  0.00  0.00    -0.011 C 
ATOM     34  C   UNL d   1      25.427 -18.202  -0.033  0.00  0.00     0.010 C 
ATOM     35  C   UNL d   1      24.053 -18.494  -0.051  0.00  0.00     0.001 C 
ATOM     36  C   UNL d   1      23.151 -17.595  -0.606  0.00  0.00     0.002 C 
ATOM     37  C   UNL d   1      23.628 -16.481  -1.271  0.00  0.00     0.024 C 
ATOM     38  C   UNL d   1      25.000 -16.314  -1.446  0.00  0.00     0.042 C 
ATOM     39 CL   UNL d   1      25.391 -15.260  -2.762  0.00  0.00    -0.084 Cl
ENDBRANCH  32  33
ENDBRANCH  28  32
ENDBRANCH   4  25
TORSDOF 9
ENDMDL
MODEL 5
REMARK VINA RESULT:    -8.202      5.860      8.739
REMARK INTER + INTRA:         -13.728
REMARK INTER:                 -10.887
REMARK INTRA:                  -2.841
REMARK CONF_INDEPENDENT:        2.685
REMARK UNBOUND:                -2.841
REMARK  9 active torsions:
REMARK  status: ('A' for Active; 'I' for Inactive)
REMARK    1  A    between atoms: O_2  and  C_3 
REMARK    2  A    between atoms: C_6  and  C_7 
REMARK       I    between atoms: C_7  and  N_9 
REMARK    3  A    between atoms: N_9  and  C_10 
REMARK    4  A    between atoms: C_10  and  N_12 
REMARK    5  A    between atoms: N_12  and  C_13 
REMARK    6  A    between atoms: C_16  and  N_17 
REMARK    7  A    between atoms: N_20  and  C_21 
REMARK    8  A    between atoms: C_21  and  C_22 
REMARK    9  A    between atoms: C_33  and  O_34 
ROOT
ATOM      1  C   UNL d   1      29.245 -14.349  -6.306  0.00  0.00     0.034 A 
ATOM      2  C   UNL d   1      30.506 -14.211  -5.724  0.00  0.00     0.032 A 
ATOM      3  C   UNL d   1      30.763 -14.747  -4.428  0.00  0.00     0.031 A 
ATOM      4  C   UNL d   1      29.787 -15.419  -3.663  0.00  0.00     0.030 A 
ATOM      5  C   UNL d   1      28.543 -15.564  -4.271  0.00  0.00     0.031 A 
ATOM      6  C   UNL d   1      28.293 -15.062  -5.567  0.00  0.00     0.032 A 
ENDROOT
BRANCH   1   7
ATOM      7  N   UNL d   1      28.916 -13.807  -7.610  0.00  0.00    -0.333 N 
ATOM      8  H   UNL d   1      29.408 -14.220  -8.395  0.00  0.00     0.168 HD
BRANCH   7   9
ATOM      9  C   UNL d   1      28.231 -12.576  -7.801  0.00  0.00     0.179 C 
ATOM     10  S   UNL d   1      27.836 -11.995  -9.345  0.00  0.00    -0.040 SA
BRANCH   9  11
ATOM     11  N   UNL d   1      27.868 -11.898  -6.608  0.00  0.00    -0.299 N 
ATOM     12  C   UNL d   1      26.633 -11.218  -6.403  0.00  0.00     0.260 C 
ATOM     13  O   UNL d   1      25.786 -11.075  -7.269  0.00  0.00    -0.267 OA
ATOM     14  H   UNL d   1      28.496 -11.899  -5.815  0.00  0.00     0.171 HD
BRANCH  12  15
ATOM     15  C   UNL d   1      26.294 -10.549  -5.102  0.00  0.00     0.065 A 
ATOM     16  C   UNL d   1      25.372  -9.473  -5.180  0.00  0.00     0.022 A 
ATOM     17  C   UNL d   1      25.068  -8.679  -4.072  0.00  0.00     0.038 A 
ATOM     18  C   UNL d   1      25.626  -8.983  -2.841  0.00  0.00     0.070 A 
ATOM     19  C   UNL d   1      26.491 -10.077  -2.739  0.00  0.00     0.074 A 
ATOM     20  C   UNL d   1      26.833 -10.869  -3.857  0.00  0.00     0.086 A 
BRANCH  18  21
ATOM     21  O   UNL d   1      25.190  -8.239  -1.781  0.00  0.00    -0.356 OA
ATOM     22  C   UNL d   1      26.104  -8.088  -0.699  0.00  0.00     0.210 C 
ENDBRANCH  18  21
BRANCH  20  23
ATOM     23  O   UNL d   1      27.658 -11.963  -3.791  0.00  0.00    -0.355 OA
ATOM     24  C   UNL d   1      28.375 -12.123  -2.571  0.00  0.00     0.210 C 
ENDBRANCH  20  23
ENDBRANCH  12  15
ENDBRANCH   9  11
ENDBRANCH   7   9
ENDBRANCH   1   7
BRANCH   4  25
ATOM     25  N   UNL d   1      30.093 -15.908  -2.403  0.00  0.00    -0.378 N 
ATOM     26  C   UNL d   1      29.864 -17.292  -1.976  0.00  0.00     0.150 C 
ATOM     27  C   UNL d   1      28.623 -17.440  -1.057  0.00  0.00     0.255 C 
ATOM     28  N   UNL d   1      28.687 -16.475   0.150  0.00  0.00    -0.064 N 
ATOM     29  C   UNL d   1      29.057 -15.074  -0.338  0.00  0.00     0.255 C 
ATOM     30  H   UNL d   1      29.433 -16.797   0.778  0.00  0.00     0.280 HD
ATOM     31  C   UNL d   1      30.260 -14.979  -1.289  0.00  0.00     0.150 C 
BRANCH  28  32
ATOM     32  C   UNL d   1      27.379 -16.488   0.980  0.00  0.00     0.275 C 
BRANCH  32  33
ATOM     33  C   UNL d   1      26.101 -16.920   0.275  0.00  0.00    -0.011 C 
ATOM     34  C   UNL d   1      25.554 -18.200   0.526  0.00  0.00     0.010 C 
ATOM     35  C   UNL d   1      24.432 -18.658  -0.186  0.00  0.00     0.001 C 
ATOM     36  C   UNL d   1      23.730 -17.797  -1.021  0.00  0.00     0.002 C 
ATOM     37  C   UNL d   1      24.229 -16.531  -1.261  0.00  0.00     0.024 C 
ATOM     38  C   UNL d   1      25.463 -16.161  -0.731  0.00  0.00     0.042 C 
ATOM     39 CL   UNL d   1      26.200 -14.847  -1.584  0.00  0.00    -0.084 Cl
ENDBRANCH  32  33
ENDBRANCH  28  32
ENDBRANCH   4  25
TORSDOF 9
ENDMDL
MODEL 6
REMARK VINA RESULT:    -8.124      5.280      8.720
REMARK INTER + INTRA:         -13.332
REMARK INTER:                 -10.808
REMARK INTRA:                  -2.524
REMARK CONF_INDEPENDENT:        2.685
REMARK UNBOUND:                -2.524
REMARK  9 active torsions:
REMARK  status: ('A' for Active; 'I' for Inactive)
REMARK    1  A    between atoms: O_2  and  C_3 
REMARK    2  A    between atoms: C_6  and  C_7 
REMARK       I    between atoms: C_7  and  N_9 
REMARK    3  A    between atoms: N_9  and  C_10 
REMARK    4  A    between atoms: C_10  and  N_12 
REMARK    5  A    between atoms: N_12  and  C_13 
REMARK    6  A    between atoms: C_16  and  N_17 
REMARK    7  A    between atoms: N_20  and  C_21 
REMARK    8  A    between atoms: C_21  and  C_22 
REMARK    9  A    between atoms: C_33  and  O_34 
ROOT
ATOM      1  C   UNL d   1      27.299  -9.454   1.178  0.00  0.00     0.034 A 
ATOM      2  C   UNL d   1      28.452  -9.901   0.530  0.00  0.00     0.032 A 
ATOM      3  C   UNL d   1      28.907 -11.239   0.715  0.00  0.00     0.031 A 
ATOM      4  C   UNL d   1      28.254 -12.169   1.549  0.00  0.00     0.030 A 
ATOM      5  C   UNL d   1      27.095 -11.709   2.169  0.00  0.00     0.031 A 
ATOM      6  C   UNL d   1      26.623 -10.395   1.965  0.00  0.00     0.032 A 
ENDROOT
BRANCH   1   7
ATOM      7  N   UNL d   1      26.798  -8.099   1.048  0.00  0.00    -0.333 N 
ATOM      8  H   UNL d   1      26.919  -7.506   1.862  0.00  0.00     0.168 HD
BRANCH   7   9
ATOM      9  C   UNL d   1      25.904  -7.685   0.024  0.00  0.00     0.179 C 
ATOM     10  S   UNL d   1      24.948  -6.292   0.173  0.00  0.00    -0.040 SA
BRANCH   9  11
ATOM     11  N   UNL d   1      25.906  -8.496  -1.141  0.00  0.00    -0.299 N 
ATOM     12  C   UNL d   1      25.668  -8.021  -2.463  0.00  0.00     0.260 C 
ATOM     13  O   UNL d   1      25.352  -6.871  -2.724  0.00  0.00    -0.267 OA
ATOM     14  H   UNL d   1      26.113  -9.484  -1.069  0.00  0.00     0.171 HD
BRANCH  12  15
ATOM     15  C   UNL d   1      25.719  -8.926  -3.660  0.00  0.00     0.065 A 
ATOM     16  C   UNL d   1      25.413  -8.322  -4.907  0.00  0.00     0.022 A 
ATOM     17  C   UNL d   1      25.293  -9.070  -6.081  0.00  0.00     0.038 A 
ATOM     18  C   UNL d   1      25.545 -10.432  -6.050  0.00  0.00     0.070 A 
ATOM     19  C   UNL d   1      25.905 -11.029  -4.838  0.00  0.00     0.074 A 
ATOM     20  C   UNL d   1      25.997 -10.291  -3.637  0.00  0.00     0.086 A 
BRANCH  18  21
ATOM     21  O   UNL d   1      25.528 -11.076  -7.256  0.00  0.00    -0.356 OA
ATOM     22  C   UNL d   1      26.742 -11.048  -8.001  0.00  0.00     0.210 C 
ENDBRANCH  18  21
BRANCH  20  23
ATOM     23  O   UNL d   1      26.370 -10.838  -2.435  0.00  0.00    -0.355 OA
ATOM     24  C   UNL d   1      27.192 -11.998  -2.513  0.00  0.00     0.210 C 
ENDBRANCH  20  23
ENDBRANCH  12  15
ENDBRANCH   9  11
ENDBRANCH   7   9
ENDBRANCH   1   7
BRANCH   4  25
ATOM     25  N   UNL d   1      28.752 -13.454   1.700  0.00  0.00    -0.378 N 
ATOM     26  C   UNL d   1      29.836 -14.019   0.890  0.00  0.00     0.150 C 
ATOM     27  C   UNL d   1      29.324 -15.007  -0.192  0.00  0.00     0.255 C 
ATOM     28  N   UNL d   1      28.433 -16.113   0.419  0.00  0.00    -0.064 N 
ATOM     29  C   UNL d   1      27.405 -15.479   1.357  0.00  0.00     0.255 C 
ATOM     30  H   UNL d   1      29.031 -16.732   0.980  0.00  0.00     0.280 HD
ATOM     31  C   UNL d   1      27.947 -14.467   2.377  0.00  0.00     0.150 C 
BRANCH  28  32
ATOM     32  C   UNL d   1      27.777 -17.003  -0.666  0.00  0.00     0.275 C 
BRANCH  32  33
ATOM     33  C   UNL d   1      26.260 -17.134  -0.649  0.00  0.00    -0.011 C 
ATOM     34  C   UNL d   1      25.651 -18.194   0.061  0.00  0.00     0.010 C 
ATOM     35  C   UNL d   1      24.261 -18.392   0.010  0.00  0.00     0.001 C 
ATOM     36  C   UNL d   1      23.438 -17.449  -0.592  0.00  0.00     0.002 C 
ATOM     37  C   UNL d   1      24.008 -16.387  -1.270  0.00  0.00     0.024 C 
ATOM     38  C   UNL d   1      25.393 -16.319  -1.409  0.00  0.00     0.042 C 
ATOM     39 CL   UNL d   1      25.891 -15.329  -2.738  0.00  0.00    -0.084 Cl
ENDBRANCH  32  33
ENDBRANCH  28  32
ENDBRANCH   4  25
TORSDOF 9
ENDMDL
MODEL 7
REMARK VINA RESULT:    -8.081      5.082      8.832
REMARK INTER + INTRA:         -13.280
REMARK INTER:                 -10.765
REMARK INTRA:                  -2.515
REMARK CONF_INDEPENDENT:        2.685
REMARK UNBOUND:                -2.515
REMARK  9 active torsions:
REMARK  status: ('A' for Active; 'I' for Inactive)
REMARK    1  A    between atoms: O_2  and  C_3 
REMARK    2  A    between atoms: C_6  and  C_7 
REMARK       I    between atoms: C_7  and  N_9 
REMARK    3  A    between atoms: N_9  and  C_10 
REMARK    4  A    between atoms: C_10  and  N_12 
REMARK    5  A    between atoms: N_12  and  C_13 
REMARK    6  A    between atoms: C_16  and  N_17 
REMARK    7  A    between atoms: N_20  and  C_21 
REMARK    8  A    between atoms: C_21  and  C_22 
REMARK    9  A    between atoms: C_33  and  O_34 
ROOT
ATOM      1  C   UNL d   1      27.837  -9.662   4.242  0.00  0.00     0.034 A 
ATOM      2  C   UNL d   1      27.105 -10.495   3.395  0.00  0.00     0.032 A 
ATOM      3  C   UNL d   1      27.565 -11.813   3.107  0.00  0.00     0.031 A 
ATOM      4  C   UNL d   1      28.762 -12.344   3.629  0.00  0.00     0.030 A 
ATOM      5  C   UNL d   1      29.467 -11.505   4.488  0.00  0.00     0.031 A 
ATOM      6  C   UNL d   1      28.999 -10.210   4.801  0.00  0.00     0.032 A 
ENDROOT
BRANCH   1   7
ATOM      7  N   UNL d   1      27.433  -8.305   4.555  0.00  0.00    -0.333 N 
ATOM      8  H   UNL d   1      27.031  -8.168   5.476  0.00  0.00     0.168 HD
BRANCH   7   9
ATOM      9  C   UNL d   1      27.273  -7.286   3.578  0.00  0.00     0.179 C 
ATOM     10  S   UNL d   1      26.988  -5.669   4.001  0.00  0.00    -0.040 SA
BRANCH   9  11
ATOM     11  N   UNL d   1      27.413  -7.715   2.232  0.00  0.00    -0.299 N 
ATOM     12  C   UNL d   1      26.330  -7.968   1.342  0.00  0.00     0.260 C 
ATOM     13  O   UNL d   1      25.156  -7.923   1.672  0.00  0.00    -0.267 OA
ATOM     14  H   UNL d   1      28.336  -7.835   1.833  0.00  0.00     0.171 HD
BRANCH  12  15
ATOM     15  C   UNL d   1      26.547  -8.386  -0.084  0.00  0.00     0.065 A 
ATOM     16  C   UNL d   1      25.525  -8.021  -0.999  0.00  0.00     0.022 A 
ATOM     17  C   UNL d   1      25.531  -8.457  -2.326  0.00  0.00     0.038 A 
ATOM     18  C   UNL d   1      26.595  -9.213  -2.791  0.00  0.00     0.070 A 
ATOM     19  C   UNL d   1      27.637  -9.530  -1.914  0.00  0.00     0.074 A 
ATOM     20  C   UNL d   1      27.628  -9.123  -0.561  0.00  0.00     0.086 A 
BRANCH  18  21
ATOM     21  O   UNL d   1      26.593  -9.500  -4.127  0.00  0.00    -0.356 OA
ATOM     22  C   UNL d   1      25.521  -8.949  -4.887  0.00  0.00     0.210 C 
ENDBRANCH  18  21
BRANCH  20  23
ATOM     23  O   UNL d   1      28.643  -9.396   0.321  0.00  0.00    -0.355 OA
ATOM     24  C   UNL d   1      29.449 -10.526   0.006  0.00  0.00     0.210 C 
ENDBRANCH  20  23
ENDBRANCH  12  15
ENDBRANCH   9  11
ENDBRANCH   7   9
ENDBRANCH   1   7
BRANCH   4  25
ATOM     25  N   UNL d   1      29.165 -13.629   3.303  0.00  0.00    -0.378 N 
ATOM     26  C   UNL d   1      30.327 -13.942   2.465  0.00  0.00     0.150 C 
ATOM     27  C   UNL d   1      29.932 -14.363   1.024  0.00  0.00     0.255 C 
ATOM     28  N   UNL d   1      28.904 -15.518   1.027  0.00  0.00    -0.064 N 
ATOM     29  C   UNL d   1      27.782 -15.198   2.016  0.00  0.00     0.255 C 
ATOM     30  H   UNL d   1      29.379 -16.368   1.354  0.00  0.00     0.280 HD
ATOM     31  C   UNL d   1      28.218 -14.734   3.414  0.00  0.00     0.150 C 
BRANCH  28  32
ATOM     32  C   UNL d   1      28.372 -15.833  -0.393  0.00  0.00     0.275 C 
BRANCH  32  33
ATOM     33  C   UNL d   1      26.957 -16.381  -0.511  0.00  0.00    -0.011 C 
ATOM     34  C   UNL d   1      26.641 -17.643   0.043  0.00  0.00     0.010 C 
ATOM     35  C   UNL d   1      25.370 -18.214  -0.138  0.00  0.00     0.001 C 
ATOM     36  C   UNL d   1      24.343 -17.474  -0.711  0.00  0.00     0.002 C 
ATOM     37  C   UNL d   1      24.619 -16.225  -1.236  0.00  0.00     0.024 C 
ATOM     38  C   UNL d   1      25.932 -15.759  -1.257  0.00  0.00     0.042 C 
ATOM     39 CL   UNL d   1      26.193 -14.523  -2.441  0.00  0.00    -0.084 Cl
ENDBRANCH  32  33
ENDBRANCH  28  32
ENDBRANCH   4  25
TORSDOF 9
ENDMDL
MODEL 8
REMARK VINA RESULT:    -7.998      5.661      8.665
REMARK INTER + INTRA:         -13.273
REMARK INTER:                 -10.683
REMARK INTRA:                  -2.589
REMARK CONF_INDEPENDENT:        2.685
REMARK UNBOUND:                -2.589
REMARK  9 active torsions:
REMARK  status: ('A' for Active; 'I' for Inactive)
REMARK    1  A    between atoms: O_2  and  C_3 
REMARK    2  A    between atoms: C_6  and  C_7 
REMARK       I    between atoms: C_7  and  N_9 
REMARK    3  A    between atoms: N_9  and  C_10 
REMARK    4  A    between atoms: C_10  and  N_12 
REMARK    5  A    between atoms: N_12  and  C_13 
REMARK    6  A    between atoms: C_16  and  N_17 
REMARK    7  A    between atoms: N_20  and  C_21 
REMARK    8  A    between atoms: C_21  and  C_22 
REMARK    9  A    between atoms: C_33  and  O_34 
ROOT
ATOM      1  C   UNL d   1      26.518 -10.191  -2.709  0.00  0.00     0.034 A 
ATOM      2  C   UNL d   1      26.216 -11.554  -2.725  0.00  0.00     0.032 A 
ATOM      3  C   UNL d   1      26.831 -12.438  -1.792  0.00  0.00     0.031 A 
ATOM      4  C   UNL d   1      27.770 -12.014  -0.829  0.00  0.00     0.030 A 
ATOM      5  C   UNL d   1      28.041 -10.648  -0.816  0.00  0.00     0.031 A 
ATOM      6  C   UNL d   1      27.411  -9.764  -1.718  0.00  0.00     0.032 A 
ENDROOT
BRANCH   1   7
ATOM      7  N   UNL d   1      25.942  -9.246  -3.646  0.00  0.00    -0.333 N 
ATOM      8  H   UNL d   1      25.281  -8.585  -3.253  0.00  0.00     0.168 HD
BRANCH   7   9
ATOM      9  C   UNL d   1      25.998  -9.402  -5.057  0.00  0.00     0.179 C 
ATOM     10  S   UNL d   1      25.031  -8.484  -6.104  0.00  0.00    -0.040 SA
BRANCH   9  11
ATOM     11  N   UNL d   1      26.951 -10.347  -5.521  0.00  0.00    -0.299 N 
ATOM     12  C   UNL d   1      26.699 -11.738  -5.694  0.00  0.00     0.260 C 
ATOM     13  O   UNL d   1      25.653 -12.282  -5.378  0.00  0.00    -0.267 OA
ATOM     14  H   UNL d   1      27.880 -10.042  -5.782  0.00  0.00     0.171 HD
BRANCH  12  15
ATOM     15  C   UNL d   1      27.740 -12.681  -6.223  0.00  0.00     0.065 A 
ATOM     16  C   UNL d   1      27.626 -14.032  -5.803  0.00  0.00     0.022 A 
ATOM     17  C   UNL d   1      28.597 -14.987  -6.110  0.00  0.00     0.038 A 
ATOM     18  C   UNL d   1      29.675 -14.631  -6.906  0.00  0.00     0.070 A 
ATOM     19  C   UNL d   1      29.769 -13.317  -7.375  0.00  0.00     0.074 A 
ATOM     20  C   UNL d   1      28.811 -12.333  -7.045  0.00  0.00     0.086 A 
BRANCH  18  21
ATOM     21  O   UNL d   1      30.519 -15.644  -7.265  0.00  0.00    -0.356 OA
ATOM     22  C   UNL d   1      30.383 -16.864  -6.542  0.00  0.00     0.210 C 
ENDBRANCH  18  21
BRANCH  20  23
ATOM     23  O   UNL d   1      28.858 -11.042  -7.505  0.00  0.00    -0.355 OA
ATOM     24  C   UNL d   1      28.083 -10.773  -8.669  0.00  0.00     0.210 C 
ENDBRANCH  20  23
ENDBRANCH  12  15
ENDBRANCH   9  11
ENDBRANCH   7   9
ENDBRANCH   1   7
BRANCH   4  25
ATOM     25  N   UNL d   1      28.346 -12.924   0.044  0.00  0.00    -0.378 N 
ATOM     26  C   UNL d   1      29.477 -13.792  -0.297  0.00  0.00     0.150 C 
ATOM     27  C   UNL d   1      29.047 -15.259  -0.566  0.00  0.00     0.255 C 
ATOM     28  N   UNL d   1      28.218 -15.836   0.604  0.00  0.00    -0.064 N 
ATOM     29  C   UNL d   1      27.136 -14.833   1.004  0.00  0.00     0.255 C 
ATOM     30  H   UNL d   1      28.844 -15.962   1.408  0.00  0.00     0.280 HD
ATOM     31  C   UNL d   1      27.595 -13.381   1.209  0.00  0.00     0.150 C 
BRANCH  28  32
ATOM     32  C   UNL d   1      27.638 -17.235   0.277  0.00  0.00     0.275 C 
BRANCH  32  33
ATOM     33  C   UNL d   1      26.166 -17.318  -0.102  0.00  0.00    -0.011 C 
ATOM     34  C   UNL d   1      25.307 -18.199   0.594  0.00  0.00     0.010 C 
ATOM     35  C   UNL d   1      23.969 -18.366   0.198  0.00  0.00     0.001 C 
ATOM     36  C   UNL d   1      23.414 -17.538  -0.771  0.00  0.00     0.002 C 
ATOM     37  C   UNL d   1      24.228 -16.648  -1.447  0.00  0.00     0.024 C 
ATOM     38  C   UNL d   1      25.601 -16.647  -1.208  0.00  0.00     0.042 C 
ATOM     39 CL   UNL d   1      26.512 -15.954  -2.507  0.00  0.00    -0.084 Cl
ENDBRANCH  32  33
ENDBRANCH  28  32
ENDBRANCH   4  25
TORSDOF 9
ENDMDL
MODEL 9
REMARK VINA RESULT:    -7.484      6.082      9.155
REMARK INTER + INTRA:         -13.861
REMARK INTER:                 -10.168
REMARK INTRA:                  -3.693
REMARK CONF_INDEPENDENT:        2.685
REMARK UNBOUND:                -3.693
REMARK  9 active torsions:
REMARK  status: ('A' for Active; 'I' for Inactive)
REMARK    1  A    between atoms: O_2  and  C_3 
REMARK    2  A    between atoms: C_6  and  C_7 
REMARK       I    between atoms: C_7  and  N_9 
REMARK    3  A    between atoms: N_9  and  C_10 
REMARK    4  A    between atoms: C_10  and  N_12 
REMARK    5  A    between atoms: N_12  and  C_13 
REMARK    6  A    between atoms: C_16  and  N_17 
REMARK    7  A    between atoms: N_20  and  C_21 
REMARK    8  A    between atoms: C_21  and  C_22 
REMARK    9  A    between atoms: C_33  and  O_34 
ROOT
ATOM      1  C   UNL d   1      26.093 -12.673  -3.123  0.00  0.00     0.034 A 
ATOM      2  C   UNL d   1      25.449 -13.839  -2.708  0.00  0.00     0.032 A 
ATOM      3  C   UNL d   1      26.062 -14.698  -1.751  0.00  0.00     0.031 A 
ATOM      4  C   UNL d   1      27.329 -14.444  -1.186  0.00  0.00     0.030 A 
ATOM      5  C   UNL d   1      27.945 -13.265  -1.598  0.00  0.00     0.031 A 
ATOM      6  C   UNL d   1      27.327 -12.396  -2.523  0.00  0.00     0.032 A 
ENDROOT
BRANCH   1   7
ATOM      7  N   UNL d   1      25.530 -11.771  -4.110  0.00  0.00    -0.333 N 
ATOM      8  H   UNL d   1      24.608 -11.407  -3.898  0.00  0.00     0.168 HD
BRANCH   7   9
ATOM      9  C   UNL d   1      26.030 -11.642  -5.435  0.00  0.00     0.179 C 
ATOM     10  S   UNL d   1      25.603 -10.341  -6.436  0.00  0.00    -0.040 SA
BRANCH   9  11
ATOM     11  N   UNL d   1      26.940 -12.655  -5.836  0.00  0.00    -0.299 N 
ATOM     12  C   UNL d   1      28.357 -12.514  -5.857  0.00  0.00     0.260 C 
ATOM     13  O   UNL d   1      28.938 -11.470  -5.610  0.00  0.00    -0.267 OA
ATOM     14  H   UNL d   1      26.593 -13.567  -6.108  0.00  0.00     0.171 HD
BRANCH  12  15
ATOM     15  C   UNL d   1      29.268 -13.638  -6.259  0.00  0.00     0.065 A 
ATOM     16  C   UNL d   1      30.565 -13.260  -6.694  0.00  0.00     0.022 A 
ATOM     17  C   UNL d   1      31.467 -14.187  -7.220  0.00  0.00     0.038 A 
ATOM     18  C   UNL d   1      31.121 -15.529  -7.261  0.00  0.00     0.070 A 
ATOM     19  C   UNL d   1      29.868 -15.921  -6.780  0.00  0.00     0.074 A 
ATOM     20  C   UNL d   1      28.933 -14.991  -6.277  0.00  0.00     0.086 A 
BRANCH  18  21
ATOM     21  O   UNL d   1      32.097 -16.391  -7.674  0.00  0.00    -0.356 OA
ATOM     22  C   UNL d   1      31.702 -17.746  -7.862  0.00  0.00     0.210 C 
ENDBRANCH  18  21
BRANCH  20  23
ATOM     23  O   UNL d   1      27.705 -15.342  -5.776  0.00  0.00    -0.355 OA
ATOM     24  C   UNL d   1      27.653 -15.575  -4.372  0.00  0.00     0.210 C 
ENDBRANCH  20  23
ENDBRANCH  12  15
ENDBRANCH   9  11
ENDBRANCH   7   9
ENDBRANCH   1   7
BRANCH   4  25
ATOM     25  N   UNL d   1      27.882 -15.324  -0.268  0.00  0.00    -0.378 N 
ATOM     26  C   UNL d   1      29.074 -15.037   0.535  0.00  0.00     0.150 C 
ATOM     27  C   UNL d   1      30.341 -15.762   0.008  0.00  0.00     0.255 C 
ATOM     28  N   UNL d   1      30.109 -17.282  -0.145  0.00  0.00    -0.064 N 
ATOM     29  C   UNL d   1      28.787 -17.525  -0.874  0.00  0.00     0.255 C 
ATOM     30  H   UNL d   1      30.030 -17.690   0.795  0.00  0.00     0.280 HD
ATOM     31  C   UNL d   1      27.569 -16.747  -0.352  0.00  0.00     0.150 C 
BRANCH  28  32
ATOM     32  C   UNL d   1      31.303 -17.992  -0.830  0.00  0.00     0.275 C 
BRANCH  32  33
ATOM     33  C   UNL d   1      31.103 -18.494  -2.253  0.00  0.00    -0.011 C 
ATOM     34  C   UNL d   1      31.365 -19.848  -2.567  0.00  0.00     0.010 C 
ATOM     35  C   UNL d   1      31.283 -20.311  -3.892  0.00  0.00     0.001 C 
ATOM     36  C   UNL d   1      30.771 -19.493  -4.892  0.00  0.00     0.002 C 
ATOM     37  C   UNL d   1      30.481 -18.172  -4.604  0.00  0.00     0.024 C 
ATOM     38  C   UNL d   1      30.778 -17.658  -3.344  0.00  0.00     0.042 C 
ATOM     39 CL   UNL d   1      30.928 -15.933  -3.336  0.00  0.00    -0.084 Cl
ENDBRANCH  32  33
ENDBRANCH  28  32
ENDBRANCH   4  25
TORSDOF 9
ENDMDL
