MODEL 1
REMARK VINA RESULT:    -9.284      0.000      0.000
REMARK INTER + INTRA:         -11.836
REMARK INTER:                 -10.775
REMARK INTRA:                  -1.060
REMARK CONF_INDEPENDENT:        1.492
REMARK UNBOUND:                -1.060
REMARK  5 active torsions:
REMARK  status: ('A' for Active; 'I' for Inactive)
REMARK       I    between atoms: C_2  and  N_3 
REMARK    1  A    between atoms: C_2  and  C_7 
REMARK    2  A    between atoms: N_3  and  C_4 
REMARK    3  A    between atoms: C_11  and  N_12 
REMARK       I    between atoms: N_12  and  C_13 
REMARK    4  A    between atoms: C_13  and  C_15 
REMARK    5  A    between atoms: C_21  and  O_22 
ROOT
ATOM      1  C   UNL d   1      25.731 -16.434  -1.780  0.00  0.00     0.034 A 
ATOM      2  C   UNL d   1      26.900 -16.852  -1.164  0.00  0.00     0.017 A 
ATOM      3  C   UNL d   1      26.818 -17.757  -0.096  0.00  0.00     0.003 A 
ATOM      4  C   UNL d   1      25.571 -18.193   0.394  0.00  0.00     0.029 A 
ATOM      5  C   UNL d   1      24.388 -17.744  -0.198  0.00  0.00     0.035 A 
ATOM      6  C   UNL d   1      24.497 -16.842  -1.260  0.00  0.00     0.046 A 
ENDROOT
BRANCH   5   7
ATOM      7  N   UNL d   1      23.125 -18.224   0.246  0.00  0.00    -0.323 N 
ATOM      8  C   UNL d   1      22.183 -18.833  -0.569  0.00  0.00     0.259 C 
ATOM      9  O   UNL d   1      22.291 -19.050  -1.781  0.00  0.00    -0.267 OA
ATOM     10  H   UNL d   1      22.886 -18.115   1.228  0.00  0.00     0.169 HD
BRANCH   8  11
ATOM     11  C   UNL d   1      20.896 -19.278   0.002  0.00  0.00     0.067 A 
ATOM     12  C   UNL d   1      20.840 -19.383   1.405  0.00  0.00     0.043 A 
ATOM     13  C   UNL d   1      19.828 -20.118   2.006  0.00  0.00     0.035 A 
ATOM     14 CL   UNL d   1      19.895 -20.450   3.694  0.00  0.00    -0.084 Cl
ATOM     15  C   UNL d   1      18.814 -20.669   1.230  0.00  0.00     0.026 A 
ATOM     16  C   UNL d   1      18.835 -20.522  -0.163  0.00  0.00     0.039 A 
ATOM     17  C   UNL d   1      19.877 -19.823  -0.778  0.00  0.00     0.081 A 
BRANCH  17  18
ATOM     18  O   UNL d   1      19.918 -19.700  -2.138  0.00  0.00    -0.360 OA
ATOM     19  H   UNL d   1      20.553 -19.005  -2.382  0.00  0.00     0.217 HD
ENDBRANCH  17  18
ENDBRANCH   8  11
ENDBRANCH   5   7
BRANCH   1  20
ATOM     20  C   UNL d   1      25.681 -15.528  -2.953  0.00  0.00     0.252 C 
ATOM     21  O   UNL d   1      24.630 -14.918  -3.152  0.00  0.00    -0.268 OA
ATOM     22  N   UNL d   1      26.779 -15.447  -3.814  0.00  0.00    -0.352 N 
ATOM     23  H   UNL d   1      27.584 -16.047  -3.674  0.00  0.00     0.163 HD
BRANCH  22  24
ATOM     24  C   UNL d   1      26.646 -14.635  -5.001  0.00  0.00     0.084 A 
ATOM     25  C   UNL d   1      27.377 -13.352  -5.262  0.00  0.00     0.027 A 
ATOM     26  C   UNL d   1      27.620 -14.548  -6.142  0.00  0.00     0.027 A 
ENDBRANCH  22  24
ENDBRANCH   1  20
TORSDOF 5
ENDMDL
MODEL 2
REMARK VINA RESULT:    -9.274      3.345      8.576
REMARK INTER + INTRA:         -11.883
REMARK INTER:                 -10.766
REMARK INTRA:                  -1.117
REMARK CONF_INDEPENDENT:        1.492
REMARK UNBOUND:                -1.117
REMARK  5 active torsions:
REMARK  status: ('A' for Active; 'I' for Inactive)
REMARK       I    between atoms: C_2  and  N_3 
REMARK    1  A    between atoms: C_2  and  C_7 
REMARK    2  A    between atoms: N_3  and  C_4 
REMARK    3  A    between atoms: C_11  and  N_12 
REMARK       I    between atoms: N_12  and  C_13 
REMARK    4  A    between atoms: C_13  and  C_15 
REMARK    5  A    between atoms: C_21  and  O_22 
ROOT
ATOM      1  C   UNL d   1      23.695 -17.798  -0.450  0.00  0.00     0.034 A 
ATOM      2  C   UNL d   1      24.502 -18.201   0.602  0.00  0.00     0.017 A 
ATOM      3  C   UNL d   1      25.857 -17.841   0.595  0.00  0.00     0.003 A 
ATOM      4  C   UNL d   1      26.417 -17.136  -0.489  0.00  0.00     0.029 A 
ATOM      5  C   UNL d   1      25.617 -16.761  -1.571  0.00  0.00     0.035 A 
ATOM      6  C   UNL d   1      24.270 -17.133  -1.540  0.00  0.00     0.046 A 
ENDROOT
BRANCH   5   7
ATOM      7  N   UNL d   1      26.155 -15.996  -2.641  0.00  0.00    -0.323 N 
ATOM      8  C   UNL d   1      25.496 -14.952  -3.273  0.00  0.00     0.259 C 
ATOM      9  O   UNL d   1      24.365 -14.532  -3.008  0.00  0.00    -0.267 OA
ATOM     10  H   UNL d   1      27.087 -16.225  -2.977  0.00  0.00     0.169 HD
BRANCH   8  11
ATOM     11  C   UNL d   1      26.151 -14.237  -4.387  0.00  0.00     0.067 A 
ATOM     12  C   UNL d   1      27.083 -14.977  -5.140  0.00  0.00     0.043 A 
ATOM     13  C   UNL d   1      27.995 -14.320  -5.953  0.00  0.00     0.035 A 
ATOM     14 CL   UNL d   1      29.285 -15.198  -6.680  0.00  0.00    -0.084 Cl
ATOM     15  C   UNL d   1      27.926 -12.938  -6.101  0.00  0.00     0.026 A 
ATOM     16  C   UNL d   1      26.965 -12.203  -5.396  0.00  0.00     0.039 A 
ATOM     17  C   UNL d   1      26.074 -12.853  -4.538  0.00  0.00     0.081 A 
BRANCH  17  18
ATOM     18  O   UNL d   1      25.153 -12.138  -3.827  0.00  0.00    -0.360 OA
ATOM     19  H   UNL d   1      24.284 -12.567  -3.899  0.00  0.00     0.217 HD
ENDBRANCH  17  18
ENDBRANCH   8  11
ENDBRANCH   5   7
BRANCH   1  20
ATOM     20  C   UNL d   1      22.239 -18.061  -0.537  0.00  0.00     0.252 C 
ATOM     21  O   UNL d   1      21.516 -17.130  -0.894  0.00  0.00    -0.268 OA
ATOM     22  N   UNL d   1      21.735 -19.308  -0.156  0.00  0.00    -0.352 N 
ATOM     23  H   UNL d   1      22.353 -20.011   0.233  0.00  0.00     0.163 HD
BRANCH  22  24
ATOM     24  C   UNL d   1      20.302 -19.484  -0.156  0.00  0.00     0.084 A 
ATOM     25  C   UNL d   1      19.581 -20.740   0.236  0.00  0.00     0.027 A 
ATOM     26  C   UNL d   1      19.399 -19.486   1.045  0.00  0.00     0.027 A 
ENDBRANCH  22  24
ENDBRANCH   1  20
TORSDOF 5
ENDMDL
MODEL 3
REMARK VINA RESULT:    -9.141      3.283      8.491
REMARK INTER + INTRA:         -11.770
REMARK INTER:                 -10.633
REMARK INTRA:                  -1.138
REMARK CONF_INDEPENDENT:        1.492
REMARK UNBOUND:                -1.138
REMARK  5 active torsions:
REMARK  status: ('A' for Active; 'I' for Inactive)
REMARK       I    between atoms: C_2  and  N_3 
REMARK    1  A    between atoms: C_2  and  C_7 
REMARK    2  A    between atoms: N_3  and  C_4 
REMARK    3  A    between atoms: C_11  and  N_12 
REMARK       I    between atoms: N_12  and  C_13 
REMARK    4  A    between atoms: C_13  and  C_15 
REMARK    5  A    between atoms: C_21  and  O_22 
ROOT
ATOM      1  C   UNL d   1      23.620 -17.791  -0.498  0.00  0.00     0.034 A 
ATOM      2  C   UNL d   1      24.509 -18.566   0.231  0.00  0.00     0.017 A 
ATOM      3  C   UNL d   1      25.866 -18.212   0.244  0.00  0.00     0.003 A 
ATOM      4  C   UNL d   1      26.343 -17.128  -0.520  0.00  0.00     0.029 A 
ATOM      5  C   UNL d   1      25.458 -16.368  -1.289  0.00  0.00     0.035 A 
ATOM      6  C   UNL d   1      24.111 -16.741  -1.285  0.00  0.00     0.046 A 
ENDROOT
BRANCH   5   7
ATOM      7  N   UNL d   1      25.916 -15.234  -2.014  0.00  0.00    -0.323 N 
ATOM      8  C   UNL d   1      25.919 -15.131  -3.397  0.00  0.00     0.259 C 
ATOM      9  O   UNL d   1      25.530 -15.989  -4.197  0.00  0.00    -0.267 OA
ATOM     10  H   UNL d   1      26.273 -14.439  -1.490  0.00  0.00     0.169 HD
BRANCH   8  11
ATOM     11  C   UNL d   1      26.436 -13.907  -4.041  0.00  0.00     0.067 A 
ATOM     12  C   UNL d   1      26.073 -12.686  -3.441  0.00  0.00     0.043 A 
ATOM     13  C   UNL d   1      26.196 -11.500  -4.151  0.00  0.00     0.035 A 
ATOM     14 CL   UNL d   1      25.530 -10.046  -3.516  0.00  0.00    -0.084 Cl
ATOM     15  C   UNL d   1      26.771 -11.505  -5.419  0.00  0.00     0.026 A 
ATOM     16  C   UNL d   1      27.184 -12.712  -5.998  0.00  0.00     0.039 A 
ATOM     17  C   UNL d   1      27.018 -13.915  -5.308  0.00  0.00     0.081 A 
BRANCH  17  18
ATOM     18  O   UNL d   1      27.394 -15.097  -5.880  0.00  0.00    -0.360 OA
ATOM     19  H   UNL d   1      26.805 -15.807  -5.573  0.00  0.00     0.217 HD
ENDBRANCH  17  18
ENDBRANCH   8  11
ENDBRANCH   5   7
BRANCH   1  20
ATOM     20  C   UNL d   1      22.157 -18.019  -0.550  0.00  0.00     0.252 C 
ATOM     21  O   UNL d   1      21.448 -17.073  -0.895  0.00  0.00    -0.268 OA
ATOM     22  N   UNL d   1      21.633 -19.252  -0.149  0.00  0.00    -0.352 N 
ATOM     23  H   UNL d   1      22.243 -19.967   0.230  0.00  0.00     0.163 HD
BRANCH  22  24
ATOM     24  C   UNL d   1      20.196 -19.393  -0.113  0.00  0.00     0.084 A 
ATOM     25  C   UNL d   1      19.455 -20.647   0.245  0.00  0.00     0.027 A 
ATOM     26  C   UNL d   1      19.328 -19.425   1.113  0.00  0.00     0.027 A 
ENDBRANCH  22  24
ENDBRANCH   1  20
TORSDOF 5
ENDMDL
MODEL 4
REMARK VINA RESULT:    -9.078      3.596      8.603
REMARK INTER + INTRA:         -11.713
REMARK INTER:                 -10.569
REMARK INTRA:                  -1.144
REMARK CONF_INDEPENDENT:        1.492
REMARK UNBOUND:                -1.144
REMARK  5 active torsions:
REMARK  status: ('A' for Active; 'I' for Inactive)
REMARK       I    between atoms: C_2  and  N_3 
REMARK    1  A    between atoms: C_2  and  C_7 
REMARK    2  A    between atoms: N_3  and  C_4 
REMARK    3  A    between atoms: C_11  and  N_12 
REMARK       I    between atoms: N_12  and  C_13 
REMARK    4  A    between atoms: C_13  and  C_15 
REMARK    5  A    between atoms: C_21  and  O_22 
ROOT
ATOM      1  C   UNL d   1      23.255 -17.959  -0.500  0.00  0.00     0.034 A 
ATOM      2  C   UNL d   1      24.214 -18.575   0.288  0.00  0.00     0.017 A 
ATOM      3  C   UNL d   1      25.543 -18.134   0.209  0.00  0.00     0.003 A 
ATOM      4  C   UNL d   1      25.923 -17.127  -0.700  0.00  0.00     0.029 A 
ATOM      5  C   UNL d   1      24.967 -16.530  -1.526  0.00  0.00     0.035 A 
ATOM      6  C   UNL d   1      23.650 -16.987  -1.428  0.00  0.00     0.046 A 
ENDROOT
BRANCH   5   7
ATOM      7  N   UNL d   1      25.326 -15.470  -2.403  0.00  0.00    -0.323 N 
ATOM      8  C   UNL d   1      25.946 -14.295  -2.005  0.00  0.00     0.259 C 
ATOM      9  O   UNL d   1      26.280 -13.994  -0.854  0.00  0.00    -0.267 OA
ATOM     10  H   UNL d   1      25.111 -15.568  -3.391  0.00  0.00     0.169 HD
BRANCH   8  11
ATOM     11  C   UNL d   1      26.257 -13.254  -3.005  0.00  0.00     0.067 A 
ATOM     12  C   UNL d   1      27.091 -12.204  -2.575  0.00  0.00     0.043 A 
ATOM     13  C   UNL d   1      27.148 -11.022  -3.299  0.00  0.00     0.035 A 
ATOM     14 CL   UNL d   1      27.971  -9.657  -2.649  0.00  0.00    -0.084 Cl
ATOM     15  C   UNL d   1      26.458 -10.909  -4.502  0.00  0.00     0.026 A 
ATOM     16  C   UNL d   1      25.670 -11.971  -4.962  0.00  0.00     0.039 A 
ATOM     17  C   UNL d   1      25.570 -13.147  -4.214  0.00  0.00     0.081 A 
BRANCH  17  18
ATOM     18  O   UNL d   1      24.780 -14.174  -4.645  0.00  0.00    -0.360 OA
ATOM     19  H   UNL d   1      23.958 -13.816  -5.020  0.00  0.00     0.217 HD
ENDBRANCH  17  18
ENDBRANCH   8  11
ENDBRANCH   5   7
BRANCH   1  20
ATOM     20  C   UNL d   1      21.810 -18.287  -0.471  0.00  0.00     0.252 C 
ATOM     21  O   UNL d   1      21.030 -17.451  -0.926  0.00  0.00    -0.268 OA
ATOM     22  N   UNL d   1      21.382 -19.481   0.119  0.00  0.00    -0.352 N 
ATOM     23  H   UNL d   1      22.049 -20.092   0.577  0.00  0.00     0.163 HD
BRANCH  22  24
ATOM     24  C   UNL d   1      19.960 -19.709   0.221  0.00  0.00     0.084 A 
ATOM     25  C   UNL d   1      19.313 -21.007   0.605  0.00  0.00     0.027 A 
ATOM     26  C   UNL d   1      19.154 -19.799   1.487  0.00  0.00     0.027 A 
ENDBRANCH  22  24
ENDBRANCH   1  20
TORSDOF 5
ENDMDL
MODEL 5
REMARK VINA RESULT:    -9.009      3.509      8.666
REMARK INTER + INTRA:         -11.604
REMARK INTER:                 -10.500
REMARK INTRA:                  -1.104
REMARK CONF_INDEPENDENT:        1.492
REMARK UNBOUND:                -1.104
REMARK  5 active torsions:
REMARK  status: ('A' for Active; 'I' for Inactive)
REMARK       I    between atoms: C_2  and  N_3 
REMARK    1  A    between atoms: C_2  and  C_7 
REMARK    2  A    between atoms: N_3  and  C_4 
REMARK    3  A    between atoms: C_11  and  N_12 
REMARK       I    between atoms: N_12  and  C_13 
REMARK    4  A    between atoms: C_13  and  C_15 
REMARK    5  A    between atoms: C_21  and  O_22 
ROOT
ATOM      1  C   UNL d   1      22.886 -18.077  -0.419  0.00  0.00     0.034 A 
ATOM      2  C   UNL d   1      23.823 -18.575   0.472  0.00  0.00     0.017 A 
ATOM      3  C   UNL d   1      25.129 -18.063   0.441  0.00  0.00     0.003 A 
ATOM      4  C   UNL d   1      25.512 -17.104  -0.518  0.00  0.00     0.029 A 
ATOM      5  C   UNL d   1      24.581 -16.628  -1.445  0.00  0.00     0.035 A 
ATOM      6  C   UNL d   1      23.287 -17.154  -1.393  0.00  0.00     0.046 A 
ENDROOT
BRANCH   5   7
ATOM      7  N   UNL d   1      24.937 -15.614  -2.377  0.00  0.00    -0.323 N 
ATOM      8  C   UNL d   1      26.188 -15.487  -2.961  0.00  0.00     0.259 C 
ATOM      9  O   UNL d   1      27.166 -16.219  -2.770  0.00  0.00    -0.267 OA
ATOM     10  H   UNL d   1      24.234 -14.928  -2.635  0.00  0.00     0.169 HD
BRANCH   8  11
ATOM     11  C   UNL d   1      26.448 -14.382  -3.905  0.00  0.00     0.067 A 
ATOM     12  C   UNL d   1      27.795 -14.006  -4.070  0.00  0.00     0.043 A 
ATOM     13  C   UNL d   1      28.109 -12.779  -4.636  0.00  0.00     0.035 A 
ATOM     14 CL   UNL d   1      29.735 -12.215  -4.616  0.00  0.00    -0.084 Cl
ATOM     15  C   UNL d   1      27.097 -11.962  -5.132  0.00  0.00     0.026 A 
ATOM     16  C   UNL d   1      25.758 -12.356  -5.019  0.00  0.00     0.039 A 
ATOM     17  C   UNL d   1      25.432 -13.569  -4.407  0.00  0.00     0.081 A 
BRANCH  17  18
ATOM     18  O   UNL d   1      24.126 -13.945  -4.270  0.00  0.00    -0.360 OA
ATOM     19  H   UNL d   1      23.575 -13.429  -4.882  0.00  0.00     0.217 HD
ENDBRANCH  17  18
ENDBRANCH   8  11
ENDBRANCH   5   7
BRANCH   1  20
ATOM     20  C   UNL d   1      21.462 -18.487  -0.453  0.00  0.00     0.252 C 
ATOM     21  O   UNL d   1      20.697 -17.819  -1.149  0.00  0.00    -0.268 OA
ATOM     22  N   UNL d   1      21.029 -19.555   0.340  0.00  0.00    -0.352 N 
ATOM     23  H   UNL d   1      21.671 -20.009   0.980  0.00  0.00     0.163 HD
BRANCH  22  24
ATOM     24  C   UNL d   1      19.616 -19.851   0.357  0.00  0.00     0.084 A 
ATOM     25  C   UNL d   1      19.014 -21.202   0.609  0.00  0.00     0.027 A 
ATOM     26  C   UNL d   1      18.761 -20.074   1.572  0.00  0.00     0.027 A 
ENDBRANCH  22  24
ENDBRANCH   1  20
TORSDOF 5
ENDMDL
MODEL 6
REMARK VINA RESULT:    -8.421      3.746      8.688
REMARK INTER + INTRA:         -11.067
REMARK INTER:                  -9.912
REMARK INTRA:                  -1.155
REMARK CONF_INDEPENDENT:        1.492
REMARK UNBOUND:                -1.155
REMARK  5 active torsions:
REMARK  status: ('A' for Active; 'I' for Inactive)
REMARK       I    between atoms: C_2  and  N_3 
REMARK    1  A    between atoms: C_2  and  C_7 
REMARK    2  A    between atoms: N_3  and  C_4 
REMARK    3  A    between atoms: C_11  and  N_12 
REMARK       I    between atoms: N_12  and  C_13 
REMARK    4  A    between atoms: C_13  and  C_15 
REMARK    5  A    between atoms: C_21  and  O_22 
ROOT
ATOM      1  C   UNL d   1      23.605 -17.683  -0.529  0.00  0.00     0.034 A 
ATOM      2  C   UNL d   1      24.593 -18.575  -0.143  0.00  0.00     0.017 A 
ATOM      3  C   UNL d   1      25.934 -18.168  -0.201  0.00  0.00     0.003 A 
ATOM      4  C   UNL d   1      26.290 -16.900  -0.702  0.00  0.00     0.029 A 
ATOM      5  C   UNL d   1      25.299 -16.012  -1.129  0.00  0.00     0.035 A 
ATOM      6  C   UNL d   1      23.971 -16.441  -1.061  0.00  0.00     0.046 A 
ENDROOT
BRANCH   5   7
ATOM      7  N   UNL d   1      25.640 -14.706  -1.576  0.00  0.00    -0.323 N 
ATOM      8  C   UNL d   1      25.382 -14.217  -2.848  0.00  0.00     0.259 C 
ATOM      9  O   UNL d   1      24.827 -14.825  -3.769  0.00  0.00    -0.267 OA
ATOM     10  H   UNL d   1      26.110 -14.081  -0.927  0.00  0.00     0.169 HD
BRANCH   8  11
ATOM     11  C   UNL d   1      25.798 -12.846  -3.206  0.00  0.00     0.067 A 
ATOM     12  C   UNL d   1      25.530 -12.437  -4.526  0.00  0.00     0.043 A 
ATOM     13  C   UNL d   1      26.185 -11.336  -5.059  0.00  0.00     0.035 A 
ATOM     14 CL   UNL d   1      26.044 -10.982  -6.737  0.00  0.00    -0.084 Cl
ATOM     15  C   UNL d   1      27.032 -10.577  -4.258  0.00  0.00     0.026 A 
ATOM     16  C   UNL d   1      27.261 -10.948  -2.927  0.00  0.00     0.039 A 
ATOM     17  C   UNL d   1      26.642 -12.083  -2.398  0.00  0.00     0.081 A 
BRANCH  17  18
ATOM     18  O   UNL d   1      26.883 -12.465  -1.110  0.00  0.00    -0.360 OA
ATOM     19  H   UNL d   1      27.837 -12.412  -0.929  0.00  0.00     0.217 HD
ENDBRANCH  17  18
ENDBRANCH   8  11
ENDBRANCH   5   7
BRANCH   1  20
ATOM     20  C   UNL d   1      22.151 -17.964  -0.461  0.00  0.00     0.252 C 
ATOM     21  O   UNL d   1      21.387 -17.101  -0.895  0.00  0.00    -0.268 OA
ATOM     22  N   UNL d   1      21.700 -19.143   0.139  0.00  0.00    -0.352 N 
ATOM     23  H   UNL d   1      22.358 -19.777   0.580  0.00  0.00     0.163 HD
BRANCH  22  24
ATOM     24  C   UNL d   1      20.274 -19.325   0.278  0.00  0.00     0.084 A 
ATOM     25  C   UNL d   1      19.324 -19.634  -0.841  0.00  0.00     0.027 A 
ATOM     26  C   UNL d   1      19.531 -20.631   0.265  0.00  0.00     0.027 A 
ENDBRANCH  22  24
ENDBRANCH   1  20
TORSDOF 5
ENDMDL
MODEL 7
REMARK VINA RESULT:    -7.225      4.735      8.522
REMARK INTER + INTRA:          -9.730
REMARK INTER:                  -8.716
REMARK INTRA:                  -1.014
REMARK CONF_INDEPENDENT:        1.492
REMARK UNBOUND:                -1.014
REMARK  5 active torsions:
REMARK  status: ('A' for Active; 'I' for Inactive)
REMARK       I    between atoms: C_2  and  N_3 
REMARK    1  A    between atoms: C_2  and  C_7 
REMARK    2  A    between atoms: N_3  and  C_4 
REMARK    3  A    between atoms: C_11  and  N_12 
REMARK       I    between atoms: N_12  and  C_13 
REMARK    4  A    between atoms: C_13  and  C_15 
REMARK    5  A    between atoms: C_21  and  O_22 
ROOT
ATOM      1  C   UNL d   1      24.800 -17.177  -1.083  0.00  0.00     0.034 A 
ATOM      2  C   UNL d   1      24.940 -16.521  -2.296  0.00  0.00     0.017 A 
ATOM      3  C   UNL d   1      25.971 -15.582  -2.445  0.00  0.00     0.003 A 
ATOM      4  C   UNL d   1      26.818 -15.253  -1.368  0.00  0.00     0.029 A 
ATOM      5  C   UNL d   1      26.656 -15.883  -0.131  0.00  0.00     0.035 A 
ATOM      6  C   UNL d   1      25.622 -16.814  -0.008  0.00  0.00     0.046 A 
ENDROOT
BRANCH   5   7
ATOM      7  N   UNL d   1      27.543 -15.607   0.946  0.00  0.00    -0.323 N 
ATOM      8  C   UNL d   1      27.416 -14.535   1.816  0.00  0.00     0.259 C 
ATOM      9  O   UNL d   1      26.530 -13.674   1.796  0.00  0.00    -0.267 OA
ATOM     10  H   UNL d   1      28.332 -16.230   1.092  0.00  0.00     0.169 HD
BRANCH   8  11
ATOM     11  C   UNL d   1      28.410 -14.339   2.890  0.00  0.00     0.067 A 
ATOM     12  C   UNL d   1      27.933 -13.767   4.085  0.00  0.00     0.043 A 
ATOM     13  C   UNL d   1      28.824 -13.220   4.997  0.00  0.00     0.035 A 
ATOM     14 CL   UNL d   1      28.235 -12.309   6.333  0.00  0.00    -0.084 Cl
ATOM     15  C   UNL d   1      30.195 -13.324   4.778  0.00  0.00     0.026 A 
ATOM     16  C   UNL d   1      30.676 -13.941   3.616  0.00  0.00     0.039 A 
ATOM     17  C   UNL d   1      29.783 -14.451   2.671  0.00  0.00     0.081 A 
BRANCH  17  18
ATOM     18  O   UNL d   1      30.246 -15.028   1.523  0.00  0.00    -0.360 OA
ATOM     19  H   UNL d   1      30.635 -15.895   1.731  0.00  0.00     0.217 HD
ENDBRANCH  17  18
ENDBRANCH   8  11
ENDBRANCH   5   7
BRANCH   1  20
ATOM     20  C   UNL d   1      23.794 -18.231  -0.812  0.00  0.00     0.252 C 
ATOM     21  O   UNL d   1      24.211 -19.340  -0.477  0.00  0.00    -0.268 OA
ATOM     22  N   UNL d   1      22.436 -17.958  -1.004  0.00  0.00    -0.352 N 
ATOM     23  H   UNL d   1      22.143 -17.064  -1.382  0.00  0.00     0.163 HD
BRANCH  22  24
ATOM     24  C   UNL d   1      21.500 -19.044  -0.831  0.00  0.00     0.084 A 
ATOM     25  C   UNL d   1      20.715 -19.324   0.417  0.00  0.00     0.027 A 
ATOM     26  C   UNL d   1      20.001 -18.947  -0.852  0.00  0.00     0.027 A 
ENDBRANCH  22  24
ENDBRANCH   1  20
TORSDOF 5
ENDMDL
MODEL 8
REMARK VINA RESULT:    -7.136      5.752      8.617
REMARK INTER + INTRA:          -9.705
REMARK INTER:                  -8.628
REMARK INTRA:                  -1.078
REMARK CONF_INDEPENDENT:        1.492
REMARK UNBOUND:                -1.078
REMARK  5 active torsions:
REMARK  status: ('A' for Active; 'I' for Inactive)
REMARK       I    between atoms: C_2  and  N_3 
REMARK    1  A    between atoms: C_2  and  C_7 
REMARK    2  A    between atoms: N_3  and  C_4 
REMARK    3  A    between atoms: C_11  and  N_12 
REMARK       I    between atoms: N_12  and  C_13 
REMARK    4  A    between atoms: C_13  and  C_15 
REMARK    5  A    between atoms: C_21  and  O_22 
ROOT
ATOM      1  C   UNL d   1      26.442 -16.263  -0.788  0.00  0.00     0.034 A 
ATOM      2  C   UNL d   1      27.515 -16.431  -1.650  0.00  0.00     0.017 A 
ATOM      3  C   UNL d   1      28.805 -16.117  -1.197  0.00  0.00     0.003 A 
ATOM      4  C   UNL d   1      29.014 -15.578   0.087  0.00  0.00     0.029 A 
ATOM      5  C   UNL d   1      27.932 -15.370   0.946  0.00  0.00     0.035 A 
ATOM      6  C   UNL d   1      26.657 -15.689   0.471  0.00  0.00     0.046 A 
ENDROOT
BRANCH   5   7
ATOM      7  N   UNL d   1      28.137 -14.886   2.268  0.00  0.00    -0.323 N 
ATOM      8  C   UNL d   1      27.543 -13.747   2.790  0.00  0.00     0.259 C 
ATOM      9  O   UNL d   1      26.758 -12.994   2.204  0.00  0.00    -0.267 OA
ATOM     10  H   UNL d   1      28.765 -15.402   2.878  0.00  0.00     0.169 HD
BRANCH   8  11
ATOM     11  C   UNL d   1      27.844 -13.332   4.175  0.00  0.00     0.067 A 
ATOM     12  C   UNL d   1      27.943 -11.946   4.403  0.00  0.00     0.043 A 
ATOM     13  C   UNL d   1      28.562 -11.474   5.551  0.00  0.00     0.035 A 
ATOM     14 CL   UNL d   1      28.900  -9.794   5.715  0.00  0.00    -0.084 Cl
ATOM     15  C   UNL d   1      28.999 -12.368   6.524  0.00  0.00     0.026 A 
ATOM     16  C   UNL d   1      28.854 -13.747   6.327  0.00  0.00     0.039 A 
ATOM     17  C   UNL d   1      28.274 -14.231   5.151  0.00  0.00     0.081 A 
BRANCH  17  18
ATOM     18  O   UNL d   1      28.155 -15.575   4.942  0.00  0.00    -0.360 OA
ATOM     19  H   UNL d   1      28.875 -15.877   4.361  0.00  0.00     0.217 HD
ENDBRANCH  17  18
ENDBRANCH   8  11
ENDBRANCH   5   7
BRANCH   1  20
ATOM     20  C   UNL d   1      25.040 -16.610  -1.119  0.00  0.00     0.252 C 
ATOM     21  O   UNL d   1      24.529 -16.044  -2.086  0.00  0.00    -0.268 OA
ATOM     22  N   UNL d   1      24.334 -17.498  -0.302  0.00  0.00    -0.352 N 
ATOM     23  H   UNL d   1      24.758 -17.859   0.546  0.00  0.00     0.163 HD
BRANCH  22  24
ATOM     24  C   UNL d   1      22.940 -17.725  -0.600  0.00  0.00     0.084 A 
ATOM     25  C   UNL d   1      22.379 -18.950  -1.260  0.00  0.00     0.027 A 
ATOM     26  C   UNL d   1      21.995 -18.616   0.156  0.00  0.00     0.027 A 
ENDBRANCH  22  24
ENDBRANCH   1  20
TORSDOF 5
ENDMDL
