MODEL 1
REMARK VINA RESULT:    -8.366      0.000      0.000
REMARK INTER + INTRA:         -12.068
REMARK INTER:                 -10.454
REMARK INTRA:                  -1.614
REMARK CONF_INDEPENDENT:        2.088
REMARK UNBOUND:                -1.614
REMARK  7 active torsions:
REMARK  status: ('A' for Active; 'I' for Inactive)
REMARK    1  A    between atoms: C_2  and  C_4 
REMARK    2  A    between atoms: C_4  and  C_5 
REMARK    3  A    between atoms: C_5  and  N_6 
REMARK       I    between atoms: N_6  and  C_7 
REMARK       I    between atoms: C_7  and  N_9 
REMARK    4  A    between atoms: N_9  and  N_10 
REMARK       I    between atoms: N_10  and  C_11 
REMARK    5  A    between atoms: C_11  and  C_13 
REMARK    6  A    between atoms: C_14  and  C_15 
REMARK    7  A    between atoms: C_20  and  N_21 
ROOT
ATOM      1  N   UNL d   1      24.122 -17.116  -0.989  0.00  0.00    -0.263 N 
ATOM      2  C   UNL d   1      25.500 -16.995  -0.858  0.00  0.00     0.259 C 
ATOM      3  O   UNL d   1      26.192 -17.811  -0.251  0.00  0.00    -0.267 OA
ATOM      4  H   UNL d   1      23.520 -16.410  -1.410  0.00  0.00     0.190 HD
ENDROOT
BRANCH   1   5
ATOM      5  N   UNL d   1      23.461 -18.283  -0.489  0.00  0.00    -0.249 N 
ATOM      6  C   UNL d   1      22.104 -18.459  -0.708  0.00  0.00     0.334 C 
ATOM      7  N   UNL d   1      21.599 -19.664  -0.251  0.00  0.00    -0.342 N 
ATOM      8  O   UNL d   1      21.412 -17.613  -1.273  0.00  0.00    -0.246 OA
ATOM      9  H   UNL d   1      22.199 -20.307   0.245  0.00  0.00     0.164 HD
ATOM     10  H   UNL d   1      24.056 -18.966  -0.030  0.00  0.00     0.192 HD
BRANCH   7  11
ATOM     11  C   UNL d   1      20.174 -19.975  -0.375  0.00  0.00     0.125 C 
BRANCH  11  12
ATOM     12  C   UNL d   1      19.268 -19.282   0.659  0.00  0.00     0.023 C 
BRANCH  12  13
ATOM     13  C   UNL d   1      18.668 -20.262   1.700  0.00  0.00    -0.021 C 
ATOM     14  C   UNL d   1      18.396 -21.633   1.069  0.00  0.00     0.009 C 
ATOM     15  C   UNL d   1      19.592 -20.447   2.905  0.00  0.00     0.009 C 
ENDBRANCH  12  13
ENDBRANCH  11  12
ENDBRANCH   7  11
ENDBRANCH   1   5
BRANCH   2  16
ATOM     16  C   UNL d   1      26.094 -15.777  -1.504  0.00  0.00     0.076 C 
ATOM     17  C   UNL d   1      25.342 -14.825  -2.097  0.00  0.00     0.019 C 
BRANCH  17  18
ATOM     18  C   UNL d   1      25.880 -13.756  -2.988  0.00  0.00    -0.003 A 
ATOM     19  C   UNL d   1      25.895 -12.433  -2.478  0.00  0.00     0.014 A 
ATOM     20  C   UNL d   1      26.282 -11.334  -3.268  0.00  0.00     0.001 A 
ATOM     21  C   UNL d   1      26.723 -11.530  -4.569  0.00  0.00     0.002 A 
ATOM     22  C   UNL d   1      26.719 -12.815  -5.101  0.00  0.00     0.037 A 
ATOM     23  C   UNL d   1      26.282 -13.923  -4.337  0.00  0.00     0.113 A 
BRANCH  23  24
ATOM     24  N   UNL d   1      26.263 -15.218  -5.054  0.00  0.00    -0.115 N 
ATOM     25  O   UNL d   1      25.244 -15.911  -4.949  0.00  0.00    -0.532 OA
ATOM     26  O   UNL d   1      27.250 -15.570  -5.716  0.00  0.00    -0.532 OA
ENDBRANCH  23  24
ENDBRANCH  17  18
ENDBRANCH   2  16
TORSDOF 7
ENDMDL
MODEL 2
REMARK VINA RESULT:    -8.111      1.503      1.833
REMARK INTER + INTRA:         -11.676
REMARK INTER:                 -10.199
REMARK INTRA:                  -1.477
REMARK CONF_INDEPENDENT:        2.088
REMARK UNBOUND:                -1.477
REMARK  7 active torsions:
REMARK  status: ('A' for Active; 'I' for Inactive)
REMARK    1  A    between atoms: C_2  and  C_4 
REMARK    2  A    between atoms: C_4  and  C_5 
REMARK    3  A    between atoms: C_5  and  N_6 
REMARK       I    between atoms: N_6  and  C_7 
REMARK       I    between atoms: C_7  and  N_9 
REMARK    4  A    between atoms: N_9  and  N_10 
REMARK       I    between atoms: N_10  and  C_11 
REMARK    5  A    between atoms: C_11  and  C_13 
REMARK    6  A    between atoms: C_14  and  C_15 
REMARK    7  A    between atoms: C_20  and  N_21 
ROOT
ATOM      1  N   UNL d   1      24.238 -17.915  -0.532  0.00  0.00    -0.263 N 
ATOM      2  C   UNL d   1      25.488 -17.804   0.062  0.00  0.00     0.259 C 
ATOM      3  O   UNL d   1      25.846 -18.500   1.010  0.00  0.00    -0.267 OA
ATOM      4  H   UNL d   1      23.888 -17.292  -1.259  0.00  0.00     0.190 HD
ENDROOT
BRANCH   1   5
ATOM      5  N   UNL d   1      23.339 -18.945  -0.107  0.00  0.00    -0.249 N 
ATOM      6  C   UNL d   1      21.993 -18.866  -0.426  0.00  0.00     0.334 C 
ATOM      7  N   UNL d   1      21.242 -19.961  -0.033  0.00  0.00    -0.342 N 
ATOM      8  O   UNL d   1      21.511 -17.902  -1.019  0.00  0.00    -0.246 OA
ATOM      9  H   UNL d   1      21.676 -20.708   0.490  0.00  0.00     0.164 HD
ATOM     10  H   UNL d   1      23.762 -19.730   0.377  0.00  0.00     0.192 HD
BRANCH   7  11
ATOM     11  C   UNL d   1      19.798 -20.002  -0.265  0.00  0.00     0.125 C 
BRANCH  11  12
ATOM     12  C   UNL d   1      18.947 -19.322   0.823  0.00  0.00     0.023 C 
BRANCH  12  13
ATOM     13  C   UNL d   1      18.482 -20.298   1.935  0.00  0.00    -0.021 C 
ATOM     14  C   UNL d   1      18.170 -21.682   1.353  0.00  0.00     0.009 C 
ATOM     15  C   UNL d   1      19.534 -20.451   3.035  0.00  0.00     0.009 C 
ENDBRANCH  12  13
ENDBRANCH  11  12
ENDBRANCH   7  11
ENDBRANCH   1   5
BRANCH   2  16
ATOM     16  C   UNL d   1      26.380 -16.751  -0.530  0.00  0.00     0.076 C 
ATOM     17  C   UNL d   1      26.222 -16.282  -1.786  0.00  0.00     0.019 C 
BRANCH  17  18
ATOM     18  C   UNL d   1      27.231 -15.460  -2.515  0.00  0.00    -0.003 A 
ATOM     19  C   UNL d   1      28.401 -15.088  -1.805  0.00  0.00     0.014 A 
ATOM     20  C   UNL d   1      29.367 -14.228  -2.360  0.00  0.00     0.001 A 
ATOM     21  C   UNL d   1      29.225 -13.765  -3.660  0.00  0.00     0.002 A 
ATOM     22  C   UNL d   1      28.088 -14.109  -4.384  0.00  0.00     0.037 A 
ATOM     23  C   UNL d   1      27.083 -14.930  -3.821  0.00  0.00     0.113 A 
BRANCH  23  24
ATOM     24  N   UNL d   1      25.897 -15.155  -4.679  0.00  0.00    -0.115 N 
ATOM     25  O   UNL d   1      26.082 -15.708  -5.770  0.00  0.00    -0.532 OA
ATOM     26  O   UNL d   1      24.780 -14.782  -4.295  0.00  0.00    -0.532 OA
ENDBRANCH  23  24
ENDBRANCH  17  18
ENDBRANCH   2  16
TORSDOF 7
ENDMDL
MODEL 3
REMARK VINA RESULT:    -7.206      2.063      2.469
REMARK INTER + INTRA:         -10.193
REMARK INTER:                  -9.294
REMARK INTRA:                  -0.899
REMARK CONF_INDEPENDENT:        2.088
REMARK UNBOUND:                -0.899
REMARK  7 active torsions:
REMARK  status: ('A' for Active; 'I' for Inactive)
REMARK    1  A    between atoms: C_2  and  C_4 
REMARK    2  A    between atoms: C_4  and  C_5 
REMARK    3  A    between atoms: C_5  and  N_6 
REMARK       I    between atoms: N_6  and  C_7 
REMARK       I    between atoms: C_7  and  N_9 
REMARK    4  A    between atoms: N_9  and  N_10 
REMARK       I    between atoms: N_10  and  C_11 
REMARK    5  A    between atoms: C_11  and  C_13 
REMARK    6  A    between atoms: C_14  and  C_15 
REMARK    7  A    between atoms: C_20  and  N_21 
ROOT
ATOM      1  N   UNL d   1      24.401 -17.686  -0.793  0.00  0.00    -0.263 N 
ATOM      2  C   UNL d   1      24.075 -16.456  -1.351  0.00  0.00     0.259 C 
ATOM      3  O   UNL d   1      22.955 -15.956  -1.267  0.00  0.00    -0.267 OA
ATOM      4  H   UNL d   1      25.294 -18.159  -0.923  0.00  0.00     0.190 HD
ENDROOT
BRANCH   1   5
ATOM      5  N   UNL d   1      23.438 -18.381   0.005  0.00  0.00    -0.249 N 
ATOM      6  C   UNL d   1      22.343 -18.982  -0.596  0.00  0.00     0.334 C 
ATOM      7  N   UNL d   1      21.530 -19.694   0.269  0.00  0.00    -0.342 N 
ATOM      8  O   UNL d   1      22.123 -18.894  -1.803  0.00  0.00    -0.246 OA
ATOM      9  H   UNL d   1      21.729 -19.700   1.258  0.00  0.00     0.164 HD
ATOM     10  H   UNL d   1      23.645 -18.441   0.997  0.00  0.00     0.192 HD
BRANCH   7  11
ATOM     11  C   UNL d   1      20.314 -20.349  -0.214  0.00  0.00     0.125 C 
BRANCH  11  12
ATOM     12  C   UNL d   1      18.999 -19.719   0.279  0.00  0.00     0.023 C 
BRANCH  12  13
ATOM     13  C   UNL d   1      18.397 -20.447   1.510  0.00  0.00    -0.021 C 
ATOM     14  C   UNL d   1      18.031 -21.895   1.164  0.00  0.00     0.009 C 
ATOM     15  C   UNL d   1      19.361 -20.450   2.697  0.00  0.00     0.009 C 
ENDBRANCH  12  13
ENDBRANCH  11  12
ENDBRANCH   7  11
ENDBRANCH   1   5
BRANCH   2  16
ATOM     16  C   UNL d   1      25.194 -15.776  -2.086  0.00  0.00     0.076 C 
ATOM     17  C   UNL d   1      24.987 -14.773  -2.966  0.00  0.00     0.019 C 
BRANCH  17  18
ATOM     18  C   UNL d   1      26.011 -14.260  -3.921  0.00  0.00    -0.003 A 
ATOM     19  C   UNL d   1      26.508 -15.170  -4.889  0.00  0.00     0.014 A 
ATOM     20  C   UNL d   1      27.550 -14.824  -5.770  0.00  0.00     0.001 A 
ATOM     21  C   UNL d   1      28.083 -13.543  -5.753  0.00  0.00     0.002 A 
ATOM     22  C   UNL d   1      27.619 -12.627  -4.814  0.00  0.00     0.037 A 
ATOM     23  C   UNL d   1      26.609 -12.976  -3.887  0.00  0.00     0.113 A 
BRANCH  23  24
ATOM     24  N   UNL d   1      26.266 -11.926  -2.901  0.00  0.00    -0.115 N 
ATOM     25  O   UNL d   1      25.599 -10.965  -3.305  0.00  0.00    -0.532 OA
ATOM     26  O   UNL d   1      26.655 -12.030  -1.730  0.00  0.00    -0.532 OA
ENDBRANCH  23  24
ENDBRANCH  17  18
ENDBRANCH   2  16
TORSDOF 7
ENDMDL
MODEL 4
REMARK VINA RESULT:    -6.950      1.991      9.074
REMARK INTER + INTRA:         -10.392
REMARK INTER:                  -9.038
REMARK INTRA:                  -1.354
REMARK CONF_INDEPENDENT:        2.088
REMARK UNBOUND:                -1.354
REMARK  7 active torsions:
REMARK  status: ('A' for Active; 'I' for Inactive)
REMARK    1  A    between atoms: C_2  and  C_4 
REMARK    2  A    between atoms: C_4  and  C_5 
REMARK    3  A    between atoms: C_5  and  N_6 
REMARK       I    between atoms: N_6  and  C_7 
REMARK       I    between atoms: C_7  and  N_9 
REMARK    4  A    between atoms: N_9  and  N_10 
REMARK       I    between atoms: N_10  and  C_11 
REMARK    5  A    between atoms: C_11  and  C_13 
REMARK    6  A    between atoms: C_14  and  C_15 
REMARK    7  A    between atoms: C_20  and  N_21 
ROOT
ATOM      1  N   UNL d   1      24.125 -15.989  -1.325  0.00  0.00    -0.263 N 
ATOM      2  C   UNL d   1      24.009 -17.064  -0.453  0.00  0.00     0.259 C 
ATOM      3  O   UNL d   1      24.979 -17.636   0.042  0.00  0.00    -0.267 OA
ATOM      4  H   UNL d   1      23.343 -15.557  -1.814  0.00  0.00     0.190 HD
ENDROOT
BRANCH   1   5
ATOM      5  N   UNL d   1      25.416 -15.436  -1.603  0.00  0.00    -0.249 N 
ATOM      6  C   UNL d   1      25.591 -14.595  -2.690  0.00  0.00     0.334 C 
ATOM      7  N   UNL d   1      26.862 -14.059  -2.804  0.00  0.00    -0.342 N 
ATOM      8  O   UNL d   1      24.683 -14.342  -3.481  0.00  0.00    -0.246 OA
ATOM      9  H   UNL d   1      27.585 -14.332  -2.155  0.00  0.00     0.164 HD
ATOM     10  H   UNL d   1      26.146 -15.658  -0.934  0.00  0.00     0.192 HD
BRANCH   7  11
ATOM     11  C   UNL d   1      27.209 -13.185  -3.926  0.00  0.00     0.125 C 
BRANCH  11  12
ATOM     12  C   UNL d   1      27.863 -13.896  -5.124  0.00  0.00     0.023 C 
BRANCH  12  13
ATOM     13  C   UNL d   1      28.716 -15.125  -4.714  0.00  0.00    -0.021 C 
ATOM     14  C   UNL d   1      29.306 -15.818  -5.948  0.00  0.00     0.009 C 
ATOM     15  C   UNL d   1      29.858 -14.736  -3.773  0.00  0.00     0.009 C 
ENDBRANCH  12  13
ENDBRANCH  11  12
ENDBRANCH   7  11
ENDBRANCH   1   5
BRANCH   2  16
ATOM     16  C   UNL d   1      22.601 -17.497  -0.163  0.00  0.00     0.076 C 
ATOM     17  C   UNL d   1      22.310 -18.578   0.592  0.00  0.00     0.019 C 
BRANCH  17  18
ATOM     18  C   UNL d   1      20.963 -19.212   0.679  0.00  0.00    -0.003 A 
ATOM     19  C   UNL d   1      20.415 -19.397   1.974  0.00  0.00     0.014 A 
ATOM     20  C   UNL d   1      19.200 -20.078   2.178  0.00  0.00     0.001 A 
ATOM     21  C   UNL d   1      18.467 -20.539   1.094  0.00  0.00     0.002 A 
ATOM     22  C   UNL d   1      18.977 -20.375  -0.190  0.00  0.00     0.037 A 
ATOM     23  C   UNL d   1      20.222 -19.740  -0.408  0.00  0.00     0.113 A 
BRANCH  23  24
ATOM     24  N   UNL d   1      20.674 -19.700  -1.818  0.00  0.00    -0.115 N 
ATOM     25  O   UNL d   1      21.833 -19.325  -2.032  0.00  0.00    -0.532 OA
ATOM     26  O   UNL d   1      19.894 -20.025  -2.723  0.00  0.00    -0.532 OA
ENDBRANCH  23  24
ENDBRANCH  17  18
ENDBRANCH   2  16
TORSDOF 7
ENDMDL
MODEL 5
REMARK VINA RESULT:    -6.455      6.752     10.103
REMARK INTER + INTRA:          -9.987
REMARK INTER:                  -8.543
REMARK INTRA:                  -1.444
REMARK CONF_INDEPENDENT:        2.088
REMARK UNBOUND:                -1.444
REMARK  7 active torsions:
REMARK  status: ('A' for Active; 'I' for Inactive)
REMARK    1  A    between atoms: C_2  and  C_4 
REMARK    2  A    between atoms: C_4  and  C_5 
REMARK    3  A    between atoms: C_5  and  N_6 
REMARK       I    between atoms: N_6  and  C_7 
REMARK       I    between atoms: C_7  and  N_9 
REMARK    4  A    between atoms: N_9  and  N_10 
REMARK       I    between atoms: N_10  and  C_11 
REMARK    5  A    between atoms: C_11  and  C_13 
REMARK    6  A    between atoms: C_14  and  C_15 
REMARK    7  A    between atoms: C_20  and  N_21 
ROOT
ATOM      1  N   UNL d   1      24.460  -8.861  -5.451  0.00  0.00    -0.263 N 
ATOM      2  C   UNL d   1      25.235  -9.476  -4.476  0.00  0.00     0.259 C 
ATOM      3  O   UNL d   1      25.093  -9.266  -3.273  0.00  0.00    -0.267 OA
ATOM      4  H   UNL d   1      24.617  -8.951  -6.454  0.00  0.00     0.190 HD
ENDROOT
BRANCH   1   5
ATOM      5  N   UNL d   1      23.373  -8.014  -5.063  0.00  0.00    -0.249 N 
ATOM      6  C   UNL d   1      22.677  -7.296  -6.023  0.00  0.00     0.334 C 
ATOM      7  N   UNL d   1      21.597  -6.580  -5.535  0.00  0.00    -0.342 N 
ATOM      8  O   UNL d   1      22.993  -7.305  -7.212  0.00  0.00    -0.246 OA
ATOM      9  H   UNL d   1      21.405  -6.570  -4.544  0.00  0.00     0.164 HD
ATOM     10  H   UNL d   1      23.132  -8.026  -4.078  0.00  0.00     0.192 HD
BRANCH   7  11
ATOM     11  C   UNL d   1      20.791  -5.741  -6.423  0.00  0.00     0.125 C 
BRANCH  11  12
ATOM     12  C   UNL d   1      19.309  -6.147  -6.529  0.00  0.00     0.023 C 
BRANCH  12  13
ATOM     13  C   UNL d   1      18.982  -6.933  -7.825  0.00  0.00    -0.021 C 
ATOM     14  C   UNL d   1      18.030  -8.099  -7.532  0.00  0.00     0.009 C 
ATOM     15  C   UNL d   1      18.351  -6.036  -8.891  0.00  0.00     0.009 C 
ENDBRANCH  12  13
ENDBRANCH  11  12
ENDBRANCH   7  11
ENDBRANCH   1   5
BRANCH   2  16
ATOM     16  C   UNL d   1      26.283 -10.416  -4.999  0.00  0.00     0.076 C 
ATOM     17  C   UNL d   1      26.050 -11.731  -5.199  0.00  0.00     0.019 C 
BRANCH  17  18
ATOM     18  C   UNL d   1      27.111 -12.751  -5.440  0.00  0.00    -0.003 A 
ATOM     19  C   UNL d   1      28.367 -12.284  -5.903  0.00  0.00     0.014 A 
ATOM     20  C   UNL d   1      29.404 -13.165  -6.263  0.00  0.00     0.001 A 
ATOM     21  C   UNL d   1      29.239 -14.535  -6.113  0.00  0.00     0.002 A 
ATOM     22  C   UNL d   1      28.018 -15.027  -5.663  0.00  0.00     0.037 A 
ATOM     23  C   UNL d   1      26.949 -14.156  -5.348  0.00  0.00     0.113 A 
BRANCH  23  24
ATOM     24  N   UNL d   1      25.687 -14.822  -4.951  0.00  0.00    -0.115 N 
ATOM     25  O   UNL d   1      25.530 -15.997  -5.303  0.00  0.00    -0.532 OA
ATOM     26  O   UNL d   1      24.838 -14.195  -4.302  0.00  0.00    -0.532 OA
ENDBRANCH  23  24
ENDBRANCH  17  18
ENDBRANCH   2  16
TORSDOF 7
ENDMDL
MODEL 6
REMARK VINA RESULT:    -6.374      3.514      9.513
REMARK INTER + INTRA:          -9.908
REMARK INTER:                  -8.462
REMARK INTRA:                  -1.446
REMARK CONF_INDEPENDENT:        2.088
REMARK UNBOUND:                -1.446
REMARK  7 active torsions:
REMARK  status: ('A' for Active; 'I' for Inactive)
REMARK    1  A    between atoms: C_2  and  C_4 
REMARK    2  A    between atoms: C_4  and  C_5 
REMARK    3  A    between atoms: C_5  and  N_6 
REMARK       I    between atoms: N_6  and  C_7 
REMARK       I    between atoms: C_7  and  N_9 
REMARK    4  A    between atoms: N_9  and  N_10 
REMARK       I    between atoms: N_10  and  C_11 
REMARK    5  A    between atoms: C_11  and  C_13 
REMARK    6  A    between atoms: C_14  and  C_15 
REMARK    7  A    between atoms: C_20  and  N_21 
ROOT
ATOM      1  N   UNL d   1      25.776 -12.500  -3.447  0.00  0.00    -0.263 N 
ATOM      2  C   UNL d   1      25.184 -13.717  -3.759  0.00  0.00     0.259 C 
ATOM      3  O   UNL d   1      24.341 -13.847  -4.645  0.00  0.00    -0.267 OA
ATOM      4  H   UNL d   1      26.409 -12.353  -2.662  0.00  0.00     0.190 HD
ENDROOT
BRANCH   1   5
ATOM      5  N   UNL d   1      25.484 -11.345  -4.239  0.00  0.00    -0.249 N 
ATOM      6  C   UNL d   1      25.827 -10.083  -3.779  0.00  0.00     0.334 C 
ATOM      7  N   UNL d   1      25.570  -9.055  -4.670  0.00  0.00    -0.342 N 
ATOM      8  O   UNL d   1      26.329  -9.900  -2.670  0.00  0.00    -0.246 OA
ATOM      9  H   UNL d   1      25.118  -9.253  -5.550  0.00  0.00     0.164 HD
ATOM     10  H   UNL d   1      25.074 -11.524  -5.149  0.00  0.00     0.192 HD
BRANCH   7  11
ATOM     11  C   UNL d   1      25.843  -7.664  -4.308  0.00  0.00     0.125 C 
BRANCH  11  12
ATOM     12  C   UNL d   1      24.648  -6.707  -4.469  0.00  0.00     0.023 C 
BRANCH  12  13
ATOM     13  C   UNL d   1      23.535  -7.269  -5.392  0.00  0.00    -0.021 C 
ATOM     14  C   UNL d   1      22.189  -6.594  -5.100  0.00  0.00     0.009 C 
ATOM     15  C   UNL d   1      23.872  -7.078  -6.872  0.00  0.00     0.009 C 
ENDBRANCH  12  13
ENDBRANCH  11  12
ENDBRANCH   7  11
ENDBRANCH   1   5
BRANCH   2  16
ATOM     16  C   UNL d   1      25.638 -14.878  -2.922  0.00  0.00     0.076 C 
ATOM     17  C   UNL d   1      24.779 -15.669  -2.243  0.00  0.00     0.019 C 
BRANCH  17  18
ATOM     18  C   UNL d   1      25.180 -16.642  -1.186  0.00  0.00    -0.003 A 
ATOM     19  C   UNL d   1      26.528 -16.604  -0.747  0.00  0.00     0.014 A 
ATOM     20  C   UNL d   1      27.040 -17.543   0.168  0.00  0.00     0.001 A 
ATOM     21  C   UNL d   1      26.208 -18.509   0.717  0.00  0.00     0.002 A 
ATOM     22  C   UNL d   1      24.881 -18.575   0.305  0.00  0.00     0.037 A 
ATOM     23  C   UNL d   1      24.365 -17.671  -0.653  0.00  0.00     0.113 A 
BRANCH  23  24
ATOM     24  N   UNL d   1      22.957 -17.905  -1.049  0.00  0.00    -0.115 N 
ATOM     25  O   UNL d   1      22.134 -17.026  -0.766  0.00  0.00    -0.532 OA
ATOM     26  O   UNL d   1      22.647 -18.955  -1.629  0.00  0.00    -0.532 OA
ENDBRANCH  23  24
ENDBRANCH  17  18
ENDBRANCH   2  16
TORSDOF 7
ENDMDL
MODEL 7
REMARK VINA RESULT:    -6.364      3.459      9.791
REMARK INTER + INTRA:          -9.998
REMARK INTER:                  -8.452
REMARK INTRA:                  -1.546
REMARK CONF_INDEPENDENT:        2.088
REMARK UNBOUND:                -1.546
REMARK  7 active torsions:
REMARK  status: ('A' for Active; 'I' for Inactive)
REMARK    1  A    between atoms: C_2  and  C_4 
REMARK    2  A    between atoms: C_4  and  C_5 
REMARK    3  A    between atoms: C_5  and  N_6 
REMARK       I    between atoms: N_6  and  C_7 
REMARK       I    between atoms: C_7  and  N_9 
REMARK    4  A    between atoms: N_9  and  N_10 
REMARK       I    between atoms: N_10  and  C_11 
REMARK    5  A    between atoms: C_11  and  C_13 
REMARK    6  A    between atoms: C_14  and  C_15 
REMARK    7  A    between atoms: C_20  and  N_21 
ROOT
ATOM      1  N   UNL d   1      25.972 -12.807  -4.278  0.00  0.00    -0.263 N 
ATOM      2  C   UNL d   1      25.087 -13.802  -3.882  0.00  0.00     0.259 C 
ATOM      3  O   UNL d   1      23.937 -13.888  -4.311  0.00  0.00    -0.267 OA
ATOM      4  H   UNL d   1      26.896 -12.664  -3.873  0.00  0.00     0.190 HD
ENDROOT
BRANCH   1   5
ATOM      5  N   UNL d   1      25.590 -11.884  -5.303  0.00  0.00    -0.249 N 
ATOM      6  C   UNL d   1      26.552 -11.111  -5.934  0.00  0.00     0.334 C 
ATOM      7  N   UNL d   1      26.071 -10.320  -6.963  0.00  0.00    -0.342 N 
ATOM      8  O   UNL d   1      27.738 -11.137  -5.607  0.00  0.00    -0.246 OA
ATOM      9  H   UNL d   1      25.082 -10.301  -7.165  0.00  0.00     0.164 HD
ATOM     10  H   UNL d   1      24.607 -11.885  -5.556  0.00  0.00     0.192 HD
BRANCH   7  11
ATOM     11  C   UNL d   1      26.962  -9.419  -7.695  0.00  0.00     0.125 C 
BRANCH  11  12
ATOM     12  C   UNL d   1      27.563 -10.008  -8.984  0.00  0.00     0.023 C 
BRANCH  12  13
ATOM     13  C   UNL d   1      27.086 -11.455  -9.275  0.00  0.00    -0.021 C 
ATOM     14  C   UNL d   1      25.918 -11.457 -10.268  0.00  0.00     0.009 C 
ATOM     15  C   UNL d   1      28.213 -12.324  -9.837  0.00  0.00     0.009 C 
ENDBRANCH  12  13
ENDBRANCH  11  12
ENDBRANCH   7  11
ENDBRANCH   1   5
BRANCH   2  16
ATOM     16  C   UNL d   1      25.630 -14.769  -2.871  0.00  0.00     0.076 C 
ATOM     17  C   UNL d   1      24.906 -15.799  -2.382  0.00  0.00     0.019 C 
BRANCH  17  18
ATOM     18  C   UNL d   1      25.285 -16.608  -1.188  0.00  0.00    -0.003 A 
ATOM     19  C   UNL d   1      26.646 -16.580  -0.790  0.00  0.00     0.014 A 
ATOM     20  C   UNL d   1      27.133 -17.386   0.256  0.00  0.00     0.001 A 
ATOM     21  C   UNL d   1      26.266 -18.196   0.976  0.00  0.00     0.002 A 
ATOM     22  C   UNL d   1      24.925 -18.248   0.610  0.00  0.00     0.037 A 
ATOM     23  C   UNL d   1      24.430 -17.484  -0.473  0.00  0.00     0.113 A 
BRANCH  23  24
ATOM     24  N   UNL d   1      23.000 -17.694  -0.794  0.00  0.00    -0.115 N 
ATOM     25  O   UNL d   1      22.230 -16.744  -0.602  0.00  0.00    -0.532 OA
ATOM     26  O   UNL d   1      22.620 -18.791  -1.225  0.00  0.00    -0.532 OA
ENDBRANCH  23  24
ENDBRANCH  17  18
ENDBRANCH   2  16
TORSDOF 7
ENDMDL
MODEL 8
REMARK VINA RESULT:    -6.235      7.266      8.868
REMARK INTER + INTRA:          -9.883
REMARK INTER:                  -8.323
REMARK INTRA:                  -1.559
REMARK CONF_INDEPENDENT:        2.088
REMARK UNBOUND:                -1.559
REMARK  7 active torsions:
REMARK  status: ('A' for Active; 'I' for Inactive)
REMARK    1  A    between atoms: C_2  and  C_4 
REMARK    2  A    between atoms: C_4  and  C_5 
REMARK    3  A    between atoms: C_5  and  N_6 
REMARK       I    between atoms: N_6  and  C_7 
REMARK       I    between atoms: C_7  and  N_9 
REMARK    4  A    between atoms: N_9  and  N_10 
REMARK       I    between atoms: N_10  and  C_11 
REMARK    5  A    between atoms: C_11  and  C_13 
REMARK    6  A    between atoms: C_14  and  C_15 
REMARK    7  A    between atoms: C_20  and  N_21 
ROOT
ATOM      1  N   UNL d   1      27.947 -13.657   3.376  0.00  0.00    -0.263 N 
ATOM      2  C   UNL d   1      28.403 -13.548   4.683  0.00  0.00     0.259 C 
ATOM      3  O   UNL d   1      28.899 -14.487   5.303  0.00  0.00    -0.267 OA
ATOM      4  H   UNL d   1      27.455 -12.919   2.874  0.00  0.00     0.190 HD
ENDROOT
BRANCH   1   5
ATOM      5  N   UNL d   1      28.137 -14.880   2.658  0.00  0.00    -0.249 N 
ATOM      6  C   UNL d   1      27.533 -15.062   1.424  0.00  0.00     0.334 C 
ATOM      7  N   UNL d   1      27.861 -16.249   0.791  0.00  0.00    -0.342 N 
ATOM      8  O   UNL d   1      26.775 -14.227   0.931  0.00  0.00    -0.246 OA
ATOM      9  H   UNL d   1      28.453 -16.921   1.255  0.00  0.00     0.164 HD
ATOM     10  H   UNL d   1      28.769 -15.550   3.084  0.00  0.00     0.192 HD
BRANCH   7  11
ATOM     11  C   UNL d   1      27.268 -16.598  -0.501  0.00  0.00     0.125 C 
BRANCH  11  12
ATOM     12  C   UNL d   1      26.304 -17.798  -0.468  0.00  0.00     0.023 C 
BRANCH  12  13
ATOM     13  C   UNL d   1      24.829 -17.390  -0.216  0.00  0.00    -0.021 C 
ATOM     14  C   UNL d   1      24.354 -16.378  -1.266  0.00  0.00     0.009 C 
ATOM     15  C   UNL d   1      23.892 -18.599  -0.237  0.00  0.00     0.009 C 
ENDBRANCH  12  13
ENDBRANCH  11  12
ENDBRANCH   7  11
ENDBRANCH   1   5
BRANCH   2  16
ATOM     16  C   UNL d   1      28.235 -12.190   5.302  0.00  0.00     0.076 C 
ATOM     17  C   UNL d   1      28.212 -11.053   4.574  0.00  0.00     0.019 C 
BRANCH  17  18
ATOM     18  C   UNL d   1      28.333  -9.681   5.145  0.00  0.00    -0.003 A 
ATOM     19  C   UNL d   1      29.161  -9.522   6.285  0.00  0.00     0.014 A 
ATOM     20  C   UNL d   1      29.263  -8.295   6.967  0.00  0.00     0.001 A 
ATOM     21  C   UNL d   1      28.593  -7.176   6.495  0.00  0.00     0.002 A 
ATOM     22  C   UNL d   1      27.770  -7.297   5.380  0.00  0.00     0.037 A 
ATOM     23  C   UNL d   1      27.615  -8.536   4.715  0.00  0.00     0.113 A 
BRANCH  23  24
ATOM     24  N   UNL d   1      26.654  -8.534   3.589  0.00  0.00    -0.115 N 
ATOM     25  O   UNL d   1      26.633  -7.533   2.862  0.00  0.00    -0.532 OA
ATOM     26  O   UNL d   1      25.908  -9.507   3.415  0.00  0.00    -0.532 OA
ENDBRANCH  23  24
ENDBRANCH  17  18
ENDBRANCH   2  16
TORSDOF 7
ENDMDL
MODEL 9
REMARK VINA RESULT:    -6.180      2.764      3.799
REMARK INTER + INTRA:          -9.871
REMARK INTER:                  -8.268
REMARK INTRA:                  -1.603
REMARK CONF_INDEPENDENT:        2.088
REMARK UNBOUND:                -1.603
REMARK  7 active torsions:
REMARK  status: ('A' for Active; 'I' for Inactive)
REMARK    1  A    between atoms: C_2  and  C_4 
REMARK    2  A    between atoms: C_4  and  C_5 
REMARK    3  A    between atoms: C_5  and  N_6 
REMARK       I    between atoms: N_6  and  C_7 
REMARK       I    between atoms: C_7  and  N_9 
REMARK    4  A    between atoms: N_9  and  N_10 
REMARK       I    between atoms: N_10  and  C_11 
REMARK    5  A    between atoms: C_11  and  C_13 
REMARK    6  A    between atoms: C_14  and  C_15 
REMARK    7  A    between atoms: C_20  and  N_21 
ROOT
ATOM      1  N   UNL d   1      25.124 -15.763  -2.398  0.00  0.00    -0.263 N 
ATOM      2  C   UNL d   1      25.180 -14.735  -3.331  0.00  0.00     0.259 C 
ATOM      3  O   UNL d   1      24.197 -14.074  -3.663  0.00  0.00    -0.267 OA
ATOM      4  H   UNL d   1      25.903 -16.379  -2.173  0.00  0.00     0.190 HD
ENDROOT
BRANCH   1   5
ATOM      5  N   UNL d   1      23.901 -16.025  -1.703  0.00  0.00    -0.249 N 
ATOM      6  C   UNL d   1      23.683 -17.265  -1.125  0.00  0.00     0.334 C 
ATOM      7  N   UNL d   1      22.502 -17.368  -0.410  0.00  0.00    -0.342 N 
ATOM      8  O   UNL d   1      24.484 -18.193  -1.233  0.00  0.00    -0.246 OA
ATOM      9  H   UNL d   1      21.857 -16.592  -0.387  0.00  0.00     0.164 HD
ATOM     10  H   UNL d   1      23.259 -15.242  -1.625  0.00  0.00     0.192 HD
BRANCH   7  11
ATOM     11  C   UNL d   1      22.116 -18.630   0.222  0.00  0.00     0.125 C 
BRANCH  11  12
ATOM     12  C   UNL d   1      20.788 -19.227  -0.278  0.00  0.00     0.023 C 
BRANCH  12  13
ATOM     13  C   UNL d   1      20.175 -20.261   0.702  0.00  0.00    -0.021 C 
ATOM     14  C   UNL d   1      20.028 -19.663   2.106  0.00  0.00     0.009 C 
ATOM     15  C   UNL d   1      18.806 -20.752   0.228  0.00  0.00     0.009 C 
ENDBRANCH  12  13
ENDBRANCH  11  12
ENDBRANCH   7  11
ENDBRANCH   1   5
BRANCH   2  16
ATOM     16  C   UNL d   1      26.537 -14.490  -3.925  0.00  0.00     0.076 C 
ATOM     17  C   UNL d   1      27.010 -15.191  -4.977  0.00  0.00     0.019 C 
BRANCH  17  18
ATOM     18  C   UNL d   1      28.434 -15.190  -5.423  0.00  0.00    -0.003 A 
ATOM     19  C   UNL d   1      28.748 -14.446  -6.589  0.00  0.00     0.014 A 
ATOM     20  C   UNL d   1      30.035 -14.461  -7.158  0.00  0.00     0.001 A 
ATOM     21  C   UNL d   1      31.061 -15.167  -6.545  0.00  0.00     0.002 A 
ATOM     22  C   UNL d   1      30.786 -15.909  -5.401  0.00  0.00     0.037 A 
ATOM     23  C   UNL d   1      29.485 -15.947  -4.848  0.00  0.00     0.113 A 
BRANCH  23  24
ATOM     24  N   UNL d   1      29.323 -16.834  -3.673  0.00  0.00    -0.115 N 
ATOM     25  O   UNL d   1      30.027 -17.849  -3.627  0.00  0.00    -0.532 OA
ATOM     26  O   UNL d   1      28.497 -16.547  -2.795  0.00  0.00    -0.532 OA
ENDBRANCH  23  24
ENDBRANCH  17  18
ENDBRANCH   2  16
TORSDOF 7
ENDMDL
