MODEL 1
REMARK VINA RESULT:    -9.891      0.000      0.000
REMARK INTER + INTRA:         -13.263
REMARK INTER:                 -11.979
REMARK INTRA:                  -1.283
REMARK CONF_INDEPENDENT:        2.088
REMARK UNBOUND:                -1.283
REMARK  7 active torsions:
REMARK  status: ('A' for Active; 'I' for Inactive)
REMARK    1  A    between atoms: C_5  and  N_6 
REMARK       I    between atoms: N_6  and  C_7 
REMARK    2  A    between atoms: C_7  and  C_9 
REMARK    3  A    between atoms: C_9  and  N_10 
REMARK    4  A    between atoms: N_10  and  C_11 
REMARK    5  A    between atoms: C_14  and  C_15 
REMARK       I    between atoms: C_15  and  N_17 
REMARK    6  A    between atoms: N_17  and  C_18 
REMARK    7  A    between atoms: C_18  and  C_19 
ROOT
ATOM      1  C   UNL d   1      26.519 -16.663   0.274  0.00  0.00     0.028 A 
ATOM      2  C   UNL d   1      26.146 -17.955   0.655  0.00  0.00     0.030 A 
ATOM      3  C   UNL d   1      25.015 -18.576   0.105  0.00  0.00     0.019 A 
ATOM      4  C   UNL d   1      24.196 -17.889  -0.806  0.00  0.00     0.032 A 
ATOM      5  C   UNL d   1      24.583 -16.609  -1.204  0.00  0.00     0.019 A 
ATOM      6  C   UNL d   1      25.725 -16.006  -0.663  0.00  0.00     0.030 A 
ENDROOT
BRANCH   1   7
ATOM      7  N   UNL d   1      27.620 -16.084   0.855  0.00  0.00    -0.381 N 
ATOM      8  H   UNL d   1      28.416 -16.695   1.069  0.00  0.00     0.160 HD
BRANCH   7   9
ATOM      9  C   UNL d   1      27.956 -14.660   0.797  0.00  0.00     0.223 C 
BRANCH   9  10
ATOM     10  C   UNL d   1      27.729 -14.064   2.191  0.00  0.00     0.239 C 
ATOM     11  N   UNL d   1      28.697 -14.367   3.146  0.00  0.00    -0.325 N 
ATOM     12  H   UNL d   1      29.468 -14.952   2.858  0.00  0.00     0.169 HD
ATOM     13  O   UNL d   1      26.717 -13.381   2.370  0.00  0.00    -0.271 OA
BRANCH  11  14
ATOM     14  C   UNL d   1      28.683 -13.914   4.499  0.00  0.00     0.040 A 
ATOM     15  C   UNL d   1      28.904 -14.820   5.544  0.00  0.00     0.030 A 
ATOM     16  C   UNL d   1      28.905 -14.447   6.881  0.00  0.00     0.009 A 
ATOM     17  C   UNL d   1      28.686 -13.127   7.237  0.00  0.00    -0.061 A 
ATOM     18  C   UNL d   1      28.693 -12.762   8.689  0.00  0.00     0.048 C 
ATOM     19  C   UNL d   1      28.462 -12.190   6.216  0.00  0.00     0.015 A 
ATOM     20  C   UNL d   1      28.451 -12.564   4.841  0.00  0.00    -0.035 A 
ATOM     21  C   UNL d   1      28.192 -11.470   3.837  0.00  0.00     0.050 C 
ENDBRANCH  11  14
ENDBRANCH   9  10
ENDBRANCH   7   9
ENDBRANCH   1   7
BRANCH   4  22
ATOM     22  C   UNL d   1      22.921 -18.525  -1.270  0.00  0.00     0.251 C 
ATOM     23  O   UNL d   1      22.901 -19.143  -2.338  0.00  0.00    -0.268 OA
ATOM     24  N   UNL d   1      21.802 -18.426  -0.463  0.00  0.00    -0.351 N 
ATOM     25  H   UNL d   1      21.816 -17.976   0.438  0.00  0.00     0.163 HD
BRANCH  24  26
ATOM     26  C   UNL d   1      20.571 -19.083  -0.839  0.00  0.00     0.187 C 
BRANCH  26  27
ATOM     27  C   UNL d   1      19.862 -19.691   0.323  0.00  0.00     0.070 A 
ATOM     28  C   UNL d   1      18.788 -20.558   0.366  0.00  0.00     0.036 A 
ATOM     29  C   UNL d   1      18.521 -20.815   1.729  0.00  0.00     0.027 A 
ATOM     30  C   UNL d   1      19.462 -20.108   2.440  0.00  0.00     0.142 A 
ATOM     31  O   UNL d   1      20.286 -19.421   1.597  0.00  0.00    -0.325 OA
ENDBRANCH  26  27
ENDBRANCH  24  26
ENDBRANCH   4  22
TORSDOF 7
ENDMDL
MODEL 2
REMARK VINA RESULT:    -9.625      1.184      1.621
REMARK INTER + INTRA:         -12.790
REMARK INTER:                 -11.713
REMARK INTRA:                  -1.077
REMARK CONF_INDEPENDENT:        2.088
REMARK UNBOUND:                -1.077
REMARK  7 active torsions:
REMARK  status: ('A' for Active; 'I' for Inactive)
REMARK    1  A    between atoms: C_5  and  N_6 
REMARK       I    between atoms: N_6  and  C_7 
REMARK    2  A    between atoms: C_7  and  C_9 
REMARK    3  A    between atoms: C_9  and  N_10 
REMARK    4  A    between atoms: N_10  and  C_11 
REMARK    5  A    between atoms: C_14  and  C_15 
REMARK       I    between atoms: C_15  and  N_17 
REMARK    6  A    between atoms: N_17  and  C_18 
REMARK    7  A    between atoms: C_18  and  C_19 
ROOT
ATOM      1  C   UNL d   1      26.223 -17.002  -0.034  0.00  0.00     0.028 A 
ATOM      2  C   UNL d   1      25.313 -16.063  -0.531  0.00  0.00     0.030 A 
ATOM      3  C   UNL d   1      23.951 -16.370  -0.659  0.00  0.00     0.019 A 
ATOM      4  C   UNL d   1      23.475 -17.652  -0.341  0.00  0.00     0.032 A 
ATOM      5  C   UNL d   1      24.379 -18.580   0.178  0.00  0.00     0.019 A 
ATOM      6  C   UNL d   1      25.734 -18.257   0.319  0.00  0.00     0.030 A 
ENDROOT
BRANCH   1   7
ATOM      7  N   UNL d   1      27.551 -16.667   0.052  0.00  0.00    -0.381 N 
ATOM      8  H   UNL d   1      28.236 -17.423  -0.056  0.00  0.00     0.160 HD
BRANCH   7   9
ATOM      9  C   UNL d   1      28.100 -15.327  -0.162  0.00  0.00     0.223 C 
BRANCH   9  10
ATOM     10  C   UNL d   1      27.809 -14.492   1.091  0.00  0.00     0.239 C 
ATOM     11  N   UNL d   1      28.627 -14.743   2.191  0.00  0.00    -0.325 N 
ATOM     12  H   UNL d   1      29.342 -15.449   2.088  0.00  0.00     0.169 HD
ATOM     13  O   UNL d   1      26.881 -13.681   1.043  0.00  0.00    -0.271 OA
BRANCH  11  14
ATOM     14  C   UNL d   1      28.532 -14.079   3.451  0.00  0.00     0.040 A 
ATOM     15  C   UNL d   1      28.280 -14.816   4.614  0.00  0.00     0.030 A 
ATOM     16  C   UNL d   1      28.177 -14.235   5.871  0.00  0.00     0.009 A 
ATOM     17  C   UNL d   1      28.329 -12.867   6.020  0.00  0.00    -0.061 A 
ATOM     18  C   UNL d   1      28.209 -12.275   7.391  0.00  0.00     0.048 C 
ATOM     19  C   UNL d   1      28.584 -12.095   4.876  0.00  0.00     0.015 A 
ATOM     20  C   UNL d   1      28.684 -12.682   3.581  0.00  0.00    -0.035 A 
ATOM     21  C   UNL d   1      28.953 -11.749   2.428  0.00  0.00     0.050 C 
ENDBRANCH  11  14
ENDBRANCH   9  10
ENDBRANCH   7   9
ENDBRANCH   1   7
BRANCH   4  22
ATOM     22  C   UNL d   1      22.042 -17.992  -0.619  0.00  0.00     0.251 C 
ATOM     23  O   UNL d   1      21.250 -17.097  -0.923  0.00  0.00    -0.268 OA
ATOM     24  N   UNL d   1      21.655 -19.319  -0.556  0.00  0.00    -0.351 N 
ATOM     25  H   UNL d   1      22.301 -20.069  -0.366  0.00  0.00     0.163 HD
BRANCH  24  26
ATOM     26  C   UNL d   1      20.300 -19.700  -0.884  0.00  0.00     0.187 C 
BRANCH  26  27
ATOM     27  C   UNL d   1      19.517 -20.131   0.309  0.00  0.00     0.070 A 
ATOM     28  C   UNL d   1      19.551 -19.683   1.616  0.00  0.00     0.036 A 
ATOM     29  C   UNL d   1      18.600 -20.440   2.335  0.00  0.00     0.027 A 
ATOM     30  C   UNL d   1      18.024 -21.292   1.422  0.00  0.00     0.142 A 
ATOM     31  O   UNL d   1      18.571 -21.113   0.185  0.00  0.00    -0.325 OA
ENDBRANCH  26  27
ENDBRANCH  24  26
ENDBRANCH   4  22
TORSDOF 7
ENDMDL
MODEL 3
REMARK VINA RESULT:    -9.018      4.903      7.895
REMARK INTER + INTRA:         -12.339
REMARK INTER:                 -11.106
REMARK INTRA:                  -1.234
REMARK CONF_INDEPENDENT:        2.088
REMARK UNBOUND:                -1.234
REMARK  7 active torsions:
REMARK  status: ('A' for Active; 'I' for Inactive)
REMARK    1  A    between atoms: C_5  and  N_6 
REMARK       I    between atoms: N_6  and  C_7 
REMARK    2  A    between atoms: C_7  and  C_9 
REMARK    3  A    between atoms: C_9  and  N_10 
REMARK    4  A    between atoms: N_10  and  C_11 
REMARK    5  A    between atoms: C_14  and  C_15 
REMARK       I    between atoms: C_15  and  N_17 
REMARK    6  A    between atoms: N_17  and  C_18 
REMARK    7  A    between atoms: C_18  and  C_19 
ROOT
ATOM      1  C   UNL d   1      27.426 -17.494  -0.369  0.00  0.00     0.028 A 
ATOM      2  C   UNL d   1      26.735 -16.855  -1.404  0.00  0.00     0.030 A 
ATOM      3  C   UNL d   1      25.333 -16.850  -1.447  0.00  0.00     0.019 A 
ATOM      4  C   UNL d   1      24.588 -17.537  -0.476  0.00  0.00     0.032 A 
ATOM      5  C   UNL d   1      25.276 -18.154   0.570  0.00  0.00     0.019 A 
ATOM      6  C   UNL d   1      26.676 -18.136   0.613  0.00  0.00     0.030 A 
ENDROOT
BRANCH   1   7
ATOM      7  N   UNL d   1      28.798 -17.494  -0.379  0.00  0.00    -0.381 N 
ATOM      8  H   UNL d   1      29.272 -18.332  -0.026  0.00  0.00     0.160 HD
BRANCH   7   9
ATOM      9  C   UNL d   1      29.636 -16.644  -1.226  0.00  0.00     0.223 C 
BRANCH   9  10
ATOM     10  C   UNL d   1      30.148 -17.498  -2.393  0.00  0.00     0.239 C 
ATOM     11  N   UNL d   1      29.838 -17.031  -3.668  0.00  0.00    -0.325 N 
ATOM     12  H   UNL d   1      29.304 -16.177  -3.734  0.00  0.00     0.169 HD
ATOM     13  O   UNL d   1      30.775 -18.525  -2.124  0.00  0.00    -0.271 OA
BRANCH  11  14
ATOM     14  C   UNL d   1      30.218 -17.667  -4.888  0.00  0.00     0.040 A 
ATOM     15  C   UNL d   1      30.407 -19.054  -4.926  0.00  0.00     0.030 A 
ATOM     16  C   UNL d   1      30.774 -19.736  -6.078  0.00  0.00     0.009 A 
ATOM     17  C   UNL d   1      30.967 -19.048  -7.264  0.00  0.00    -0.061 A 
ATOM     18  C   UNL d   1      31.365 -19.818  -8.486  0.00  0.00     0.048 C 
ATOM     19  C   UNL d   1      30.785 -17.657  -7.264  0.00  0.00     0.015 A 
ATOM     20  C   UNL d   1      30.415 -16.947  -6.086  0.00  0.00    -0.035 A 
ATOM     21  C   UNL d   1      30.257 -15.453  -6.209  0.00  0.00     0.050 C 
ENDBRANCH  11  14
ENDBRANCH   9  10
ENDBRANCH   7   9
ENDBRANCH   1   7
BRANCH   4  22
ATOM     22  C   UNL d   1      23.099 -17.631  -0.625  0.00  0.00     0.251 C 
ATOM     23  O   UNL d   1      22.400 -16.640  -0.401  0.00  0.00    -0.268 OA
ATOM     24  N   UNL d   1      22.552 -18.831  -1.046  0.00  0.00    -0.351 N 
ATOM     25  H   UNL d   1      23.113 -19.632  -1.288  0.00  0.00     0.163 HD
BRANCH  24  26
ATOM     26  C   UNL d   1      21.129 -18.945  -1.269  0.00  0.00     0.187 C 
BRANCH  26  27
ATOM     27  C   UNL d   1      20.409 -19.543  -0.109  0.00  0.00     0.070 A 
ATOM     28  C   UNL d   1      20.555 -19.325   1.248  0.00  0.00     0.036 A 
ATOM     29  C   UNL d   1      19.618 -20.157   1.901  0.00  0.00     0.027 A 
ATOM     30  C   UNL d   1      18.939 -20.819   0.904  0.00  0.00     0.142 A 
ATOM     31  O   UNL d   1      19.408 -20.453  -0.323  0.00  0.00    -0.325 OA
ENDBRANCH  26  27
ENDBRANCH  24  26
ENDBRANCH   4  22
TORSDOF 7
ENDMDL
MODEL 4
REMARK VINA RESULT:    -8.864      4.555      6.868
REMARK INTER + INTRA:         -12.110
REMARK INTER:                 -10.952
REMARK INTRA:                  -1.158
REMARK CONF_INDEPENDENT:        2.088
REMARK UNBOUND:                -1.158
REMARK  7 active torsions:
REMARK  status: ('A' for Active; 'I' for Inactive)
REMARK    1  A    between atoms: C_5  and  N_6 
REMARK       I    between atoms: N_6  and  C_7 
REMARK    2  A    between atoms: C_7  and  C_9 
REMARK    3  A    between atoms: C_9  and  N_10 
REMARK    4  A    between atoms: N_10  and  C_11 
REMARK    5  A    between atoms: C_14  and  C_15 
REMARK       I    between atoms: C_15  and  N_17 
REMARK    6  A    between atoms: N_17  and  C_18 
REMARK    7  A    between atoms: C_18  and  C_19 
ROOT
ATOM      1  C   UNL d   1      26.712 -17.176  -0.244  0.00  0.00     0.028 A 
ATOM      2  C   UNL d   1      25.999 -18.108   0.516  0.00  0.00     0.030 A 
ATOM      3  C   UNL d   1      24.641 -18.358   0.272  0.00  0.00     0.019 A 
ATOM      4  C   UNL d   1      23.948 -17.635  -0.711  0.00  0.00     0.032 A 
ATOM      5  C   UNL d   1      24.665 -16.722  -1.486  0.00  0.00     0.019 A 
ATOM      6  C   UNL d   1      26.026 -16.495  -1.246  0.00  0.00     0.030 A 
ENDROOT
BRANCH   1   7
ATOM      7  N   UNL d   1      28.034 -16.946   0.044  0.00  0.00    -0.381 N 
ATOM      8  H   UNL d   1      28.315 -16.984   1.030  0.00  0.00     0.160 HD
BRANCH   7   9
ATOM      9  C   UNL d   1      29.142 -17.093  -0.901  0.00  0.00     0.223 C 
BRANCH   9  10
ATOM     10  C   UNL d   1      28.985 -16.019  -1.984  0.00  0.00     0.239 C 
ATOM     11  N   UNL d   1      29.137 -16.455  -3.299  0.00  0.00    -0.325 N 
ATOM     12  H   UNL d   1      29.341 -17.434  -3.443  0.00  0.00     0.169 HD
ATOM     13  O   UNL d   1      28.751 -14.864  -1.622  0.00  0.00    -0.271 OA
BRANCH  11  14
ATOM     14  C   UNL d   1      29.028 -15.626  -4.455  0.00  0.00     0.040 A 
ATOM     15  C   UNL d   1      30.155 -15.380  -5.250  0.00  0.00     0.030 A 
ATOM     16  C   UNL d   1      30.118 -14.586  -6.388  0.00  0.00     0.009 A 
ATOM     17  C   UNL d   1      28.932 -13.996  -6.788  0.00  0.00    -0.061 A 
ATOM     18  C   UNL d   1      28.932 -13.143  -8.020  0.00  0.00     0.048 C 
ATOM     19  C   UNL d   1      27.781 -14.221  -6.017  0.00  0.00     0.015 A 
ATOM     20  C   UNL d   1      27.810 -15.029  -4.843  0.00  0.00    -0.035 A 
ATOM     21  C   UNL d   1      26.512 -15.190  -4.093  0.00  0.00     0.050 C 
ENDBRANCH  11  14
ENDBRANCH   9  10
ENDBRANCH   7   9
ENDBRANCH   1   7
BRANCH   4  22
ATOM     22  C   UNL d   1      22.468 -17.824  -0.855  0.00  0.00     0.251 C 
ATOM     23  O   UNL d   1      21.721 -16.842  -0.823  0.00  0.00    -0.268 OA
ATOM     24  N   UNL d   1      21.982 -19.104  -1.053  0.00  0.00    -0.351 N 
ATOM     25  H   UNL d   1      22.582 -19.909  -1.139  0.00  0.00     0.163 HD
BRANCH  24  26
ATOM     26  C   UNL d   1      20.570 -19.323  -1.265  0.00  0.00     0.187 C 
BRANCH  26  27
ATOM     27  C   UNL d   1      19.875 -19.831  -0.048  0.00  0.00     0.070 A 
ATOM     28  C   UNL d   1      20.198 -19.704   1.289  0.00  0.00     0.036 A 
ATOM     29  C   UNL d   1      19.196 -20.379   2.020  0.00  0.00     0.027 A 
ATOM     30  C   UNL d   1      18.306 -20.861   1.089  0.00  0.00     0.142 A 
ATOM     31  O   UNL d   1      18.706 -20.533  -0.173  0.00  0.00    -0.325 OA
ENDBRANCH  26  27
ENDBRANCH  24  26
ENDBRANCH   4  22
TORSDOF 7
ENDMDL
MODEL 5
REMARK VINA RESULT:    -8.635      4.173      6.579
REMARK INTER + INTRA:         -12.398
REMARK INTER:                 -10.723
REMARK INTRA:                  -1.675
REMARK CONF_INDEPENDENT:        2.088
REMARK UNBOUND:                -1.675
REMARK  7 active torsions:
REMARK  status: ('A' for Active; 'I' for Inactive)
REMARK    1  A    between atoms: C_5  and  N_6 
REMARK       I    between atoms: N_6  and  C_7 
REMARK    2  A    between atoms: C_7  and  C_9 
REMARK    3  A    between atoms: C_9  and  N_10 
REMARK    4  A    between atoms: N_10  and  C_11 
REMARK    5  A    between atoms: C_14  and  C_15 
REMARK       I    between atoms: C_15  and  N_17 
REMARK    6  A    between atoms: N_17  and  C_18 
REMARK    7  A    between atoms: C_18  and  C_19 
ROOT
ATOM      1  C   UNL d   1      26.624 -16.793   0.135  0.00  0.00     0.028 A 
ATOM      2  C   UNL d   1      25.766 -16.092  -0.718  0.00  0.00     0.030 A 
ATOM      3  C   UNL d   1      24.516 -16.615  -1.082  0.00  0.00     0.019 A 
ATOM      4  C   UNL d   1      24.120 -17.887  -0.639  0.00  0.00     0.032 A 
ATOM      5  C   UNL d   1      24.966 -18.575   0.232  0.00  0.00     0.019 A 
ATOM      6  C   UNL d   1      26.203 -18.034   0.603  0.00  0.00     0.030 A 
ENDROOT
BRANCH   1   7
ATOM      7  N   UNL d   1      27.847 -16.254   0.446  0.00  0.00    -0.381 N 
ATOM      8  H   UNL d   1      27.932 -15.761   1.342  0.00  0.00     0.160 HD
BRANCH   7   9
ATOM      9  C   UNL d   1      29.126 -16.674  -0.130  0.00  0.00     0.223 C 
BRANCH   9  10
ATOM     10  C   UNL d   1      29.347 -15.880  -1.423  0.00  0.00     0.239 C 
ATOM     11  N   UNL d   1      28.453 -16.144  -2.458  0.00  0.00    -0.325 N 
ATOM     12  H   UNL d   1      27.734 -16.833  -2.288  0.00  0.00     0.169 HD
ATOM     13  O   UNL d   1      30.291 -15.086  -1.459  0.00  0.00    -0.271 OA
BRANCH  11  14
ATOM     14  C   UNL d   1      28.475 -15.517  -3.740  0.00  0.00     0.040 A 
ATOM     15  C   UNL d   1      29.692 -15.325  -4.406  0.00  0.00     0.030 A 
ATOM     16  C   UNL d   1      29.785 -14.724  -5.654  0.00  0.00     0.009 A 
ATOM     17  C   UNL d   1      28.643 -14.285  -6.302  0.00  0.00    -0.061 A 
ATOM     18  C   UNL d   1      28.783 -13.640  -7.647  0.00  0.00     0.048 C 
ATOM     19  C   UNL d   1      27.405 -14.462  -5.666  0.00  0.00     0.015 A 
ATOM     20  C   UNL d   1      27.300 -15.070  -4.382  0.00  0.00    -0.035 A 
ATOM     21  C   UNL d   1      25.916 -15.197  -3.797  0.00  0.00     0.050 C 
ENDBRANCH  11  14
ENDBRANCH   9  10
ENDBRANCH   7   9
ENDBRANCH   1   7
BRANCH   4  22
ATOM     22  C   UNL d   1      22.843 -18.477  -1.155  0.00  0.00     0.251 C 
ATOM     23  O   UNL d   1      22.844 -19.098  -2.221  0.00  0.00    -0.268 OA
ATOM     24  N   UNL d   1      21.695 -18.335  -0.395  0.00  0.00    -0.351 N 
ATOM     25  H   UNL d   1      21.688 -17.882   0.505  0.00  0.00     0.163 HD
BRANCH  24  26
ATOM     26  C   UNL d   1      20.458 -18.948  -0.821  0.00  0.00     0.187 C 
BRANCH  26  27
ATOM     27  C   UNL d   1      19.757 -19.663   0.284  0.00  0.00     0.070 A 
ATOM     28  C   UNL d   1      18.705 -20.557   0.249  0.00  0.00     0.036 A 
ATOM     29  C   UNL d   1      18.435 -20.927   1.586  0.00  0.00     0.027 A 
ATOM     30  C   UNL d   1      19.354 -20.255   2.358  0.00  0.00     0.142 A 
ATOM     31  O   UNL d   1      20.166 -19.484   1.579  0.00  0.00    -0.325 OA
ENDBRANCH  26  27
ENDBRANCH  24  26
ENDBRANCH   4  22
TORSDOF 7
ENDMDL
MODEL 6
REMARK VINA RESULT:    -8.448      4.243      6.115
REMARK INTER + INTRA:         -12.295
REMARK INTER:                 -10.536
REMARK INTRA:                  -1.759
REMARK CONF_INDEPENDENT:        2.088
REMARK UNBOUND:                -1.759
REMARK  7 active torsions:
REMARK  status: ('A' for Active; 'I' for Inactive)
REMARK    1  A    between atoms: C_5  and  N_6 
REMARK       I    between atoms: N_6  and  C_7 
REMARK    2  A    between atoms: C_7  and  C_9 
REMARK    3  A    between atoms: C_9  and  N_10 
REMARK    4  A    between atoms: N_10  and  C_11 
REMARK    5  A    between atoms: C_14  and  C_15 
REMARK       I    between atoms: C_15  and  N_17 
REMARK    6  A    between atoms: N_17  and  C_18 
REMARK    7  A    between atoms: C_18  and  C_19 
ROOT
ATOM      1  C   UNL d   1      26.258 -16.582  -0.031  0.00  0.00     0.028 A 
ATOM      2  C   UNL d   1      25.229 -15.915  -0.703  0.00  0.00     0.030 A 
ATOM      3  C   UNL d   1      24.027 -16.565  -1.019  0.00  0.00     0.019 A 
ATOM      4  C   UNL d   1      23.849 -17.923  -0.713  0.00  0.00     0.032 A 
ATOM      5  C   UNL d   1      24.866 -18.582  -0.020  0.00  0.00     0.019 A 
ATOM      6  C   UNL d   1      26.055 -17.917   0.306  0.00  0.00     0.030 A 
ENDROOT
BRANCH   1   7
ATOM      7  N   UNL d   1      27.427 -15.914   0.236  0.00  0.00    -0.381 N 
ATOM      8  H   UNL d   1      27.628 -15.689   1.217  0.00  0.00     0.160 HD
BRANCH   7   9
ATOM      9  C   UNL d   1      28.601 -15.883  -0.638  0.00  0.00     0.223 C 
BRANCH   9  10
ATOM     10  C   UNL d   1      28.231 -15.090  -1.897  0.00  0.00     0.239 C 
ATOM     11  N   UNL d   1      27.330 -14.044  -1.713  0.00  0.00    -0.325 N 
ATOM     12  H   UNL d   1      26.986 -13.885  -0.777  0.00  0.00     0.169 HD
ATOM     13  O   UNL d   1      28.738 -15.435  -2.967  0.00  0.00    -0.271 OA
BRANCH  11  14
ATOM     14  C   UNL d   1      26.855 -13.180  -2.745  0.00  0.00     0.040 A 
ATOM     15  C   UNL d   1      27.164 -11.814  -2.714  0.00  0.00     0.030 A 
ATOM     16  C   UNL d   1      26.737 -10.920  -3.686  0.00  0.00     0.009 A 
ATOM     17  C   UNL d   1      25.972 -11.362  -4.751  0.00  0.00    -0.061 A 
ATOM     18  C   UNL d   1      25.527 -10.367  -5.779  0.00  0.00     0.048 C 
ATOM     19  C   UNL d   1      25.642 -12.724  -4.817  0.00  0.00     0.015 A 
ATOM     20  C   UNL d   1      26.070 -13.649  -3.821  0.00  0.00    -0.035 A 
ATOM     21  C   UNL d   1      25.647 -15.086  -3.996  0.00  0.00     0.050 C 
ENDBRANCH  11  14
ENDBRANCH   9  10
ENDBRANCH   7   9
ENDBRANCH   1   7
BRANCH   4  22
ATOM     22  C   UNL d   1      22.612 -18.625  -1.185  0.00  0.00     0.251 C 
ATOM     23  O   UNL d   1      22.656 -19.320  -2.204  0.00  0.00    -0.268 OA
ATOM     24  N   UNL d   1      21.455 -18.498  -0.437  0.00  0.00    -0.351 N 
ATOM     25  H   UNL d   1      21.417 -17.982   0.428  0.00  0.00     0.163 HD
BRANCH  24  26
ATOM     26  C   UNL d   1      20.259 -19.213  -0.818  0.00  0.00     0.187 C 
BRANCH  26  27
ATOM     27  C   UNL d   1      19.594 -19.882   0.337  0.00  0.00     0.070 A 
ATOM     28  C   UNL d   1      18.722 -20.953   0.374  0.00  0.00     0.036 A 
ATOM     29  C   UNL d   1      18.398 -21.173   1.731  0.00  0.00     0.027 A 
ATOM     30  C   UNL d   1      19.107 -20.237   2.447  0.00  0.00     0.142 A 
ATOM     31  O   UNL d   1      19.841 -19.447   1.612  0.00  0.00    -0.325 OA
ENDBRANCH  26  27
ENDBRANCH  24  26
ENDBRANCH   4  22
TORSDOF 7
ENDMDL
MODEL 7
REMARK VINA RESULT:    -8.260      4.861      7.733
REMARK INTER + INTRA:         -12.400
REMARK INTER:                 -10.348
REMARK INTRA:                  -2.052
REMARK CONF_INDEPENDENT:        2.088
REMARK UNBOUND:                -2.052
REMARK  7 active torsions:
REMARK  status: ('A' for Active; 'I' for Inactive)
REMARK    1  A    between atoms: C_5  and  N_6 
REMARK       I    between atoms: N_6  and  C_7 
REMARK    2  A    between atoms: C_7  and  C_9 
REMARK    3  A    between atoms: C_9  and  N_10 
REMARK    4  A    between atoms: N_10  and  C_11 
REMARK    5  A    between atoms: C_14  and  C_15 
REMARK       I    between atoms: C_15  and  N_17 
REMARK    6  A    between atoms: N_17  and  C_18 
REMARK    7  A    between atoms: C_18  and  C_19 
ROOT
ATOM      1  C   UNL d   1      26.360 -14.084  -2.823  0.00  0.00     0.028 A 
ATOM      2  C   UNL d   1      25.142 -14.690  -3.144  0.00  0.00     0.030 A 
ATOM      3  C   UNL d   1      24.639 -15.756  -2.384  0.00  0.00     0.019 A 
ATOM      4  C   UNL d   1      25.377 -16.277  -1.310  0.00  0.00     0.032 A 
ATOM      5  C   UNL d   1      26.582 -15.656  -0.975  0.00  0.00     0.019 A 
ATOM      6  C   UNL d   1      27.065 -14.580  -1.730  0.00  0.00     0.030 A 
ENDROOT
BRANCH   1   7
ATOM      7  N   UNL d   1      26.826 -13.059  -3.609  0.00  0.00    -0.381 N 
ATOM      8  H   UNL d   1      27.361 -12.316  -3.146  0.00  0.00     0.160 HD
BRANCH   7   9
ATOM      9  C   UNL d   1      27.030 -13.130  -5.057  0.00  0.00     0.223 C 
BRANCH   9  10
ATOM     10  C   UNL d   1      27.560 -14.530  -5.391  0.00  0.00     0.239 C 
ATOM     11  N   UNL d   1      28.901 -14.759  -5.091  0.00  0.00    -0.325 N 
ATOM     12  H   UNL d   1      29.423 -13.996  -4.683  0.00  0.00     0.169 HD
ATOM     13  O   UNL d   1      26.780 -15.336  -5.904  0.00  0.00    -0.271 OA
BRANCH  11  14
ATOM     14  C   UNL d   1      29.593 -15.986  -5.317  0.00  0.00     0.040 A 
ATOM     15  C   UNL d   1      30.087 -16.289  -6.592  0.00  0.00     0.030 A 
ATOM     16  C   UNL d   1      30.770 -17.463  -6.879  0.00  0.00     0.009 A 
ATOM     17  C   UNL d   1      30.996 -18.399  -5.885  0.00  0.00    -0.061 A 
ATOM     18  C   UNL d   1      31.734 -19.655  -6.233  0.00  0.00     0.048 C 
ATOM     19  C   UNL d   1      30.516 -18.130  -4.593  0.00  0.00     0.015 A 
ATOM     20  C   UNL d   1      29.807 -16.931  -4.290  0.00  0.00    -0.035 A 
ATOM     21  C   UNL d   1      29.334 -16.758  -2.869  0.00  0.00     0.050 C 
ENDBRANCH  11  14
ENDBRANCH   9  10
ENDBRANCH   7   9
ENDBRANCH   1   7
BRANCH   4  22
ATOM     22  C   UNL d   1      24.881 -17.502  -0.605  0.00  0.00     0.251 C 
ATOM     23  O   UNL d   1      25.641 -18.128   0.140  0.00  0.00    -0.268 OA
ATOM     24  N   UNL d   1      23.563 -17.881  -0.786  0.00  0.00    -0.351 N 
ATOM     25  H   UNL d   1      22.914 -17.350  -1.344  0.00  0.00     0.163 HD
BRANCH  24  26
ATOM     26  C   UNL d   1      23.024 -19.015  -0.071  0.00  0.00     0.187 C 
BRANCH  26  27
ATOM     27  C   UNL d   1      21.546 -19.139  -0.215  0.00  0.00     0.070 A 
ATOM     28  C   UNL d   1      20.669 -20.075   0.300  0.00  0.00     0.036 A 
ATOM     29  C   UNL d   1      19.378 -19.720  -0.150  0.00  0.00     0.027 A 
ATOM     30  C   UNL d   1      19.537 -18.575  -0.895  0.00  0.00     0.142 A 
ATOM     31  O   UNL d   1      20.851 -18.209  -0.941  0.00  0.00    -0.325 OA
ENDBRANCH  26  27
ENDBRANCH  24  26
ENDBRANCH   4  22
TORSDOF 7
ENDMDL
MODEL 8
REMARK VINA RESULT:    -8.097      3.538      6.485
REMARK INTER + INTRA:         -11.709
REMARK INTER:                 -10.186
REMARK INTRA:                  -1.524
REMARK CONF_INDEPENDENT:        2.088
REMARK UNBOUND:                -1.524
REMARK  7 active torsions:
REMARK  status: ('A' for Active; 'I' for Inactive)
REMARK    1  A    between atoms: C_5  and  N_6 
REMARK       I    between atoms: N_6  and  C_7 
REMARK    2  A    between atoms: C_7  and  C_9 
REMARK    3  A    between atoms: C_9  and  N_10 
REMARK    4  A    between atoms: N_10  and  C_11 
REMARK    5  A    between atoms: C_14  and  C_15 
REMARK       I    between atoms: C_15  and  N_17 
REMARK    6  A    between atoms: N_17  and  C_18 
REMARK    7  A    between atoms: C_18  and  C_19 
ROOT
ATOM      1  C   UNL d   1      26.594 -16.597   0.185  0.00  0.00     0.028 A 
ATOM      2  C   UNL d   1      26.349 -17.961   0.369  0.00  0.00     0.030 A 
ATOM      3  C   UNL d   1      25.191 -18.567  -0.141  0.00  0.00     0.019 A 
ATOM      4  C   UNL d   1      24.219 -17.801  -0.804  0.00  0.00     0.032 A 
ATOM      5  C   UNL d   1      24.475 -16.444  -1.009  0.00  0.00     0.019 A 
ATOM      6  C   UNL d   1      25.644 -15.855  -0.512  0.00  0.00     0.030 A 
ENDROOT
BRANCH   1   7
ATOM      7  N   UNL d   1      27.728 -16.041   0.721  0.00  0.00    -0.381 N 
ATOM      8  H   UNL d   1      28.364 -16.665   1.230  0.00  0.00     0.160 HD
BRANCH   7   9
ATOM      9  C   UNL d   1      28.344 -14.788   0.280  0.00  0.00     0.223 C 
BRANCH   9  10
ATOM     10  C   UNL d   1      29.193 -15.090  -0.960  0.00  0.00     0.239 C 
ATOM     11  N   UNL d   1      28.514 -15.650  -2.040  0.00  0.00    -0.325 N 
ATOM     12  H   UNL d   1      27.524 -15.817  -1.931  0.00  0.00     0.169 HD
ATOM     13  O   UNL d   1      30.399 -14.834  -0.911  0.00  0.00    -0.271 OA
BRANCH  11  14
ATOM     14  C   UNL d   1      29.109 -16.004  -3.288  0.00  0.00     0.040 A 
ATOM     15  C   UNL d   1      28.733 -15.336  -4.459  0.00  0.00     0.030 A 
ATOM     16  C   UNL d   1      29.272 -15.629  -5.704  0.00  0.00     0.009 A 
ATOM     17  C   UNL d   1      30.232 -16.619  -5.832  0.00  0.00    -0.061 A 
ATOM     18  C   UNL d   1      30.789 -16.909  -7.192  0.00  0.00     0.048 C 
ATOM     19  C   UNL d   1      30.635 -17.310  -4.679  0.00  0.00     0.015 A 
ATOM     20  C   UNL d   1      30.081 -17.022  -3.398  0.00  0.00    -0.035 A 
ATOM     21  C   UNL d   1      30.588 -17.837  -2.236  0.00  0.00     0.050 C 
ENDBRANCH  11  14
ENDBRANCH   9  10
ENDBRANCH   7   9
ENDBRANCH   1   7
BRANCH   4  22
ATOM     22  C   UNL d   1      22.931 -18.448  -1.215  0.00  0.00     0.251 C 
ATOM     23  O   UNL d   1      22.938 -19.325  -2.083  0.00  0.00    -0.268 OA
ATOM     24  N   UNL d   1      21.765 -18.060  -0.579  0.00  0.00    -0.351 N 
ATOM     25  H   UNL d   1      21.750 -17.387   0.171  0.00  0.00     0.163 HD
BRANCH  24  26
ATOM     26  C   UNL d   1      20.512 -18.706  -0.896  0.00  0.00     0.187 C 
BRANCH  26  27
ATOM     27  C   UNL d   1      19.949 -19.468   0.255  0.00  0.00     0.070 A 
ATOM     28  C   UNL d   1      18.914 -20.381   0.306  0.00  0.00     0.036 A 
ATOM     29  C   UNL d   1      18.799 -20.798   1.651  0.00  0.00     0.027 A 
ATOM     30  C   UNL d   1      19.785 -20.132   2.340  0.00  0.00     0.142 A 
ATOM     31  O   UNL d   1      20.494 -19.321   1.503  0.00  0.00    -0.325 OA
ENDBRANCH  26  27
ENDBRANCH  24  26
ENDBRANCH   4  22
TORSDOF 7
ENDMDL
MODEL 9
REMARK VINA RESULT:    -7.915      3.053     10.121
REMARK INTER + INTRA:         -11.561
REMARK INTER:                 -10.003
REMARK INTRA:                  -1.557
REMARK CONF_INDEPENDENT:        2.088
REMARK UNBOUND:                -1.557
REMARK  7 active torsions:
REMARK  status: ('A' for Active; 'I' for Inactive)
REMARK    1  A    between atoms: C_5  and  N_6 
REMARK       I    between atoms: N_6  and  C_7 
REMARK    2  A    between atoms: C_7  and  C_9 
REMARK    3  A    between atoms: C_9  and  N_10 
REMARK    4  A    between atoms: N_10  and  C_11 
REMARK    5  A    between atoms: C_14  and  C_15 
REMARK       I    between atoms: C_15  and  N_17 
REMARK    6  A    between atoms: N_17  and  C_18 
REMARK    7  A    between atoms: C_18  and  C_19 
ROOT
ATOM      1  C   UNL d   1      29.213 -14.221   3.162  0.00  0.00     0.028 A 
ATOM      2  C   UNL d   1      28.117 -14.695   3.889  0.00  0.00     0.030 A 
ATOM      3  C   UNL d   1      27.888 -14.284   5.210  0.00  0.00     0.019 A 
ATOM      4  C   UNL d   1      28.790 -13.423   5.855  0.00  0.00     0.032 A 
ATOM      5  C   UNL d   1      29.871 -12.931   5.122  0.00  0.00     0.019 A 
ATOM      6  C   UNL d   1      30.079 -13.334   3.798  0.00  0.00     0.030 A 
ENDROOT
BRANCH   1   7
ATOM      7  N   UNL d   1      29.413 -14.668   1.880  0.00  0.00    -0.381 N 
ATOM      8  H   UNL d   1      29.730 -15.636   1.763  0.00  0.00     0.160 HD
BRANCH   7   9
ATOM      9  C   UNL d   1      28.811 -14.085   0.680  0.00  0.00     0.223 C 
BRANCH   9  10
ATOM     10  C   UNL d   1      27.387 -14.638   0.549  0.00  0.00     0.239 C 
ATOM     11  N   UNL d   1      27.280 -15.922   0.019  0.00  0.00    -0.325 N 
ATOM     12  H   UNL d   1      28.137 -16.391  -0.240  0.00  0.00     0.169 HD
ATOM     13  O   UNL d   1      26.452 -13.916   0.903  0.00  0.00    -0.271 OA
BRANCH  11  14
ATOM     14  C   UNL d   1      26.056 -16.625  -0.185  0.00  0.00     0.040 A 
ATOM     15  C   UNL d   1      24.933 -15.950  -0.678  0.00  0.00     0.030 A 
ATOM     16  C   UNL d   1      23.712 -16.573  -0.902  0.00  0.00     0.009 A 
ATOM     17  C   UNL d   1      23.562 -17.924  -0.640  0.00  0.00    -0.061 A 
ATOM     18  C   UNL d   1      22.229 -18.561  -0.891  0.00  0.00     0.048 C 
ATOM     19  C   UNL d   1      24.666 -18.635  -0.145  0.00  0.00     0.015 A 
ATOM     20  C   UNL d   1      25.920 -18.003   0.094  0.00  0.00    -0.035 A 
ATOM     21  C   UNL d   1      27.030 -18.869   0.634  0.00  0.00     0.050 C 
ENDBRANCH  11  14
ENDBRANCH   9  10
ENDBRANCH   7   9
ENDBRANCH   1   7
BRANCH   4  22
ATOM     22  C   UNL d   1      28.594 -13.112   7.308  0.00  0.00     0.251 C 
ATOM     23  O   UNL d   1      28.138 -12.015   7.641  0.00  0.00    -0.268 OA
ATOM     24  N   UNL d   1      28.905 -14.086   8.240  0.00  0.00    -0.351 N 
ATOM     25  H   UNL d   1      29.224 -15.006   7.983  0.00  0.00     0.163 HD
BRANCH  24  26
ATOM     26  C   UNL d   1      28.667 -13.852   9.646  0.00  0.00     0.187 C 
BRANCH  26  27
ATOM     27  C   UNL d   1      29.485 -14.736  10.525  0.00  0.00     0.070 A 
ATOM     28  C   UNL d   1      29.671 -14.718  11.893  0.00  0.00     0.036 A 
ATOM     29  C   UNL d   1      30.548 -15.782  12.204  0.00  0.00     0.027 A 
ATOM     30  C   UNL d   1      30.829 -16.402  11.009  0.00  0.00     0.142 A 
ATOM     31  O   UNL d   1      30.188 -15.778   9.979  0.00  0.00    -0.325 OA
ENDBRANCH  26  27
ENDBRANCH  24  26
ENDBRANCH   4  22
TORSDOF 7
ENDMDL
