MODEL 1
REMARK VINA RESULT:    -8.268      0.000      0.000
REMARK INTER + INTRA:         -14.216
REMARK INTER:                 -11.251
REMARK INTRA:                  -2.966
REMARK CONF_INDEPENDENT:        2.983
REMARK UNBOUND:                -2.966
REMARK  10 active torsions:
REMARK  status: ('A' for Active; 'I' for Inactive)
REMARK    1  A    between atoms: C_2  and  O_3 
REMARK    2  A    between atoms: O_3  and  C_4 
REMARK    3  A    between atoms: C_9  and  C_10 
REMARK    4  A    between atoms: C_12  and  C_13 
REMARK       I    between atoms: C_13  and  N_15 
REMARK    5  A    between atoms: N_15  and  C_16 
REMARK    6  A    between atoms: C_16  and  C_17 
REMARK    7  A    between atoms: C_16  and  C_21 
REMARK    8  A    between atoms: C_17  and  C_18 
REMARK    9  A    between atoms: C_18  and  S_19 
REMARK   10  A    between atoms: C_21  and  O_23 
ROOT
ATOM      1  C   UNL d   1      27.531 -14.496  -4.698  0.00  0.00     0.067 C 
ATOM      2  N   UNL d   1      26.693 -15.217  -4.010  0.00  0.00    -0.245 NA
ATOM      3  C   UNL d   1      25.567 -14.555  -3.580  0.00  0.00     0.121 C 
ATOM      4  C   UNL d   1      25.139 -13.382  -4.124  0.00  0.00     0.025 C 
ATOM      5  C   UNL d   1      25.893 -12.692  -5.260  0.00  0.00     0.033 C 
ATOM      6  C   UNL d   1      25.904 -11.339  -5.494  0.00  0.00     0.046 C 
ATOM      7  C   UNL d   1      26.981 -10.483  -6.301  0.00  0.00    -0.009 C 
ATOM      8  C   UNL d   1      27.221  -9.210  -5.876  0.00  0.00    -0.003 C 
ATOM      9  C   UNL d   1      26.335  -8.691  -4.867  0.00  0.00     0.001 C 
ATOM     10  C   UNL d   1      25.952  -9.561  -3.904  0.00  0.00     0.020 C 
ATOM     11  C   UNL d   1      26.423 -10.994  -4.138  0.00  0.00     0.001 C 
ATOM     12  N   UNL d   1      27.461 -11.788  -4.012  0.00  0.00    -0.284 NA
ATOM     13  C   UNL d   1      27.326 -13.015  -5.061  0.00  0.00     0.128 C 
ATOM     14  H   UNL d   1      28.389 -11.377  -4.112  0.00  0.00     0.128 HD
ENDROOT
BRANCH   3  15
ATOM     15  C   UNL d   1      24.736 -15.143  -2.448  0.00  0.00     0.270 C 
ATOM     16  O   UNL d   1      23.533 -14.902  -2.391  0.00  0.00    -0.266 OA
ATOM     17  N   UNL d   1      25.383 -16.016  -1.600  0.00  0.00    -0.342 N 
ATOM     18  H   UNL d   1      26.402 -16.041  -1.593  0.00  0.00     0.163 HD
BRANCH  17  19
ATOM     19  C   UNL d   1      24.674 -16.980  -0.709  0.00  0.00     0.185 C 
BRANCH  19  20
ATOM     20  C   UNL d   1      23.707 -17.906  -1.499  0.00  0.00     0.045 C 
BRANCH  20  21
ATOM     21  C   UNL d   1      22.807 -18.780  -0.618  0.00  0.00     0.076 C 
BRANCH  21  22
ATOM     22  S   UNL d   1      21.032 -18.508  -0.896  0.00  0.00    -0.173 SA
ATOM     23  C   UNL d   1      20.359 -19.763   0.241  0.00  0.00     0.089 C 
ENDBRANCH  21  22
ENDBRANCH  20  21
ENDBRANCH  19  20
BRANCH  19  24
ATOM     24  C   UNL d   1      25.705 -17.850   0.057  0.00  0.00     0.281 C 
ATOM     25  O   UNL d   1      25.398 -18.574   1.025  0.00  0.00    -0.263 OA
BRANCH  24  26
ATOM     26  O   UNL d   1      26.967 -17.748  -0.442  0.00  0.00    -0.325 OA
ATOM     27  C   UNL d   1      27.824 -16.792   0.211  0.00  0.00     0.213 C 
ENDBRANCH  24  26
ENDBRANCH  19  24
ENDBRANCH  17  19
ENDBRANCH   3  15
BRANCH   1  28
ATOM     28  C   UNL d   1      28.731 -15.178  -5.285  0.00  0.00     0.024 A 
ATOM     29  C   UNL d   1      29.373 -16.192  -4.543  0.00  0.00     0.016 A 
ATOM     30  C   UNL d   1      30.451 -16.902  -5.087  0.00  0.00     0.001 A 
ATOM     31  C   UNL d   1      30.895 -16.606  -6.372  0.00  0.00     0.003 A 
ATOM     32  C   UNL d   1      30.279 -15.580  -7.102  0.00  0.00     0.037 A 
ATOM     33  C   UNL d   1      29.184 -14.873  -6.572  0.00  0.00     0.081 A 
BRANCH  33  34
ATOM     34  O   UNL d   1      28.534 -14.025  -7.434  0.00  0.00    -0.351 OA
BRANCH  34  35
ATOM     35  C   UNL d   1      29.289 -12.909  -7.916  0.00  0.00     0.171 C 
ATOM     36  C   UNL d   1      28.451 -12.211  -8.980  0.00  0.00     0.034 C 
ENDBRANCH  34  35
ENDBRANCH  33  34
ENDBRANCH   1  28
TORSDOF 10
ENDMDL
MODEL 2
REMARK VINA RESULT:    -7.952      1.296      4.457
REMARK INTER + INTRA:         -13.519
REMARK INTER:                 -10.935
REMARK INTRA:                  -2.584
REMARK CONF_INDEPENDENT:        2.983
REMARK UNBOUND:                -2.584
REMARK  10 active torsions:
REMARK  status: ('A' for Active; 'I' for Inactive)
REMARK    1  A    between atoms: C_2  and  O_3 
REMARK    2  A    between atoms: O_3  and  C_4 
REMARK    3  A    between atoms: C_9  and  C_10 
REMARK    4  A    between atoms: C_12  and  C_13 
REMARK       I    between atoms: C_13  and  N_15 
REMARK    5  A    between atoms: N_15  and  C_16 
REMARK    6  A    between atoms: C_16  and  C_17 
REMARK    7  A    between atoms: C_16  and  C_21 
REMARK    8  A    between atoms: C_17  and  C_18 
REMARK    9  A    between atoms: C_18  and  S_19 
REMARK   10  A    between atoms: C_21  and  O_23 
ROOT
ATOM      1  C   UNL d   1      27.040 -12.891  -5.421  0.00  0.00     0.067 C 
ATOM      2  N   UNL d   1      26.256 -13.151  -4.414  0.00  0.00    -0.245 NA
ATOM      3  C   UNL d   1      26.626 -14.232  -3.649  0.00  0.00     0.121 C 
ATOM      4  C   UNL d   1      27.880 -14.762  -3.665  0.00  0.00     0.025 C 
ATOM      5  C   UNL d   1      28.987 -14.200  -4.556  0.00  0.00     0.033 C 
ATOM      6  C   UNL d   1      30.036 -14.925  -5.064  0.00  0.00     0.046 C 
ATOM      7  C   UNL d   1      30.942 -14.597  -6.335  0.00  0.00    -0.009 C 
ATOM      8  C   UNL d   1      31.412 -15.650  -7.063  0.00  0.00    -0.003 C 
ATOM      9  C   UNL d   1      31.215 -16.960  -6.498  0.00  0.00     0.001 C 
ATOM     10  C   UNL d   1      30.035 -17.169  -5.872  0.00  0.00     0.020 C 
ATOM     11  C   UNL d   1      29.164 -15.921  -5.753  0.00  0.00     0.001 C 
ATOM     12  N   UNL d   1      28.325 -15.162  -6.419  0.00  0.00    -0.284 NA
ATOM     13  C   UNL d   1      28.314 -13.678  -5.770  0.00  0.00     0.128 C 
ATOM     14  H   UNL d   1      28.460 -15.075  -7.426  0.00  0.00     0.128 HD
ENDROOT
BRANCH   3  15
ATOM     15  C   UNL d   1      25.605 -14.882  -2.724  0.00  0.00     0.270 C 
ATOM     16  O   UNL d   1      24.411 -14.825  -3.004  0.00  0.00    -0.266 OA
ATOM     17  N   UNL d   1      26.109 -15.604  -1.663  0.00  0.00    -0.342 N 
ATOM     18  H   UNL d   1      27.083 -15.473  -1.388  0.00  0.00     0.163 HD
BRANCH  17  19
ATOM     19  C   UNL d   1      25.321 -16.619  -0.906  0.00  0.00     0.185 C 
BRANCH  19  20
ATOM     20  C   UNL d   1      24.390 -17.449  -1.833  0.00  0.00     0.045 C 
BRANCH  20  21
ATOM     21  C   UNL d   1      23.622 -18.569  -1.121  0.00  0.00     0.076 C 
BRANCH  21  22
ATOM     22  S   UNL d   1      22.203 -17.975  -0.153  0.00  0.00    -0.173 SA
ATOM     23  C   UNL d   1      20.878 -18.938  -0.952  0.00  0.00     0.089 C 
ENDBRANCH  21  22
ENDBRANCH  20  21
ENDBRANCH  19  20
BRANCH  19  24
ATOM     24  C   UNL d   1      26.279 -17.577  -0.150  0.00  0.00     0.281 C 
ATOM     25  O   UNL d   1      25.895 -18.350   0.750  0.00  0.00    -0.263 OA
BRANCH  24  26
ATOM     26  O   UNL d   1      27.568 -17.493  -0.579  0.00  0.00    -0.325 OA
ATOM     27  C   UNL d   1      28.442 -16.676   0.223  0.00  0.00     0.213 C 
ENDBRANCH  24  26
ENDBRANCH  19  24
ENDBRANCH  17  19
ENDBRANCH   3  15
BRANCH   1  28
ATOM     28  C   UNL d   1      26.754 -11.666  -6.238  0.00  0.00     0.024 A 
ATOM     29  C   UNL d   1      25.922 -10.662  -5.698  0.00  0.00     0.016 A 
ATOM     30  C   UNL d   1      25.691  -9.471  -6.400  0.00  0.00     0.001 A 
ATOM     31  C   UNL d   1      26.286  -9.276  -7.643  0.00  0.00     0.003 A 
ATOM     32  C   UNL d   1      27.090 -10.282  -8.195  0.00  0.00     0.037 A 
ATOM     33  C   UNL d   1      27.343 -11.474  -7.492  0.00  0.00     0.081 A 
BRANCH  33  34
ATOM     34  O   UNL d   1      28.289 -12.309  -8.031  0.00  0.00    -0.351 OA
BRANCH  34  35
ATOM     35  C   UNL d   1      28.462 -12.240  -9.449  0.00  0.00     0.171 C 
ATOM     36  C   UNL d   1      29.959 -12.204  -9.731  0.00  0.00     0.034 C 
ENDBRANCH  34  35
ENDBRANCH  33  34
ENDBRANCH   1  28
TORSDOF 10
ENDMDL
MODEL 3
REMARK VINA RESULT:    -7.914      3.970      6.860
REMARK INTER + INTRA:         -13.624
REMARK INTER:                 -10.897
REMARK INTRA:                  -2.727
REMARK CONF_INDEPENDENT:        2.983
REMARK UNBOUND:                -2.727
REMARK  10 active torsions:
REMARK  status: ('A' for Active; 'I' for Inactive)
REMARK    1  A    between atoms: C_2  and  O_3 
REMARK    2  A    between atoms: O_3  and  C_4 
REMARK    3  A    between atoms: C_9  and  C_10 
REMARK    4  A    between atoms: C_12  and  C_13 
REMARK       I    between atoms: C_13  and  N_15 
REMARK    5  A    between atoms: N_15  and  C_16 
REMARK    6  A    between atoms: C_16  and  C_17 
REMARK    7  A    between atoms: C_16  and  C_21 
REMARK    8  A    between atoms: C_17  and  C_18 
REMARK    9  A    between atoms: C_18  and  S_19 
REMARK   10  A    between atoms: C_21  and  O_23 
ROOT
ATOM      1  C   UNL d   1      26.979 -15.518  -2.002  0.00  0.00     0.067 C 
ATOM      2  N   UNL d   1      27.622 -14.920  -1.040  0.00  0.00    -0.245 NA
ATOM      3  C   UNL d   1      27.132 -15.150   0.223  0.00  0.00     0.121 C 
ATOM      4  C   UNL d   1      26.312 -16.195   0.525  0.00  0.00     0.025 C 
ATOM      5  C   UNL d   1      25.855 -17.200  -0.532  0.00  0.00     0.033 C 
ATOM      6  C   UNL d   1      24.675 -17.899  -0.498  0.00  0.00     0.046 C 
ATOM      7  C   UNL d   1      23.889 -18.575  -1.711  0.00  0.00    -0.009 C 
ATOM      8  C   UNL d   1      22.528 -18.598  -1.647  0.00  0.00    -0.003 C 
ATOM      9  C   UNL d   1      21.937 -18.193  -0.398  0.00  0.00     0.001 C 
ATOM     10  C   UNL d   1      22.530 -17.154   0.235  0.00  0.00     0.020 C 
ATOM     11  C   UNL d   1      23.820 -16.677  -0.428  0.00  0.00     0.001 C 
ATOM     12  N   UNL d   1      24.281 -15.942  -1.413  0.00  0.00    -0.284 NA
ATOM     13  C   UNL d   1      25.769 -16.447  -1.807  0.00  0.00     0.128 C 
ATOM     14  H   UNL d   1      23.723 -15.884  -2.264  0.00  0.00     0.128 HD
ENDROOT
BRANCH   3  15
ATOM     15  C   UNL d   1      27.513 -14.212   1.360  0.00  0.00     0.270 C 
ATOM     16  O   UNL d   1      26.825 -13.219   1.583  0.00  0.00    -0.266 OA
ATOM     17  N   UNL d   1      28.570 -14.604   2.153  0.00  0.00    -0.342 N 
ATOM     18  H   UNL d   1      29.199 -15.335   1.821  0.00  0.00     0.163 HD
BRANCH  17  19
ATOM     19  C   UNL d   1      28.831 -14.053   3.515  0.00  0.00     0.185 C 
BRANCH  19  20
ATOM     20  C   UNL d   1      27.587 -14.164   4.440  0.00  0.00     0.045 C 
BRANCH  20  21
ATOM     21  C   UNL d   1      27.574 -13.167   5.605  0.00  0.00     0.076 C 
BRANCH  21  22
ATOM     22  S   UNL d   1      28.703 -11.762   5.372  0.00  0.00    -0.173 SA
ATOM     23  C   UNL d   1      27.550 -10.584   4.595  0.00  0.00     0.089 C 
ENDBRANCH  21  22
ENDBRANCH  20  21
ENDBRANCH  19  20
BRANCH  19  24
ATOM     24  C   UNL d   1      30.025 -14.797   4.168  0.00  0.00     0.281 C 
ATOM     25  O   UNL d   1      30.086 -15.043   5.389  0.00  0.00    -0.263 OA
BRANCH  24  26
ATOM     26  O   UNL d   1      30.983 -15.161   3.273  0.00  0.00    -0.325 OA
ATOM     27  C   UNL d   1      31.835 -14.099   2.802  0.00  0.00     0.213 C 
ENDBRANCH  24  26
ENDBRANCH  19  24
ENDBRANCH  17  19
ENDBRANCH   3  15
BRANCH   1  28
ATOM     28  C   UNL d   1      27.521 -15.393  -3.395  0.00  0.00     0.024 A 
ATOM     29  C   UNL d   1      28.887 -15.659  -3.625  0.00  0.00     0.016 A 
ATOM     30  C   UNL d   1      29.414 -15.625  -4.923  0.00  0.00     0.001 A 
ATOM     31  C   UNL d   1      28.582 -15.324  -5.998  0.00  0.00     0.003 A 
ATOM     32  C   UNL d   1      27.231 -15.030  -5.771  0.00  0.00     0.037 A 
ATOM     33  C   UNL d   1      26.687 -15.079  -4.474  0.00  0.00     0.081 A 
BRANCH  33  34
ATOM     34  O   UNL d   1      25.323 -14.964  -4.382  0.00  0.00    -0.351 OA
BRANCH  34  35
ATOM     35  C   UNL d   1      24.806 -13.637  -4.247  0.00  0.00     0.171 C 
ATOM     36  C   UNL d   1      25.962 -12.730  -3.846  0.00  0.00     0.034 C 
ENDBRANCH  34  35
ENDBRANCH  33  34
ENDBRANCH   1  28
TORSDOF 10
ENDMDL
MODEL 4
REMARK VINA RESULT:    -7.913      3.829      7.214
REMARK INTER + INTRA:         -13.494
REMARK INTER:                 -10.896
REMARK INTRA:                  -2.599
REMARK CONF_INDEPENDENT:        2.983
REMARK UNBOUND:                -2.599
REMARK  10 active torsions:
REMARK  status: ('A' for Active; 'I' for Inactive)
REMARK    1  A    between atoms: C_2  and  O_3 
REMARK    2  A    between atoms: O_3  and  C_4 
REMARK    3  A    between atoms: C_9  and  C_10 
REMARK    4  A    between atoms: C_12  and  C_13 
REMARK       I    between atoms: C_13  and  N_15 
REMARK    5  A    between atoms: N_15  and  C_16 
REMARK    6  A    between atoms: C_16  and  C_17 
REMARK    7  A    between atoms: C_16  and  C_21 
REMARK    8  A    between atoms: C_17  and  C_18 
REMARK    9  A    between atoms: C_18  and  S_19 
REMARK   10  A    between atoms: C_21  and  O_23 
ROOT
ATOM      1  C   UNL d   1      25.623 -15.707  -0.699  0.00  0.00     0.067 C 
ATOM      2  N   UNL d   1      26.030 -15.125   0.392  0.00  0.00    -0.245 NA
ATOM      3  C   UNL d   1      26.958 -14.127   0.212  0.00  0.00     0.121 C 
ATOM      4  C   UNL d   1      27.165 -13.509  -0.983  0.00  0.00     0.025 C 
ATOM      5  C   UNL d   1      26.383 -13.890  -2.240  0.00  0.00     0.033 C 
ATOM      6  C   UNL d   1      26.848 -13.770  -3.526  0.00  0.00     0.046 C 
ATOM      7  C   UNL d   1      26.356 -14.542  -4.832  0.00  0.00    -0.009 C 
ATOM      8  C   UNL d   1      27.289 -14.825  -5.786  0.00  0.00    -0.003 C 
ATOM      9  C   UNL d   1      28.585 -14.221  -5.616  0.00  0.00     0.001 C 
ATOM     10  C   UNL d   1      29.053 -14.159  -4.349  0.00  0.00     0.020 C 
ATOM     11  C   UNL d   1      28.052 -14.620  -3.292  0.00  0.00     0.001 C 
ATOM     12  N   UNL d   1      27.547 -15.691  -2.726  0.00  0.00    -0.284 NA
ATOM     13  C   UNL d   1      26.087 -15.338  -2.119  0.00  0.00     0.128 C 
ATOM     14  H   UNL d   1      27.466 -16.535  -3.292  0.00  0.00     0.128 HD
ENDROOT
BRANCH   3  15
ATOM     15  C   UNL d   1      27.803 -13.665   1.392  0.00  0.00     0.270 C 
ATOM     16  O   UNL d   1      27.821 -12.476   1.696  0.00  0.00    -0.266 OA
ATOM     17  N   UNL d   1      28.424 -14.652   2.126  0.00  0.00    -0.342 N 
ATOM     18  H   UNL d   1      28.512 -15.588   1.731  0.00  0.00     0.163 HD
BRANCH  17  19
ATOM     19  C   UNL d   1      28.944 -14.449   3.510  0.00  0.00     0.185 C 
BRANCH  19  20
ATOM     20  C   UNL d   1      30.200 -13.535   3.537  0.00  0.00     0.045 C 
BRANCH  20  21
ATOM     21  C   UNL d   1      31.354 -14.019   2.650  0.00  0.00     0.076 C 
BRANCH  21  22
ATOM     22  S   UNL d   1      31.136 -13.618   0.892  0.00  0.00    -0.173 SA
ATOM     23  C   UNL d   1      30.936 -15.303   0.227  0.00  0.00     0.089 C 
ENDBRANCH  21  22
ENDBRANCH  20  21
ENDBRANCH  19  20
BRANCH  19  24
ATOM     24  C   UNL d   1      27.838 -13.828   4.405  0.00  0.00     0.281 C 
ATOM     25  O   UNL d   1      26.655 -13.700   4.031  0.00  0.00    -0.263 OA
BRANCH  24  26
ATOM     26  O   UNL d   1      28.290 -13.454   5.632  0.00  0.00    -0.325 OA
ATOM     27  C   UNL d   1      29.040 -14.450   6.354  0.00  0.00     0.213 C 
ENDBRANCH  24  26
ENDBRANCH  19  24
ENDBRANCH  17  19
ENDBRANCH   3  15
BRANCH   1  28
ATOM     28  C   UNL d   1      24.537 -16.735  -0.587  0.00  0.00     0.024 A 
ATOM     29  C   UNL d   1      23.192 -16.325  -0.707  0.00  0.00     0.016 A 
ATOM     30  C   UNL d   1      22.153 -17.265  -0.680  0.00  0.00     0.001 A 
ATOM     31  C   UNL d   1      22.448 -18.617  -0.533  0.00  0.00     0.003 A 
ATOM     32  C   UNL d   1      23.781 -19.025  -0.384  0.00  0.00     0.037 A 
ATOM     33  C   UNL d   1      24.833 -18.093  -0.427  0.00  0.00     0.081 A 
BRANCH  33  34
ATOM     34  O   UNL d   1      26.103 -18.610  -0.464  0.00  0.00    -0.351 OA
BRANCH  34  35
ATOM     35  C   UNL d   1      27.003 -18.155   0.551  0.00  0.00     0.171 C 
ATOM     36  C   UNL d   1      28.200 -17.519  -0.145  0.00  0.00     0.034 C 
ENDBRANCH  34  35
ENDBRANCH  33  34
ENDBRANCH   1  28
TORSDOF 10
ENDMDL
MODEL 5
REMARK VINA RESULT:    -7.857      1.153      2.116
REMARK INTER + INTRA:         -13.908
REMARK INTER:                 -10.840
REMARK INTRA:                  -3.067
REMARK CONF_INDEPENDENT:        2.983
REMARK UNBOUND:                -3.067
REMARK  10 active torsions:
REMARK  status: ('A' for Active; 'I' for Inactive)
REMARK    1  A    between atoms: C_2  and  O_3 
REMARK    2  A    between atoms: O_3  and  C_4 
REMARK    3  A    between atoms: C_9  and  C_10 
REMARK    4  A    between atoms: C_12  and  C_13 
REMARK       I    between atoms: C_13  and  N_15 
REMARK    5  A    between atoms: N_15  and  C_16 
REMARK    6  A    between atoms: C_16  and  C_17 
REMARK    7  A    between atoms: C_16  and  C_21 
REMARK    8  A    between atoms: C_17  and  C_18 
REMARK    9  A    between atoms: C_18  and  S_19 
REMARK   10  A    between atoms: C_21  and  O_23 
ROOT
ATOM      1  C   UNL d   1      27.430 -14.565  -4.617  0.00  0.00     0.067 C 
ATOM      2  N   UNL d   1      26.561 -15.245  -3.925  0.00  0.00    -0.245 NA
ATOM      3  C   UNL d   1      25.447 -14.542  -3.532  0.00  0.00     0.121 C 
ATOM      4  C   UNL d   1      25.060 -13.373  -4.114  0.00  0.00     0.025 C 
ATOM      5  C   UNL d   1      25.851 -12.733  -5.255  0.00  0.00     0.033 C 
ATOM      6  C   UNL d   1      25.902 -11.389  -5.523  0.00  0.00     0.046 C 
ATOM      7  C   UNL d   1      27.015 -10.583  -6.334  0.00  0.00    -0.009 C 
ATOM      8  C   UNL d   1      27.282  -9.306  -5.939  0.00  0.00    -0.003 C 
ATOM      9  C   UNL d   1      26.394  -8.737  -4.959  0.00  0.00     0.001 C 
ATOM     10  C   UNL d   1      25.972  -9.570  -3.980  0.00  0.00     0.020 C 
ATOM     11  C   UNL d   1      26.408 -11.021  -4.168  0.00  0.00     0.001 C 
ATOM     12  N   UNL d   1      27.422 -11.839  -4.004  0.00  0.00    -0.284 NA
ATOM     13  C   UNL d   1      27.271 -13.089  -5.022  0.00  0.00     0.128 C 
ATOM     14  H   UNL d   1      28.362 -11.456  -4.098  0.00  0.00     0.128 HD
ENDROOT
BRANCH   3  15
ATOM     15  C   UNL d   1      24.582 -15.077  -2.400  0.00  0.00     0.270 C 
ATOM     16  O   UNL d   1      23.379 -14.828  -2.386  0.00  0.00    -0.266 OA
ATOM     17  N   UNL d   1      25.200 -15.917  -1.498  0.00  0.00    -0.342 N 
ATOM     18  H   UNL d   1      26.218 -15.948  -1.462  0.00  0.00     0.163 HD
BRANCH  17  19
ATOM     19  C   UNL d   1      24.461 -16.840  -0.587  0.00  0.00     0.185 C 
BRANCH  19  20
ATOM     20  C   UNL d   1      23.334 -17.614  -1.326  0.00  0.00     0.045 C 
BRANCH  20  21
ATOM     21  C   UNL d   1      22.522 -18.558  -0.430  0.00  0.00     0.076 C 
BRANCH  21  22
ATOM     22  S   UNL d   1      20.892 -18.982  -1.110  0.00  0.00    -0.173 SA
ATOM     23  C   UNL d   1      20.074 -19.549   0.417  0.00  0.00     0.089 C 
ENDBRANCH  21  22
ENDBRANCH  20  21
ENDBRANCH  19  20
BRANCH  19  24
ATOM     24  C   UNL d   1      25.446 -17.853   0.053  0.00  0.00     0.281 C 
ATOM     25  O   UNL d   1      25.143 -18.574   1.024  0.00  0.00    -0.263 OA
BRANCH  24  26
ATOM     26  O   UNL d   1      26.660 -17.879  -0.560  0.00  0.00    -0.325 OA
ATOM     27  C   UNL d   1      27.734 -17.232   0.149  0.00  0.00     0.213 C 
ENDBRANCH  24  26
ENDBRANCH  19  24
ENDBRANCH  17  19
ENDBRANCH   3  15
BRANCH   1  28
ATOM     28  C   UNL d   1      28.620 -15.295  -5.166  0.00  0.00     0.024 A 
ATOM     29  C   UNL d   1      29.136 -14.915  -6.423  0.00  0.00     0.016 A 
ATOM     30  C   UNL d   1      30.290 -15.523  -6.936  0.00  0.00     0.001 A 
ATOM     31  C   UNL d   1      30.934 -16.513  -6.198  0.00  0.00     0.003 A 
ATOM     32  C   UNL d   1      30.409 -16.913  -4.962  0.00  0.00     0.037 A 
ATOM     33  C   UNL d   1      29.261 -16.297  -4.430  0.00  0.00     0.081 A 
BRANCH  33  34
ATOM     34  O   UNL d   1      28.939 -16.625  -3.137  0.00  0.00    -0.351 OA
BRANCH  34  35
ATOM     35  C   UNL d   1      29.739 -16.025  -2.113  0.00  0.00     0.171 C 
ATOM     36  C   UNL d   1      29.144 -14.656  -1.806  0.00  0.00     0.034 C 
ENDBRANCH  34  35
ENDBRANCH  33  34
ENDBRANCH   1  28
TORSDOF 10
ENDMDL
MODEL 6
REMARK VINA RESULT:    -7.766      3.802      7.135
REMARK INTER + INTRA:         -13.734
REMARK INTER:                 -10.749
REMARK INTRA:                  -2.985
REMARK CONF_INDEPENDENT:        2.983
REMARK UNBOUND:                -2.985
REMARK  10 active torsions:
REMARK  status: ('A' for Active; 'I' for Inactive)
REMARK    1  A    between atoms: C_2  and  O_3 
REMARK    2  A    between atoms: O_3  and  C_4 
REMARK    3  A    between atoms: C_9  and  C_10 
REMARK    4  A    between atoms: C_12  and  C_13 
REMARK       I    between atoms: C_13  and  N_15 
REMARK    5  A    between atoms: N_15  and  C_16 
REMARK    6  A    between atoms: C_16  and  C_17 
REMARK    7  A    between atoms: C_16  and  C_21 
REMARK    8  A    between atoms: C_17  and  C_18 
REMARK    9  A    between atoms: C_18  and  S_19 
REMARK   10  A    between atoms: C_21  and  O_23 
ROOT
ATOM      1  C   UNL d   1      25.259 -15.797  -0.837  0.00  0.00     0.067 C 
ATOM      2  N   UNL d   1      25.532 -15.103   0.230  0.00  0.00    -0.245 NA
ATOM      3  C   UNL d   1      26.403 -14.056   0.039  0.00  0.00     0.121 C 
ATOM      4  C   UNL d   1      26.669 -13.521  -1.184  0.00  0.00     0.025 C 
ATOM      5  C   UNL d   1      26.022 -14.057  -2.462  0.00  0.00     0.033 C 
ATOM      6  C   UNL d   1      26.584 -14.005  -3.713  0.00  0.00     0.046 C 
ATOM      7  C   UNL d   1      26.257 -14.911  -4.984  0.00  0.00    -0.009 C 
ATOM      8  C   UNL d   1      27.283 -15.199  -5.834  0.00  0.00    -0.003 C 
ATOM      9  C   UNL d   1      28.517 -14.490  -5.615  0.00  0.00     0.001 C 
ATOM     10  C   UNL d   1      28.872 -14.294  -4.324  0.00  0.00     0.020 C 
ATOM     11  C   UNL d   1      27.818 -14.743  -3.315  0.00  0.00     0.001 C 
ATOM     12  N   UNL d   1      27.340 -15.800  -2.701  0.00  0.00    -0.284 NA
ATOM     13  C   UNL d   1      25.815 -15.508  -2.242  0.00  0.00     0.128 C 
ATOM     14  H   UNL d   1      27.364 -16.690  -3.198  0.00  0.00     0.128 HD
ENDROOT
BRANCH   3  15
ATOM     15  C   UNL d   1      27.113 -13.442   1.238  0.00  0.00     0.270 C 
ATOM     16  O   UNL d   1      26.529 -12.611   1.928  0.00  0.00    -0.266 OA
ATOM     17  N   UNL d   1      28.358 -13.950   1.541  0.00  0.00    -0.342 N 
ATOM     18  H   UNL d   1      28.854 -14.505   0.844  0.00  0.00     0.163 HD
BRANCH  17  19
ATOM     19  C   UNL d   1      29.020 -13.779   2.868  0.00  0.00     0.185 C 
BRANCH  19  20
ATOM     20  C   UNL d   1      28.452 -14.755   3.936  0.00  0.00     0.045 C 
BRANCH  20  21
ATOM     21  C   UNL d   1      27.403 -14.135   4.866  0.00  0.00     0.076 C 
BRANCH  21  22
ATOM     22  S   UNL d   1      27.991 -12.652   5.738  0.00  0.00    -0.173 SA
ATOM     23  C   UNL d   1      28.930 -13.452   7.079  0.00  0.00     0.089 C 
ENDBRANCH  21  22
ENDBRANCH  20  21
ENDBRANCH  19  20
BRANCH  19  24
ATOM     24  C   UNL d   1      30.549 -14.002   2.730  0.00  0.00     0.281 C 
ATOM     25  O   UNL d   1      31.361 -13.718   3.632  0.00  0.00    -0.263 OA
BRANCH  24  26
ATOM     26  O   UNL d   1      30.904 -14.547   1.535  0.00  0.00    -0.325 OA
ATOM     27  C   UNL d   1      31.735 -15.723   1.604  0.00  0.00     0.213 C 
ENDBRANCH  24  26
ENDBRANCH  19  24
ENDBRANCH  17  19
ENDBRANCH   3  15
BRANCH   1  28
ATOM     28  C   UNL d   1      24.238 -16.890  -0.723  0.00  0.00     0.024 A 
ATOM     29  C   UNL d   1      22.873 -16.573  -0.896  0.00  0.00     0.016 A 
ATOM     30  C   UNL d   1      21.897 -17.578  -0.870  0.00  0.00     0.001 A 
ATOM     31  C   UNL d   1      22.275 -18.903  -0.670  0.00  0.00     0.003 A 
ATOM     32  C   UNL d   1      23.625 -19.218  -0.469  0.00  0.00     0.037 A 
ATOM     33  C   UNL d   1      24.616 -18.220  -0.511  0.00  0.00     0.081 A 
BRANCH  33  34
ATOM     34  O   UNL d   1      25.917 -18.654  -0.494  0.00  0.00    -0.351 OA
BRANCH  34  35
ATOM     35  C   UNL d   1      26.728 -18.185   0.588  0.00  0.00     0.171 C 
ATOM     36  C   UNL d   1      27.929 -17.465  -0.014  0.00  0.00     0.034 C 
ENDBRANCH  34  35
ENDBRANCH  33  34
ENDBRANCH   1  28
TORSDOF 10
ENDMDL
MODEL 7
REMARK VINA RESULT:    -7.745      4.723      8.480
REMARK INTER + INTRA:         -13.570
REMARK INTER:                 -10.728
REMARK INTRA:                  -2.842
REMARK CONF_INDEPENDENT:        2.983
REMARK UNBOUND:                -2.842
REMARK  10 active torsions:
REMARK  status: ('A' for Active; 'I' for Inactive)
REMARK    1  A    between atoms: C_2  and  O_3 
REMARK    2  A    between atoms: O_3  and  C_4 
REMARK    3  A    between atoms: C_9  and  C_10 
REMARK    4  A    between atoms: C_12  and  C_13 
REMARK       I    between atoms: C_13  and  N_15 
REMARK    5  A    between atoms: N_15  and  C_16 
REMARK    6  A    between atoms: C_16  and  C_17 
REMARK    7  A    between atoms: C_16  and  C_21 
REMARK    8  A    between atoms: C_17  and  C_18 
REMARK    9  A    between atoms: C_18  and  S_19 
REMARK   10  A    between atoms: C_21  and  O_23 
ROOT
ATOM      1  C   UNL d   1      27.288 -11.799   1.159  0.00  0.00     0.067 C 
ATOM      2  N   UNL d   1      27.074 -12.599   0.153  0.00  0.00    -0.245 NA
ATOM      3  C   UNL d   1      27.223 -13.938   0.429  0.00  0.00     0.121 C 
ATOM      4  C   UNL d   1      27.206 -14.445   1.692  0.00  0.00     0.025 C 
ATOM      5  C   UNL d   1      27.032 -13.554   2.922  0.00  0.00     0.033 C 
ATOM      6  C   UNL d   1      27.530 -13.825   4.171  0.00  0.00     0.046 C 
ATOM      7  C   UNL d   1      27.827 -12.807   5.363  0.00  0.00    -0.009 C 
ATOM      8  C   UNL d   1      28.880 -13.085   6.183  0.00  0.00    -0.003 C 
ATOM      9  C   UNL d   1      29.498 -14.375   6.020  0.00  0.00     0.001 C 
ATOM     10  C   UNL d   1      29.619 -14.824   4.750  0.00  0.00     0.020 C 
ATOM     11  C   UNL d   1      28.945 -13.933   3.709  0.00  0.00     0.001 C 
ATOM     12  N   UNL d   1      29.107 -12.834   3.010  0.00  0.00    -0.284 NA
ATOM     13  C   UNL d   1      27.657 -12.253   2.581  0.00  0.00     0.128 C 
ATOM     14  H   UNL d   1      29.647 -12.078   3.430  0.00  0.00     0.128 HD
ENDROOT
BRANCH   3  15
ATOM     15  C   UNL d   1      27.410 -14.924  -0.716  0.00  0.00     0.270 C 
ATOM     16  O   UNL d   1      28.233 -15.829  -0.607  0.00  0.00    -0.266 OA
ATOM     17  N   UNL d   1      26.548 -14.798  -1.783  0.00  0.00    -0.342 N 
ATOM     18  H   UNL d   1      26.011 -13.937  -1.893  0.00  0.00     0.163 HD
BRANCH  17  19
ATOM     19  C   UNL d   1      26.305 -15.880  -2.782  0.00  0.00     0.185 C 
BRANCH  19  20
ATOM     20  C   UNL d   1      25.154 -16.830  -2.350  0.00  0.00     0.045 C 
BRANCH  20  21
ATOM     21  C   UNL d   1      24.688 -16.642  -0.901  0.00  0.00     0.076 C 
BRANCH  21  22
ATOM     22  S   UNL d   1      24.706 -18.176   0.073  0.00  0.00    -0.173 SA
ATOM     23  C   UNL d   1      26.459 -18.188   0.572  0.00  0.00     0.089 C 
ENDBRANCH  21  22
ENDBRANCH  20  21
ENDBRANCH  19  20
BRANCH  19  24
ATOM     24  C   UNL d   1      25.967 -15.259  -4.164  0.00  0.00     0.281 C 
ATOM     25  O   UNL d   1      26.562 -15.575  -5.214  0.00  0.00    -0.263 OA
BRANCH  24  26
ATOM     26  O   UNL d   1      24.955 -14.351  -4.109  0.00  0.00    -0.325 OA
ATOM     27  C   UNL d   1      25.300 -13.005  -4.489  0.00  0.00     0.213 C 
ENDBRANCH  24  26
ENDBRANCH  19  24
ENDBRANCH  17  19
ENDBRANCH   3  15
BRANCH   1  28
ATOM     28  C   UNL d   1      27.044 -10.333   0.957  0.00  0.00     0.024 A 
ATOM     29  C   UNL d   1      27.189  -9.787  -0.337  0.00  0.00     0.016 A 
ATOM     30  C   UNL d   1      26.899  -8.437  -0.579  0.00  0.00     0.001 A 
ATOM     31  C   UNL d   1      26.465  -7.626   0.465  0.00  0.00     0.003 A 
ATOM     32  C   UNL d   1      26.348  -8.157   1.757  0.00  0.00     0.037 A 
ATOM     33  C   UNL d   1      26.619  -9.515   2.008  0.00  0.00     0.081 A 
BRANCH  33  34
ATOM     34  O   UNL d   1      26.292  -9.978   3.258  0.00  0.00    -0.351 OA
BRANCH  34  35
ATOM     35  C   UNL d   1      27.016  -9.411   4.354  0.00  0.00     0.171 C 
ATOM     36  C   UNL d   1      28.501  -9.517   4.031  0.00  0.00     0.034 C 
ENDBRANCH  34  35
ENDBRANCH  33  34
ENDBRANCH   1  28
TORSDOF 10
ENDMDL
MODEL 8
REMARK VINA RESULT:    -7.664      4.092      7.198
REMARK INTER + INTRA:         -13.599
REMARK INTER:                 -10.647
REMARK INTRA:                  -2.952
REMARK CONF_INDEPENDENT:        2.983
REMARK UNBOUND:                -2.952
REMARK  10 active torsions:
REMARK  status: ('A' for Active; 'I' for Inactive)
REMARK    1  A    between atoms: C_2  and  O_3 
REMARK    2  A    between atoms: O_3  and  C_4 
REMARK    3  A    between atoms: C_9  and  C_10 
REMARK    4  A    between atoms: C_12  and  C_13 
REMARK       I    between atoms: C_13  and  N_15 
REMARK    5  A    between atoms: N_15  and  C_16 
REMARK    6  A    between atoms: C_16  and  C_17 
REMARK    7  A    between atoms: C_16  and  C_21 
REMARK    8  A    between atoms: C_17  and  C_18 
REMARK    9  A    between atoms: C_18  and  S_19 
REMARK   10  A    between atoms: C_21  and  O_23 
ROOT
ATOM      1  C   UNL d   1      25.675 -15.576  -0.776  0.00  0.00     0.067 C 
ATOM      2  N   UNL d   1      26.072 -14.881   0.251  0.00  0.00    -0.245 NA
ATOM      3  C   UNL d   1      26.938 -13.853  -0.038  0.00  0.00     0.121 C 
ATOM      4  C   UNL d   1      27.085 -13.331  -1.286  0.00  0.00     0.025 C 
ATOM      5  C   UNL d   1      26.298 -13.860  -2.485  0.00  0.00     0.033 C 
ATOM      6  C   UNL d   1      26.726 -13.827  -3.788  0.00  0.00     0.046 C 
ATOM      7  C   UNL d   1      26.250 -14.734  -5.011  0.00  0.00    -0.009 C 
ATOM      8  C   UNL d   1      27.176 -15.047  -5.962  0.00  0.00    -0.003 C 
ATOM      9  C   UNL d   1      28.440 -14.362  -5.878  0.00  0.00     0.001 C 
ATOM     10  C   UNL d   1      28.932 -14.166  -4.634  0.00  0.00     0.020 C 
ATOM     11  C   UNL d   1      27.981 -14.587  -3.516  0.00  0.00     0.001 C 
ATOM     12  N   UNL d   1      27.549 -15.631  -2.847  0.00  0.00    -0.284 NA
ATOM     13  C   UNL d   1      26.086 -15.306  -2.234  0.00  0.00     0.128 C 
ATOM     14  H   UNL d   1      27.504 -16.524  -3.338  0.00  0.00     0.128 HD
ENDROOT
BRANCH   3  15
ATOM     15  C   UNL d   1      27.782 -13.247   1.075  0.00  0.00     0.270 C 
ATOM     16  O   UNL d   1      28.288 -12.140   0.917  0.00  0.00    -0.266 OA
ATOM     17  N   UNL d   1      27.836 -13.951   2.259  0.00  0.00    -0.342 N 
ATOM     18  H   UNL d   1      27.544 -14.928   2.272  0.00  0.00     0.163 HD
BRANCH  17  19
ATOM     19  C   UNL d   1      28.255 -13.351   3.559  0.00  0.00     0.185 C 
BRANCH  19  20
ATOM     20  C   UNL d   1      27.405 -12.104   3.931  0.00  0.00     0.045 C 
BRANCH  20  21
ATOM     21  C   UNL d   1      28.109 -10.763   3.689  0.00  0.00     0.076 C 
BRANCH  21  22
ATOM     22  S   UNL d   1      26.986  -9.336   3.727  0.00  0.00    -0.173 SA
ATOM     23  C   UNL d   1      26.032  -9.671   2.210  0.00  0.00     0.089 C 
ENDBRANCH  21  22
ENDBRANCH  20  21
ENDBRANCH  19  20
BRANCH  19  24
ATOM     24  C   UNL d   1      28.140 -14.406   4.691  0.00  0.00     0.281 C 
ATOM     25  O   UNL d   1      27.780 -15.583   4.488  0.00  0.00    -0.263 OA
BRANCH  24  26
ATOM     26  O   UNL d   1      28.482 -13.918   5.914  0.00  0.00    -0.325 OA
ATOM     27  C   UNL d   1      29.791 -14.286   6.392  0.00  0.00     0.213 C 
ENDBRANCH  24  26
ENDBRANCH  19  24
ENDBRANCH  17  19
ENDBRANCH   3  15
BRANCH   1  28
ATOM     28  C   UNL d   1      24.650 -16.647  -0.548  0.00  0.00     0.024 A 
ATOM     29  C   UNL d   1      23.282 -16.321  -0.661  0.00  0.00     0.016 A 
ATOM     30  C   UNL d   1      22.297 -17.309  -0.527  0.00  0.00     0.001 A 
ATOM     31  C   UNL d   1      22.671 -18.627  -0.279  0.00  0.00     0.003 A 
ATOM     32  C   UNL d   1      24.027 -18.950  -0.137  0.00  0.00     0.037 A 
ATOM     33  C   UNL d   1      25.025 -17.969  -0.287  0.00  0.00     0.081 A 
BRANCH  33  34
ATOM     34  O   UNL d   1      26.321 -18.420  -0.320  0.00  0.00    -0.351 OA
BRANCH  34  35
ATOM     35  C   UNL d   1      27.228 -17.812   0.605  0.00  0.00     0.171 C 
ATOM     36  C   UNL d   1      28.409 -17.275  -0.193  0.00  0.00     0.034 C 
ENDBRANCH  34  35
ENDBRANCH  33  34
ENDBRANCH   1  28
TORSDOF 10
ENDMDL
MODEL 9
REMARK VINA RESULT:    -7.457      3.117      7.121
REMARK INTER + INTRA:         -13.552
REMARK INTER:                 -10.440
REMARK INTRA:                  -3.112
REMARK CONF_INDEPENDENT:        2.983
REMARK UNBOUND:                -3.112
REMARK  10 active torsions:
REMARK  status: ('A' for Active; 'I' for Inactive)
REMARK    1  A    between atoms: C_2  and  O_3 
REMARK    2  A    between atoms: O_3  and  C_4 
REMARK    3  A    between atoms: C_9  and  C_10 
REMARK    4  A    between atoms: C_12  and  C_13 
REMARK       I    between atoms: C_13  and  N_15 
REMARK    5  A    between atoms: N_15  and  C_16 
REMARK    6  A    between atoms: C_16  and  C_17 
REMARK    7  A    between atoms: C_16  and  C_21 
REMARK    8  A    between atoms: C_17  and  C_18 
REMARK    9  A    between atoms: C_18  and  S_19 
REMARK   10  A    between atoms: C_21  and  O_23 
ROOT
ATOM      1  C   UNL d   1      27.601 -15.184  -3.639  0.00  0.00     0.067 C 
ATOM      2  N   UNL d   1      27.399 -13.943  -3.977  0.00  0.00    -0.245 NA
ATOM      3  C   UNL d   1      26.362 -13.320  -3.324  0.00  0.00     0.121 C 
ATOM      4  C   UNL d   1      25.830 -13.782  -2.159  0.00  0.00     0.025 C 
ATOM      5  C   UNL d   1      26.340 -15.055  -1.483  0.00  0.00     0.033 C 
ATOM      6  C   UNL d   1      25.586 -15.884  -0.691  0.00  0.00     0.046 C 
ATOM      7  C   UNL d   1      25.841 -17.419  -0.340  0.00  0.00    -0.009 C 
ATOM      8  C   UNL d   1      24.748 -18.215  -0.160  0.00  0.00    -0.003 C 
ATOM      9  C   UNL d   1      23.472 -17.550  -0.102  0.00  0.00     0.001 C 
ATOM     10  C   UNL d   1      23.300 -16.513  -0.954  0.00  0.00     0.020 C 
ATOM     11  C   UNL d   1      24.554 -16.138  -1.739  0.00  0.00     0.001 C 
ATOM     12  N   UNL d   1      25.276 -16.475  -2.782  0.00  0.00    -0.284 NA
ATOM     13  C   UNL d   1      26.794 -15.949  -2.576  0.00  0.00     0.128 C 
ATOM     14  H   UNL d   1      25.307 -17.461  -3.040  0.00  0.00     0.128 HD
ENDROOT
BRANCH   3  15
ATOM     15  C   UNL d   1      25.766 -12.045  -3.905  0.00  0.00     0.270 C 
ATOM     16  O   UNL d   1      25.156 -11.272  -3.172  0.00  0.00    -0.266 OA
ATOM     17  N   UNL d   1      26.049 -11.781  -5.228  0.00  0.00    -0.342 N 
ATOM     18  H   UNL d   1      26.407 -12.530  -5.821  0.00  0.00     0.163 HD
BRANCH  17  19
ATOM     19  C   UNL d   1      25.909 -10.433  -5.851  0.00  0.00     0.185 C 
BRANCH  19  20
ATOM     20  C   UNL d   1      26.248  -9.289  -4.854  0.00  0.00     0.045 C 
BRANCH  20  21
ATOM     21  C   UNL d   1      25.077  -8.348  -4.548  0.00  0.00     0.076 C 
BRANCH  21  22
ATOM     22  S   UNL d   1      23.734  -8.438  -5.770  0.00  0.00    -0.173 SA
ATOM     23  C   UNL d   1      22.879  -6.875  -5.383  0.00  0.00     0.089 C 
ENDBRANCH  21  22
ENDBRANCH  20  21
ENDBRANCH  19  20
BRANCH  19  24
ATOM     24  C   UNL d   1      26.834 -10.323  -7.092  0.00  0.00     0.281 C 
ATOM     25  O   UNL d   1      27.314  -9.243  -7.488  0.00  0.00    -0.263 OA
BRANCH  24  26
ATOM     26  O   UNL d   1      27.072 -11.523  -7.689  0.00  0.00    -0.325 OA
ATOM     27  C   UNL d   1      27.149 -11.502  -9.127  0.00  0.00     0.213 C 
ENDBRANCH  24  26
ENDBRANCH  19  24
ENDBRANCH  17  19
ENDBRANCH   3  15
BRANCH   1  28
ATOM     28  C   UNL d   1      28.779 -15.894  -4.237  0.00  0.00     0.024 A 
ATOM     29  C   UNL d   1      29.586 -16.701  -3.406  0.00  0.00     0.016 A 
ATOM     30  C   UNL d   1      30.651 -17.437  -3.941  0.00  0.00     0.001 A 
ATOM     31  C   UNL d   1      30.918 -17.373  -5.306  0.00  0.00     0.003 A 
ATOM     32  C   UNL d   1      30.137 -16.551  -6.129  0.00  0.00     0.037 A 
ATOM     33  C   UNL d   1      29.055 -15.821  -5.606  0.00  0.00     0.081 A 
BRANCH  33  34
ATOM     34  O   UNL d   1      28.241 -15.201  -6.520  0.00  0.00    -0.351 OA
BRANCH  34  35
ATOM     35  C   UNL d   1      28.825 -14.128  -7.266  0.00  0.00     0.171 C 
ATOM     36  C   UNL d   1      29.329 -13.093  -6.268  0.00  0.00     0.034 C 
ENDBRANCH  34  35
ENDBRANCH  33  34
ENDBRANCH   1  28
TORSDOF 10
ENDMDL
