MODEL 1
REMARK VINA RESULT:    -9.320      0.000      0.000
REMARK INTER + INTRA:         -13.034
REMARK INTER:                 -11.409
REMARK INTRA:                  -1.626
REMARK CONF_INDEPENDENT:        2.088
REMARK UNBOUND:                -1.626
REMARK  7 active torsions:
REMARK  status: ('A' for Active; 'I' for Inactive)
REMARK    1  A    between atoms: C_6  and  N_7 
REMARK       I    between atoms: N_7  and  C_8 
REMARK    2  A    between atoms: C_8  and  C_10 
REMARK    3  A    between atoms: C_10  and  N_11 
REMARK    4  A    between atoms: N_11  and  C_12 
REMARK    5  A    between atoms: C_15  and  C_16 
REMARK       I    between atoms: C_16  and  N_18 
REMARK    6  A    between atoms: N_18  and  C_19 
REMARK    7  A    between atoms: C_19  and  C_20 
ROOT
ATOM      1  C   UNL d   1      26.237 -16.180  -0.381  0.00  0.00     0.028 A 
ATOM      2  C   UNL d   1      25.176 -15.656  -1.129  0.00  0.00     0.030 A 
ATOM      3  C   UNL d   1      24.016 -16.405  -1.358  0.00  0.00     0.019 A 
ATOM      4  C   UNL d   1      23.914 -17.713  -0.861  0.00  0.00     0.032 A 
ATOM      5  C   UNL d   1      24.934 -18.201  -0.043  0.00  0.00     0.019 A 
ATOM      6  C   UNL d   1      26.074 -17.434   0.202  0.00  0.00     0.030 A 
ENDROOT
BRANCH   1   7
ATOM      7  N   UNL d   1      27.387 -15.425  -0.260  0.00  0.00    -0.381 N 
ATOM      8  H   UNL d   1      27.231 -14.431  -0.479  0.00  0.00     0.160 HD
BRANCH   7   9
ATOM      9  C   UNL d   1      28.351 -15.584   0.849  0.00  0.00     0.223 C 
BRANCH   9  10
ATOM     10  C   UNL d   1      27.992 -14.531   1.902  0.00  0.00     0.239 C 
ATOM     11  N   UNL d   1      28.784 -14.448   3.052  0.00  0.00    -0.325 N 
ATOM     12  H   UNL d   1      29.366 -15.253   3.242  0.00  0.00     0.169 HD
ATOM     13  O   UNL d   1      26.973 -13.883   1.643  0.00  0.00    -0.271 OA
BRANCH  11  14
ATOM     14  C   UNL d   1      28.779 -13.430   4.090  0.00  0.00     0.046 A 
ATOM     15  C   UNL d   1      28.489 -13.786   5.443  0.00  0.00    -0.034 A 
ATOM     16  C   UNL d   1      28.519 -12.794   6.474  0.00  0.00     0.015 A 
ATOM     17  C   UNL d   1      28.155 -15.202   5.850  0.00  0.00     0.050 C 
ATOM     18  C   UNL d   1      28.810 -11.457   6.190  0.00  0.00    -0.061 A 
ATOM     19  C   UNL d   1      28.905 -10.348   7.193  0.00  0.00     0.048 C 
ATOM     20  C   UNL d   1      29.092 -11.118   4.880  0.00  0.00     0.015 A 
ATOM     21  C   UNL d   1      29.130 -12.080   3.862  0.00  0.00    -0.034 A 
ATOM     22  C   UNL d   1      29.662 -11.550   2.577  0.00  0.00     0.050 C 
ENDBRANCH  11  14
ENDBRANCH   9  10
ENDBRANCH   7   9
ENDBRANCH   1   7
BRANCH   4  23
ATOM     23  C   UNL d   1      22.745 -18.553  -1.276  0.00  0.00     0.251 C 
ATOM     24  O   UNL d   1      22.874 -19.383  -2.154  0.00  0.00    -0.268 OA
ATOM     25  N   UNL d   1      21.547 -18.366  -0.596  0.00  0.00    -0.351 N 
ATOM     26  H   UNL d   1      21.440 -17.725   0.171  0.00  0.00     0.163 HD
BRANCH  25  27
ATOM     27  C   UNL d   1      20.412 -19.193  -0.918  0.00  0.00     0.187 C 
BRANCH  27  28
ATOM     28  C   UNL d   1      19.791 -19.826   0.278  0.00  0.00     0.070 A 
ATOM     29  C   UNL d   1      20.003 -19.586   1.622  0.00  0.00     0.036 A 
ATOM     30  C   UNL d   1      19.148 -20.453   2.334  0.00  0.00     0.027 A 
ATOM     31  C   UNL d   1      18.451 -21.164   1.386  0.00  0.00     0.142 A 
ATOM     32  O   UNL d   1      18.831 -20.792   0.128  0.00  0.00    -0.325 OA
ENDBRANCH  27  28
ENDBRANCH  25  27
ENDBRANCH   4  23
TORSDOF 7
ENDMDL
MODEL 2
REMARK VINA RESULT:    -8.999      0.674      1.805
REMARK INTER + INTRA:         -13.045
REMARK INTER:                 -11.087
REMARK INTRA:                  -1.959
REMARK CONF_INDEPENDENT:        2.088
REMARK UNBOUND:                -1.959
REMARK  7 active torsions:
REMARK  status: ('A' for Active; 'I' for Inactive)
REMARK    1  A    between atoms: C_6  and  N_7 
REMARK       I    between atoms: N_7  and  C_8 
REMARK    2  A    between atoms: C_8  and  C_10 
REMARK    3  A    between atoms: C_10  and  N_11 
REMARK    4  A    between atoms: N_11  and  C_12 
REMARK    5  A    between atoms: C_15  and  C_16 
REMARK       I    between atoms: C_16  and  N_18 
REMARK    6  A    between atoms: N_18  and  C_19 
REMARK    7  A    between atoms: C_19  and  C_20 
ROOT
ATOM      1  C   UNL d   1      26.436 -16.204  -0.676  0.00  0.00     0.028 A 
ATOM      2  C   UNL d   1      25.381 -15.727  -1.462  0.00  0.00     0.030 A 
ATOM      3  C   UNL d   1      24.200 -16.465  -1.608  0.00  0.00     0.019 A 
ATOM      4  C   UNL d   1      24.070 -17.715  -0.985  0.00  0.00     0.032 A 
ATOM      5  C   UNL d   1      25.086 -18.147  -0.131  0.00  0.00     0.019 A 
ATOM      6  C   UNL d   1      26.248 -17.391   0.028  0.00  0.00     0.030 A 
ENDROOT
BRANCH   1   7
ATOM      7  N   UNL d   1      27.606 -15.471  -0.639  0.00  0.00    -0.381 N 
ATOM      8  H   UNL d   1      27.461 -14.484  -0.890  0.00  0.00     0.160 HD
BRANCH   7   9
ATOM      9  C   UNL d   1      28.618 -15.609   0.430  0.00  0.00     0.223 C 
BRANCH   9  10
ATOM     10  C   UNL d   1      28.252 -14.595   1.519  0.00  0.00     0.239 C 
ATOM     11  N   UNL d   1      29.036 -14.555   2.677  0.00  0.00    -0.325 N 
ATOM     12  H   UNL d   1      29.617 -15.366   2.841  0.00  0.00     0.169 HD
ATOM     13  O   UNL d   1      27.235 -13.937   1.277  0.00  0.00    -0.271 OA
BRANCH  11  14
ATOM     14  C   UNL d   1      29.024 -13.575   3.751  0.00  0.00     0.046 A 
ATOM     15  C   UNL d   1      29.293 -12.201   3.472  0.00  0.00    -0.034 A 
ATOM     16  C   UNL d   1      29.246 -11.227   4.520  0.00  0.00     0.015 A 
ATOM     17  C   UNL d   1      29.620 -11.710   2.081  0.00  0.00     0.050 C 
ATOM     18  C   UNL d   1      28.959 -11.590   5.839  0.00  0.00    -0.061 A 
ATOM     19  C   UNL d   1      28.849 -10.652   7.002  0.00  0.00     0.048 C 
ATOM     20  C   UNL d   1      28.698 -12.921   6.103  0.00  0.00     0.015 A 
ATOM     21  C   UNL d   1      28.676 -13.884   5.086  0.00  0.00    -0.034 A 
ATOM     22  C   UNL d   1      28.165 -15.205   5.543  0.00  0.00     0.050 C 
ENDBRANCH  11  14
ENDBRANCH   9  10
ENDBRANCH   7   9
ENDBRANCH   1   7
BRANCH   4  23
ATOM     23  C   UNL d   1      22.876 -18.560  -1.306  0.00  0.00     0.251 C 
ATOM     24  O   UNL d   1      22.908 -19.327  -2.249  0.00  0.00    -0.268 OA
ATOM     25  N   UNL d   1      21.770 -18.454  -0.469  0.00  0.00    -0.351 N 
ATOM     26  H   UNL d   1      21.748 -17.868   0.347  0.00  0.00     0.163 HD
BRANCH  25  27
ATOM     27  C   UNL d   1      20.621 -19.291  -0.703  0.00  0.00     0.187 C 
BRANCH  27  28
ATOM     28  C   UNL d   1      20.006 -19.803   0.553  0.00  0.00     0.070 A 
ATOM     29  C   UNL d   1      18.935 -20.656   0.735  0.00  0.00     0.036 A 
ATOM     30  C   UNL d   1      18.774 -20.824   2.127  0.00  0.00     0.027 A 
ATOM     31  C   UNL d   1      19.765 -20.074   2.717  0.00  0.00     0.142 A 
ATOM     32  O   UNL d   1      20.524 -19.447   1.771  0.00  0.00    -0.325 OA
ENDBRANCH  27  28
ENDBRANCH  25  27
ENDBRANCH   4  23
TORSDOF 7
ENDMDL
MODEL 3
REMARK VINA RESULT:    -8.904      4.646      6.493
REMARK INTER + INTRA:         -12.272
REMARK INTER:                 -10.992
REMARK INTRA:                  -1.280
REMARK CONF_INDEPENDENT:        2.088
REMARK UNBOUND:                -1.280
REMARK  7 active torsions:
REMARK  status: ('A' for Active; 'I' for Inactive)
REMARK    1  A    between atoms: C_6  and  N_7 
REMARK       I    between atoms: N_7  and  C_8 
REMARK    2  A    between atoms: C_8  and  C_10 
REMARK    3  A    between atoms: C_10  and  N_11 
REMARK    4  A    between atoms: N_11  and  C_12 
REMARK    5  A    between atoms: C_15  and  C_16 
REMARK       I    between atoms: C_16  and  N_18 
REMARK    6  A    between atoms: N_18  and  C_19 
REMARK    7  A    between atoms: C_19  and  C_20 
ROOT
ATOM      1  C   UNL d   1      26.392 -17.073  -0.255  0.00  0.00     0.028 A 
ATOM      2  C   UNL d   1      25.719 -18.051   0.487  0.00  0.00     0.030 A 
ATOM      3  C   UNL d   1      24.368 -18.333   0.250  0.00  0.00     0.019 A 
ATOM      4  C   UNL d   1      23.660 -17.613  -0.723  0.00  0.00     0.032 A 
ATOM      5  C   UNL d   1      24.353 -16.702  -1.520  0.00  0.00     0.019 A 
ATOM      6  C   UNL d   1      25.707 -16.448  -1.293  0.00  0.00     0.030 A 
ENDROOT
BRANCH   1   7
ATOM      7  N   UNL d   1      27.699 -16.782   0.082  0.00  0.00    -0.381 N 
ATOM      8  H   UNL d   1      27.822 -16.632   1.093  0.00  0.00     0.160 HD
BRANCH   7   9
ATOM      9  C   UNL d   1      28.864 -17.481  -0.501  0.00  0.00     0.223 C 
BRANCH   9  10
ATOM     10  C   UNL d   1      29.289 -16.680  -1.735  0.00  0.00     0.239 C 
ATOM     11  N   UNL d   1      28.357 -16.498  -2.761  0.00  0.00    -0.325 N 
ATOM     12  H   UNL d   1      27.564 -17.126  -2.748  0.00  0.00     0.169 HD
ATOM     13  O   UNL d   1      30.470 -16.316  -1.719  0.00  0.00    -0.271 OA
BRANCH  11  14
ATOM     14  C   UNL d   1      28.440 -15.631  -3.925  0.00  0.00     0.046 A 
ATOM     15  C   UNL d   1      29.349 -15.936  -4.983  0.00  0.00    -0.034 A 
ATOM     16  C   UNL d   1      29.409 -15.107  -6.148  0.00  0.00     0.015 A 
ATOM     17  C   UNL d   1      30.269 -17.134  -4.936  0.00  0.00     0.050 C 
ATOM     18  C   UNL d   1      28.601 -13.973  -6.275  0.00  0.00    -0.061 A 
ATOM     19  C   UNL d   1      28.555 -13.059  -7.462  0.00  0.00     0.048 C 
ATOM     20  C   UNL d   1      27.721 -13.683  -5.250  0.00  0.00     0.015 A 
ATOM     21  C   UNL d   1      27.599 -14.513  -4.128  0.00  0.00    -0.034 A 
ATOM     22  C   UNL d   1      26.453 -14.147  -3.252  0.00  0.00     0.050 C 
ENDBRANCH  11  14
ENDBRANCH   9  10
ENDBRANCH   7   9
ENDBRANCH   1   7
BRANCH   4  23
ATOM     23  C   UNL d   1      22.178 -17.807  -0.827  0.00  0.00     0.251 C 
ATOM     24  O   UNL d   1      21.441 -16.843  -0.889  0.00  0.00    -0.268 OA
ATOM     25  N   UNL d   1      21.704 -19.113  -0.884  0.00  0.00    -0.351 N 
ATOM     26  H   UNL d   1      22.304 -19.919  -0.891  0.00  0.00     0.163 HD
BRANCH  25  27
ATOM     27  C   UNL d   1      20.292 -19.349  -1.045  0.00  0.00     0.187 C 
BRANCH  27  28
ATOM     28  C   UNL d   1      19.648 -19.904   0.177  0.00  0.00     0.070 A 
ATOM     29  C   UNL d   1      19.966 -19.724   1.509  0.00  0.00     0.036 A 
ATOM     30  C   UNL d   1      19.031 -20.466   2.260  0.00  0.00     0.027 A 
ATOM     31  C   UNL d   1      18.185 -21.048   1.345  0.00  0.00     0.142 A 
ATOM     32  O   UNL d   1      18.547 -20.713   0.072  0.00  0.00    -0.325 OA
ENDBRANCH  27  28
ENDBRANCH  25  27
ENDBRANCH   4  23
TORSDOF 7
ENDMDL
MODEL 4
REMARK VINA RESULT:    -8.902      4.011      5.648
REMARK INTER + INTRA:         -12.630
REMARK INTER:                 -10.990
REMARK INTRA:                  -1.640
REMARK CONF_INDEPENDENT:        2.088
REMARK UNBOUND:                -1.640
REMARK  7 active torsions:
REMARK  status: ('A' for Active; 'I' for Inactive)
REMARK    1  A    between atoms: C_6  and  N_7 
REMARK       I    between atoms: N_7  and  C_8 
REMARK    2  A    between atoms: C_8  and  C_10 
REMARK    3  A    between atoms: C_10  and  N_11 
REMARK    4  A    between atoms: N_11  and  C_12 
REMARK    5  A    between atoms: C_15  and  C_16 
REMARK       I    between atoms: C_16  and  N_18 
REMARK    6  A    between atoms: N_18  and  C_19 
REMARK    7  A    between atoms: C_19  and  C_20 
ROOT
ATOM      1  C   UNL d   1      26.558 -16.685   0.081  0.00  0.00     0.028 A 
ATOM      2  C   UNL d   1      25.525 -15.930  -0.485  0.00  0.00     0.030 A 
ATOM      3  C   UNL d   1      24.285 -16.511  -0.778  0.00  0.00     0.019 A 
ATOM      4  C   UNL d   1      24.073 -17.876  -0.532  0.00  0.00     0.032 A 
ATOM      5  C   UNL d   1      25.073 -18.605   0.113  0.00  0.00     0.019 A 
ATOM      6  C   UNL d   1      26.295 -18.008   0.426  0.00  0.00     0.030 A 
ENDROOT
BRANCH   1   7
ATOM      7  N   UNL d   1      27.784 -16.076   0.269  0.00  0.00    -0.381 N 
ATOM      8  H   UNL d   1      28.160 -16.231   1.214  0.00  0.00     0.160 HD
BRANCH   7   9
ATOM      9  C   UNL d   1      28.861 -16.086  -0.743  0.00  0.00     0.223 C 
BRANCH   9  10
ATOM     10  C   UNL d   1      28.307 -15.381  -1.985  0.00  0.00     0.239 C 
ATOM     11  N   UNL d   1      27.516 -14.241  -1.804  0.00  0.00    -0.325 N 
ATOM     12  H   UNL d   1      27.139 -14.114  -0.874  0.00  0.00     0.169 HD
ATOM     13  O   UNL d   1      28.579 -15.944  -3.050  0.00  0.00    -0.271 OA
BRANCH  11  14
ATOM     14  C   UNL d   1      27.042 -13.293  -2.798  0.00  0.00     0.046 A 
ATOM     15  C   UNL d   1      26.268 -13.746  -3.910  0.00  0.00    -0.034 A 
ATOM     16  C   UNL d   1      25.767 -12.812  -4.872  0.00  0.00     0.015 A 
ATOM     17  C   UNL d   1      25.932 -15.205  -4.117  0.00  0.00     0.050 C 
ATOM     18  C   UNL d   1      26.035 -11.444  -4.766  0.00  0.00    -0.061 A 
ATOM     19  C   UNL d   1      25.532 -10.379  -5.691  0.00  0.00     0.048 C 
ATOM     20  C   UNL d   1      26.782 -11.011  -3.687  0.00  0.00     0.015 A 
ATOM     21  C   UNL d   1      27.232 -11.896  -2.698  0.00  0.00    -0.034 A 
ATOM     22  C   UNL d   1      27.826 -11.205  -1.522  0.00  0.00     0.050 C 
ENDBRANCH  11  14
ENDBRANCH   9  10
ENDBRANCH   7   9
ENDBRANCH   1   7
BRANCH   4  23
ATOM     23  C   UNL d   1      22.807 -18.509  -1.023  0.00  0.00     0.251 C 
ATOM     24  O   UNL d   1      22.815 -19.179  -2.037  0.00  0.00    -0.268 OA
ATOM     25  N   UNL d   1      21.659 -18.326  -0.259  0.00  0.00    -0.351 N 
ATOM     26  H   UNL d   1      21.648 -17.824   0.611  0.00  0.00     0.163 HD
BRANCH  25  27
ATOM     27  C   UNL d   1      20.432 -18.966  -0.659  0.00  0.00     0.187 C 
BRANCH  27  28
ATOM     28  C   UNL d   1      19.781 -19.724   0.445  0.00  0.00     0.070 A 
ATOM     29  C   UNL d   1      18.768 -20.663   0.403  0.00  0.00     0.036 A 
ATOM     30  C   UNL d   1      18.536 -21.077   1.731  0.00  0.00     0.027 A 
ATOM     31  C   UNL d   1      19.429 -20.379   2.509  0.00  0.00     0.142 A 
ATOM     32  O   UNL d   1      20.195 -19.552   1.740  0.00  0.00    -0.325 OA
ENDBRANCH  27  28
ENDBRANCH  25  27
ENDBRANCH   4  23
TORSDOF 7
ENDMDL
MODEL 5
REMARK VINA RESULT:    -8.709      4.302      6.288
REMARK INTER + INTRA:         -12.537
REMARK INTER:                 -10.797
REMARK INTRA:                  -1.740
REMARK CONF_INDEPENDENT:        2.088
REMARK UNBOUND:                -1.740
REMARK  7 active torsions:
REMARK  status: ('A' for Active; 'I' for Inactive)
REMARK    1  A    between atoms: C_6  and  N_7 
REMARK       I    between atoms: N_7  and  C_8 
REMARK    2  A    between atoms: C_8  and  C_10 
REMARK    3  A    between atoms: C_10  and  N_11 
REMARK    4  A    between atoms: N_11  and  C_12 
REMARK    5  A    between atoms: C_15  and  C_16 
REMARK       I    between atoms: C_16  and  N_18 
REMARK    6  A    between atoms: N_18  and  C_19 
REMARK    7  A    between atoms: C_19  and  C_20 
ROOT
ATOM      1  C   UNL d   1      26.704 -16.763   0.131  0.00  0.00     0.028 A 
ATOM      2  C   UNL d   1      25.762 -16.001  -0.569  0.00  0.00     0.030 A 
ATOM      3  C   UNL d   1      24.507 -16.528  -0.895  0.00  0.00     0.019 A 
ATOM      4  C   UNL d   1      24.186 -17.848  -0.543  0.00  0.00     0.032 A 
ATOM      5  C   UNL d   1      25.091 -18.575   0.231  0.00  0.00     0.019 A 
ATOM      6  C   UNL d   1      26.329 -18.029   0.573  0.00  0.00     0.030 A 
ENDROOT
BRANCH   1   7
ATOM      7  N   UNL d   1      27.954 -16.217   0.349  0.00  0.00    -0.381 N 
ATOM      8  H   UNL d   1      28.068 -15.862   1.308  0.00  0.00     0.160 HD
BRANCH   7   9
ATOM      9  C   UNL d   1      29.206 -16.828  -0.147  0.00  0.00     0.223 C 
BRANCH   9  10
ATOM     10  C   UNL d   1      29.213 -16.650  -1.668  0.00  0.00     0.239 C 
ATOM     11  N   UNL d   1      28.479 -15.592  -2.215  0.00  0.00    -0.325 N 
ATOM     12  H   UNL d   1      27.782 -15.182  -1.608  0.00  0.00     0.169 HD
ATOM     13  O   UNL d   1      29.839 -17.523  -2.277  0.00  0.00    -0.271 OA
BRANCH  11  14
ATOM     14  C   UNL d   1      28.478 -15.094  -3.581  0.00  0.00     0.046 A 
ATOM     15  C   UNL d   1      27.244 -14.891  -4.270  0.00  0.00    -0.034 A 
ATOM     16  C   UNL d   1      27.236 -14.366  -5.601  0.00  0.00     0.015 A 
ATOM     17  C   UNL d   1      25.907 -15.200  -3.637  0.00  0.00     0.050 C 
ATOM     18  C   UNL d   1      28.425 -14.058  -6.269  0.00  0.00    -0.061 A 
ATOM     19  C   UNL d   1      28.530 -13.472  -7.644  0.00  0.00     0.048 C 
ATOM     20  C   UNL d   1      29.616 -14.255  -5.598  0.00  0.00     0.015 A 
ATOM     21  C   UNL d   1      29.650 -14.708  -4.273  0.00  0.00    -0.034 A 
ATOM     22  C   UNL d   1      31.007 -14.644  -3.667  0.00  0.00     0.050 C 
ENDBRANCH  11  14
ENDBRANCH   9  10
ENDBRANCH   7   9
ENDBRANCH   1   7
BRANCH   4  23
ATOM     23  C   UNL d   1      22.913 -18.443  -1.063  0.00  0.00     0.251 C 
ATOM     24  O   UNL d   1      22.913 -19.063  -2.108  0.00  0.00    -0.268 OA
ATOM     25  N   UNL d   1      21.768 -18.286  -0.289  0.00  0.00    -0.351 N 
ATOM     26  H   UNL d   1      21.764 -17.827   0.605  0.00  0.00     0.163 HD
BRANCH  25  27
ATOM     27  C   UNL d   1      20.534 -18.893  -0.717  0.00  0.00     0.187 C 
BRANCH  27  28
ATOM     28  C   UNL d   1      19.831 -19.622   0.374  0.00  0.00     0.070 A 
ATOM     29  C   UNL d   1      18.853 -20.596   0.307  0.00  0.00     0.036 A 
ATOM     30  C   UNL d   1      18.540 -20.957   1.635  0.00  0.00     0.027 A 
ATOM     31  C   UNL d   1      19.354 -20.192   2.438  0.00  0.00     0.142 A 
ATOM     32  O   UNL d   1      20.146 -19.375   1.685  0.00  0.00    -0.325 OA
ENDBRANCH  27  28
ENDBRANCH  25  27
ENDBRANCH   4  23
TORSDOF 7
ENDMDL
MODEL 6
REMARK VINA RESULT:    -8.505      4.144      7.011
REMARK INTER + INTRA:         -12.161
REMARK INTER:                 -10.593
REMARK INTRA:                  -1.568
REMARK CONF_INDEPENDENT:        2.088
REMARK UNBOUND:                -1.568
REMARK  7 active torsions:
REMARK  status: ('A' for Active; 'I' for Inactive)
REMARK    1  A    between atoms: C_6  and  N_7 
REMARK       I    between atoms: N_7  and  C_8 
REMARK    2  A    between atoms: C_8  and  C_10 
REMARK    3  A    between atoms: C_10  and  N_11 
REMARK    4  A    between atoms: N_11  and  C_12 
REMARK    5  A    between atoms: C_15  and  C_16 
REMARK       I    between atoms: C_16  and  N_18 
REMARK    6  A    between atoms: N_18  and  C_19 
REMARK    7  A    between atoms: C_19  and  C_20 
ROOT
ATOM      1  C   UNL d   1      26.595 -17.152  -0.080  0.00  0.00     0.028 A 
ATOM      2  C   UNL d   1      25.904 -18.205   0.532  0.00  0.00     0.030 A 
ATOM      3  C   UNL d   1      24.560 -18.457   0.231  0.00  0.00     0.019 A 
ATOM      4  C   UNL d   1      23.876 -17.631  -0.674  0.00  0.00     0.032 A 
ATOM      5  C   UNL d   1      24.589 -16.639  -1.348  0.00  0.00     0.019 A 
ATOM      6  C   UNL d   1      25.936 -16.415  -1.060  0.00  0.00     0.030 A 
ENDROOT
BRANCH   1   7
ATOM      7  N   UNL d   1      27.893 -16.903   0.321  0.00  0.00    -0.381 N 
ATOM      8  H   UNL d   1      28.399 -17.762   0.577  0.00  0.00     0.160 HD
BRANCH   7   9
ATOM      9  C   UNL d   1      28.785 -15.942  -0.363  0.00  0.00     0.223 C 
BRANCH   9  10
ATOM     10  C   UNL d   1      29.281 -16.628  -1.639  0.00  0.00     0.239 C 
ATOM     11  N   UNL d   1      29.380 -15.865  -2.807  0.00  0.00    -0.325 N 
ATOM     12  H   UNL d   1      28.868 -14.993  -2.804  0.00  0.00     0.169 HD
ATOM     13  O   UNL d   1      29.494 -17.839  -1.512  0.00  0.00    -0.271 OA
BRANCH  11  14
ATOM     14  C   UNL d   1      29.996 -16.217  -4.076  0.00  0.00     0.046 A 
ATOM     15  C   UNL d   1      29.345 -15.890  -5.304  0.00  0.00    -0.034 A 
ATOM     16  C   UNL d   1      29.964 -16.200  -6.557  0.00  0.00     0.015 A 
ATOM     17  C   UNL d   1      28.001 -15.200  -5.346  0.00  0.00     0.050 C 
ATOM     18  C   UNL d   1      31.203 -16.845  -6.615  0.00  0.00    -0.061 A 
ATOM     19  C   UNL d   1      31.956 -17.183  -7.866  0.00  0.00     0.048 C 
ATOM     20  C   UNL d   1      31.829 -17.157  -5.424  0.00  0.00     0.015 A 
ATOM     21  C   UNL d   1      31.275 -16.809  -4.186  0.00  0.00    -0.034 A 
ATOM     22  C   UNL d   1      32.202 -17.038  -3.045  0.00  0.00     0.050 C 
ENDBRANCH  11  14
ENDBRANCH   9  10
ENDBRANCH   7   9
ENDBRANCH   1   7
BRANCH   4  23
ATOM     23  C   UNL d   1      22.398 -17.810  -0.837  0.00  0.00     0.251 C 
ATOM     24  O   UNL d   1      21.670 -16.838  -0.896  0.00  0.00    -0.268 OA
ATOM     25  N   UNL d   1      21.917 -19.109  -0.952  0.00  0.00    -0.351 N 
ATOM     26  H   UNL d   1      22.511 -19.920  -0.962  0.00  0.00     0.163 HD
BRANCH  25  27
ATOM     27  C   UNL d   1      20.510 -19.328  -1.170  0.00  0.00     0.187 C 
BRANCH  27  28
ATOM     28  C   UNL d   1      19.810 -19.875   0.025  0.00  0.00     0.070 A 
ATOM     29  C   UNL d   1      20.112 -19.748   1.367  0.00  0.00     0.036 A 
ATOM     30  C   UNL d   1      19.119 -20.453   2.080  0.00  0.00     0.027 A 
ATOM     31  C   UNL d   1      18.259 -20.959   1.134  0.00  0.00     0.142 A 
ATOM     32  O   UNL d   1      18.665 -20.614  -0.122  0.00  0.00    -0.325 OA
ENDBRANCH  27  28
ENDBRANCH  25  27
ENDBRANCH   4  23
TORSDOF 7
ENDMDL
MODEL 7
REMARK VINA RESULT:    -8.316      4.540      7.482
REMARK INTER + INTRA:         -12.273
REMARK INTER:                 -10.404
REMARK INTRA:                  -1.869
REMARK CONF_INDEPENDENT:        2.088
REMARK UNBOUND:                -1.869
REMARK  7 active torsions:
REMARK  status: ('A' for Active; 'I' for Inactive)
REMARK    1  A    between atoms: C_6  and  N_7 
REMARK       I    between atoms: N_7  and  C_8 
REMARK    2  A    between atoms: C_8  and  C_10 
REMARK    3  A    between atoms: C_10  and  N_11 
REMARK    4  A    between atoms: N_11  and  C_12 
REMARK    5  A    between atoms: C_15  and  C_16 
REMARK       I    between atoms: C_16  and  N_18 
REMARK    6  A    between atoms: N_18  and  C_19 
REMARK    7  A    between atoms: C_19  and  C_20 
ROOT
ATOM      1  C   UNL d   1      26.316 -14.256  -2.398  0.00  0.00     0.028 A 
ATOM      2  C   UNL d   1      25.394 -15.079  -3.056  0.00  0.00     0.030 A 
ATOM      3  C   UNL d   1      24.815 -16.175  -2.406  0.00  0.00     0.019 A 
ATOM      4  C   UNL d   1      25.177 -16.482  -1.086  0.00  0.00     0.032 A 
ATOM      5  C   UNL d   1      26.028 -15.611  -0.404  0.00  0.00     0.019 A 
ATOM      6  C   UNL d   1      26.578 -14.504  -1.054  0.00  0.00     0.030 A 
ENDROOT
BRANCH   1   7
ATOM      7  N   UNL d   1      26.915 -13.241  -3.118  0.00  0.00    -0.381 N 
ATOM      8  H   UNL d   1      27.824 -12.960  -2.724  0.00  0.00     0.160 HD
BRANCH   7   9
ATOM      9  C   UNL d   1      26.937 -13.194  -4.595  0.00  0.00     0.223 C 
BRANCH   9  10
ATOM     10  C   UNL d   1      27.533 -14.522  -5.072  0.00  0.00     0.239 C 
ATOM     11  N   UNL d   1      28.872 -14.794  -4.769  0.00  0.00    -0.325 N 
ATOM     12  H   UNL d   1      29.430 -13.996  -4.498  0.00  0.00     0.169 HD
ATOM     13  O   UNL d   1      26.760 -15.211  -5.745  0.00  0.00    -0.271 OA
BRANCH  11  14
ATOM     14  C   UNL d   1      29.608 -16.038  -4.929  0.00  0.00     0.046 A 
ATOM     15  C   UNL d   1      30.348 -16.284  -6.125  0.00  0.00    -0.034 A 
ATOM     16  C   UNL d   1      31.104 -17.490  -6.273  0.00  0.00     0.015 A 
ATOM     17  C   UNL d   1      30.382 -15.299  -7.270  0.00  0.00     0.050 C 
ATOM     18  C   UNL d   1      31.125 -18.463  -5.269  0.00  0.00    -0.061 A 
ATOM     19  C   UNL d   1      31.909 -19.740  -5.303  0.00  0.00     0.048 C 
ATOM     20  C   UNL d   1      30.409 -18.219  -4.113  0.00  0.00     0.015 A 
ATOM     21  C   UNL d   1      29.711 -17.020  -3.918  0.00  0.00    -0.034 A 
ATOM     22  C   UNL d   1      29.192 -16.865  -2.532  0.00  0.00     0.050 C 
ENDBRANCH  11  14
ENDBRANCH   9  10
ENDBRANCH   7   9
ENDBRANCH   1   7
BRANCH   4  23
ATOM     23  C   UNL d   1      24.684 -17.760  -0.481  0.00  0.00     0.251 C 
ATOM     24  O   UNL d   1      25.411 -18.412   0.242  0.00  0.00    -0.268 OA
ATOM     25  N   UNL d   1      23.373 -18.135  -0.753  0.00  0.00    -0.351 N 
ATOM     26  H   UNL d   1      22.741 -17.579  -1.302  0.00  0.00     0.163 HD
BRANCH  25  27
ATOM     27  C   UNL d   1      22.835 -19.325  -0.145  0.00  0.00     0.187 C 
BRANCH  27  28
ATOM     28  C   UNL d   1      21.347 -19.385  -0.192  0.00  0.00     0.070 A 
ATOM     29  C   UNL d   1      20.461 -20.101   0.589  0.00  0.00     0.036 A 
ATOM     30  C   UNL d   1      19.164 -19.788   0.132  0.00  0.00     0.027 A 
ATOM     31  C   UNL d   1      19.330 -18.888  -0.895  0.00  0.00     0.142 A 
ATOM     32  O   UNL d   1      20.654 -18.631  -1.103  0.00  0.00    -0.325 OA
ENDBRANCH  27  28
ENDBRANCH  25  27
ENDBRANCH   4  23
TORSDOF 7
ENDMDL
MODEL 8
REMARK VINA RESULT:    -7.997      3.233     10.206
REMARK INTER + INTRA:         -11.749
REMARK INTER:                 -10.085
REMARK INTRA:                  -1.664
REMARK CONF_INDEPENDENT:        2.088
REMARK UNBOUND:                -1.664
REMARK  7 active torsions:
REMARK  status: ('A' for Active; 'I' for Inactive)
REMARK    1  A    between atoms: C_6  and  N_7 
REMARK       I    between atoms: N_7  and  C_8 
REMARK    2  A    between atoms: C_8  and  C_10 
REMARK    3  A    between atoms: C_10  and  N_11 
REMARK    4  A    between atoms: N_11  and  C_12 
REMARK    5  A    between atoms: C_15  and  C_16 
REMARK       I    between atoms: C_16  and  N_18 
REMARK    6  A    between atoms: N_18  and  C_19 
REMARK    7  A    between atoms: C_19  and  C_20 
ROOT
ATOM      1  C   UNL d   1      29.107 -14.261   3.029  0.00  0.00     0.028 A 
ATOM      2  C   UNL d   1      28.091 -14.828   3.807  0.00  0.00     0.030 A 
ATOM      3  C   UNL d   1      27.836 -14.370   5.105  0.00  0.00     0.019 A 
ATOM      4  C   UNL d   1      28.622 -13.347   5.656  0.00  0.00     0.032 A 
ATOM      5  C   UNL d   1      29.574 -12.724   4.849  0.00  0.00     0.019 A 
ATOM      6  C   UNL d   1      29.801 -13.171   3.546  0.00  0.00     0.030 A 
ENDROOT
BRANCH   1   7
ATOM      7  N   UNL d   1      29.364 -14.812   1.788  0.00  0.00    -0.381 N 
ATOM      8  H   UNL d   1      29.262 -15.836   1.782  0.00  0.00     0.160 HD
BRANCH   7   9
ATOM      9  C   UNL d   1      28.889 -14.219   0.521  0.00  0.00     0.223 C 
BRANCH   9  10
ATOM     10  C   UNL d   1      27.434 -14.663   0.343  0.00  0.00     0.239 C 
ATOM     11  N   UNL d   1      27.184 -15.861  -0.334  0.00  0.00    -0.325 N 
ATOM     12  H   UNL d   1      27.949 -16.216  -0.893  0.00  0.00     0.169 HD
ATOM     13  O   UNL d   1      26.603 -13.860   0.780  0.00  0.00    -0.271 OA
BRANCH  11  14
ATOM     14  C   UNL d   1      25.934 -16.592  -0.463  0.00  0.00     0.046 A 
ATOM     15  C   UNL d   1      24.918 -16.125  -1.352  0.00  0.00    -0.034 A 
ATOM     16  C   UNL d   1      23.701 -16.861  -1.511  0.00  0.00     0.015 A 
ATOM     17  C   UNL d   1      25.078 -14.863  -2.167  0.00  0.00     0.050 C 
ATOM     18  C   UNL d   1      23.462 -18.036  -0.791  0.00  0.00    -0.061 A 
ATOM     19  C   UNL d   1      22.244 -18.901  -0.907  0.00  0.00     0.048 C 
ATOM     20  C   UNL d   1      24.449 -18.484   0.066  0.00  0.00     0.015 A 
ATOM     21  C   UNL d   1      25.674 -17.817   0.193  0.00  0.00    -0.034 A 
ATOM     22  C   UNL d   1      26.672 -18.576   0.994  0.00  0.00     0.050 C 
ENDBRANCH  11  14
ENDBRANCH   9  10
ENDBRANCH   7   9
ENDBRANCH   1   7
BRANCH   4  23
ATOM     23  C   UNL d   1      28.449 -13.005   7.104  0.00  0.00     0.251 C 
ATOM     24  O   UNL d   1      27.920 -11.958   7.423  0.00  0.00    -0.268 OA
ATOM     25  N   UNL d   1      28.878 -13.939   8.040  0.00  0.00    -0.351 N 
ATOM     26  H   UNL d   1      29.264 -14.834   7.792  0.00  0.00     0.163 HD
BRANCH  25  27
ATOM     27  C   UNL d   1      28.677 -13.682   9.443  0.00  0.00     0.187 C 
BRANCH  27  28
ATOM     28  C   UNL d   1      29.504 -14.554  10.323  0.00  0.00     0.070 A 
ATOM     29  C   UNL d   1      29.746 -14.474  11.680  0.00  0.00     0.036 A 
ATOM     30  C   UNL d   1      30.589 -15.555  12.012  0.00  0.00     0.027 A 
ATOM     31  C   UNL d   1      30.804 -16.243  10.841  0.00  0.00     0.142 A 
ATOM     32  O   UNL d   1      30.149 -15.646   9.803  0.00  0.00    -0.325 OA
ENDBRANCH  27  28
ENDBRANCH  25  27
ENDBRANCH   4  23
TORSDOF 7
ENDMDL
MODEL 9
REMARK VINA RESULT:    -7.484      1.536      2.059
REMARK INTER + INTRA:         -11.597
REMARK INTER:                  -9.572
REMARK INTRA:                  -2.025
REMARK CONF_INDEPENDENT:        2.088
REMARK UNBOUND:                -2.025
REMARK  7 active torsions:
REMARK  status: ('A' for Active; 'I' for Inactive)
REMARK    1  A    between atoms: C_6  and  N_7 
REMARK       I    between atoms: N_7  and  C_8 
REMARK    2  A    between atoms: C_8  and  C_10 
REMARK    3  A    between atoms: C_10  and  N_11 
REMARK    4  A    between atoms: N_11  and  C_12 
REMARK    5  A    between atoms: C_15  and  C_16 
REMARK       I    between atoms: C_16  and  N_18 
REMARK    6  A    between atoms: N_18  and  C_19 
REMARK    7  A    between atoms: C_19  and  C_20 
ROOT
ATOM      1  C   UNL d   1      26.051 -16.443  -0.402  0.00  0.00     0.028 A 
ATOM      2  C   UNL d   1      24.966 -15.832  -1.041  0.00  0.00     0.030 A 
ATOM      3  C   UNL d   1      23.784 -16.539  -1.290  0.00  0.00     0.019 A 
ATOM      4  C   UNL d   1      23.683 -17.889  -0.923  0.00  0.00     0.032 A 
ATOM      5  C   UNL d   1      24.730 -18.470  -0.207  0.00  0.00     0.019 A 
ATOM      6  C   UNL d   1      25.894 -17.747   0.059  0.00  0.00     0.030 A 
ENDROOT
BRANCH   1   7
ATOM      7  N   UNL d   1      27.218 -15.718  -0.260  0.00  0.00    -0.381 N 
ATOM      8  H   UNL d   1      27.065 -14.703  -0.337  0.00  0.00     0.160 HD
BRANCH   7   9
ATOM      9  C   UNL d   1      28.249 -16.027   0.753  0.00  0.00     0.223 C 
BRANCH   9  10
ATOM     10  C   UNL d   1      28.653 -14.697   1.395  0.00  0.00     0.239 C 
ATOM     11  N   UNL d   1      29.846 -14.647   2.123  0.00  0.00    -0.325 N 
ATOM     12  H   UNL d   1      30.224 -15.542   2.407  0.00  0.00     0.169 HD
ATOM     13  O   UNL d   1      27.826 -13.791   1.245  0.00  0.00    -0.271 OA
BRANCH  11  14
ATOM     14  C   UNL d   1      30.543 -13.486   2.654  0.00  0.00     0.046 A 
ATOM     15  C   UNL d   1      30.278 -13.038   3.984  0.00  0.00    -0.034 A 
ATOM     16  C   UNL d   1      30.988 -11.918   4.525  0.00  0.00     0.015 A 
ATOM     17  C   UNL d   1      29.266 -13.716   4.878  0.00  0.00     0.050 C 
ATOM     18  C   UNL d   1      31.936 -11.224   3.768  0.00  0.00    -0.061 A 
ATOM     19  C   UNL d   1      32.760 -10.067   4.245  0.00  0.00     0.048 C 
ATOM     20  C   UNL d   1      32.189 -11.663   2.483  0.00  0.00     0.015 A 
ATOM     21  C   UNL d   1      31.555 -12.794   1.952  0.00  0.00    -0.034 A 
ATOM     22  C   UNL d   1      32.123 -13.223   0.645  0.00  0.00     0.050 C 
ENDBRANCH  11  14
ENDBRANCH   9  10
ENDBRANCH   7   9
ENDBRANCH   1   7
BRANCH   4  23
ATOM     23  C   UNL d   1      22.482 -18.668  -1.365  0.00  0.00     0.251 C 
ATOM     24  O   UNL d   1      22.518 -19.311  -2.396  0.00  0.00    -0.268 OA
ATOM     25  N   UNL d   1      21.364 -18.649  -0.537  0.00  0.00    -0.351 N 
ATOM     26  H   UNL d   1      21.338 -18.170   0.346  0.00  0.00     0.163 HD
BRANCH  25  27
ATOM     27  C   UNL d   1      20.207 -19.432  -0.890  0.00  0.00     0.187 C 
BRANCH  27  28
ATOM     28  C   UNL d   1      19.522 -20.027   0.291  0.00  0.00     0.070 A 
ATOM     29  C   UNL d   1      18.434 -20.876   0.353  0.00  0.00     0.036 A 
ATOM     30  C   UNL d   1      18.199 -21.144   1.718  0.00  0.00     0.027 A 
ATOM     31  C   UNL d   1      19.165 -20.455   2.412  0.00  0.00     0.142 A 
ATOM     32  O   UNL d   1      19.979 -19.771   1.557  0.00  0.00    -0.325 OA
ENDBRANCH  27  28
ENDBRANCH  25  27
ENDBRANCH   4  23
TORSDOF 7
ENDMDL
