MODEL 1
REMARK VINA RESULT:    -7.538      0.000      0.000
REMARK INTER + INTRA:          -9.758
REMARK INTER:                  -8.433
REMARK INTRA:                  -1.325
REMARK CONF_INDEPENDENT:        0.895
REMARK UNBOUND:                -1.325
REMARK  3 active torsions:
REMARK  status: ('A' for Active; 'I' for Inactive)
REMARK    1  A    between atoms: C_4  and  O_5 
REMARK    2  A    between atoms: C_6  and  N_7 
REMARK       I    between atoms: N_7  and  C_8 
REMARK    3  A    between atoms: C_8  and  C_10 
ROOT
ATOM      1  N   UNL d   1      22.269 -17.960   0.020  0.00  0.00    -0.320 N 
ATOM      2  C   UNL d   1      23.344 -18.119  -0.854  0.00  0.00     0.257 C 
ATOM      3  O   UNL d   1      23.625 -19.048  -1.608  0.00  0.00    -0.267 OA
ATOM      4  H   UNL d   1      22.245 -17.102   0.560  0.00  0.00     0.169 HD
ENDROOT
BRANCH   1   5
ATOM      5  C   UNL d   1      21.216 -18.896   0.294  0.00  0.00     0.069 A 
ATOM      6  C   UNL d   1      20.459 -19.537  -0.695  0.00  0.00     0.092 A 
ATOM      7  C   UNL d   1      19.445 -20.435  -0.384  0.00  0.00     0.046 A 
ATOM      8  C   UNL d   1      19.135 -20.741   0.937  0.00  0.00    -0.053 A 
ATOM      9  C   UNL d   1      18.023 -21.718   1.189  0.00  0.00     0.049 C 
ATOM     10  C   UNL d   1      19.866 -20.126   1.969  0.00  0.00    -0.054 A 
ATOM     11  C   UNL d   1      20.904 -19.211   1.639  0.00  0.00     0.039 A 
ATOM     12  C   UNL d   1      19.529 -20.450   3.402  0.00  0.00     0.049 C 
BRANCH   6  13
ATOM     13  O   UNL d   1      20.665 -19.321  -2.015  0.00  0.00    -0.358 OA
ATOM     14  H   UNL d   1      21.579 -19.122  -2.241  0.00  0.00     0.217 HD
ENDBRANCH   6  13
ENDBRANCH   1   5
BRANCH   2  15
ATOM     15  C   UNL d   1      24.336 -17.038  -0.970  0.00  0.00     0.049 A 
ATOM     16  C   UNL d   1      23.972 -15.964  -1.816  0.00  0.00     0.018 A 
ATOM     17  C   UNL d   1      24.877 -14.952  -2.122  0.00  0.00     0.001 A 
ATOM     18  C   UNL d   1      26.164 -15.020  -1.602  0.00  0.00     0.001 A 
ATOM     19  C   UNL d   1      26.544 -16.097  -0.794  0.00  0.00     0.020 A 
ATOM     20  C   UNL d   1      25.636 -17.113  -0.476  0.00  0.00     0.026 A 
ATOM     21 BR   UNL d   1      26.289 -18.575   0.540  0.00  0.00    -0.050 Br
ENDBRANCH   2  15
TORSDOF 3
ENDMDL
MODEL 2
REMARK VINA RESULT:    -7.278     11.650     13.908
REMARK INTER + INTRA:          -8.775
REMARK INTER:                  -8.173
REMARK INTRA:                  -0.602
REMARK CONF_INDEPENDENT:        0.895
REMARK UNBOUND:                -0.602
REMARK  3 active torsions:
REMARK  status: ('A' for Active; 'I' for Inactive)
REMARK    1  A    between atoms: C_4  and  O_5 
REMARK    2  A    between atoms: C_6  and  N_7 
REMARK       I    between atoms: N_7  and  C_8 
REMARK    3  A    between atoms: C_8  and  C_10 
ROOT
ATOM      1  N   UNL d   1      33.108 -21.999   5.701  0.00  0.00    -0.320 N 
ATOM      2  C   UNL d   1      31.803 -21.507   5.698  0.00  0.00     0.257 C 
ATOM      3  O   UNL d   1      31.138 -21.010   6.605  0.00  0.00    -0.267 OA
ATOM      4  H   UNL d   1      33.453 -22.379   4.827  0.00  0.00     0.169 HD
ENDROOT
BRANCH   1   5
ATOM      5  C   UNL d   1      34.008 -22.090   6.816  0.00  0.00     0.069 A 
ATOM      6  C   UNL d   1      34.545 -23.292   7.295  0.00  0.00     0.092 A 
ATOM      7  C   UNL d   1      35.411 -23.334   8.381  0.00  0.00     0.046 A 
ATOM      8  C   UNL d   1      35.787 -22.172   9.046  0.00  0.00    -0.053 A 
ATOM      9  C   UNL d   1      36.724 -22.303  10.213  0.00  0.00     0.049 C 
ATOM     10  C   UNL d   1      35.278 -20.938   8.604  0.00  0.00    -0.054 A 
ATOM     11  C   UNL d   1      34.395 -20.907   7.490  0.00  0.00     0.039 A 
ATOM     12  C   UNL d   1      35.679 -19.677   9.327  0.00  0.00     0.049 C 
BRANCH   6  13
ATOM     13  O   UNL d   1      34.252 -24.488   6.733  0.00  0.00    -0.358 OA
ATOM     14  H   UNL d   1      33.781 -24.422   5.897  0.00  0.00     0.217 HD
ENDBRANCH   6  13
ENDBRANCH   1   5
BRANCH   2  15
ATOM     15  C   UNL d   1      31.035 -21.527   4.442  0.00  0.00     0.049 A 
ATOM     16  C   UNL d   1      29.690 -21.949   4.556  0.00  0.00     0.018 A 
ATOM     17  C   UNL d   1      28.902 -22.147   3.426  0.00  0.00     0.001 A 
ATOM     18  C   UNL d   1      29.462 -21.948   2.171  0.00  0.00     0.001 A 
ATOM     19  C   UNL d   1      30.803 -21.566   2.047  0.00  0.00     0.020 A 
ATOM     20  C   UNL d   1      31.598 -21.356   3.179  0.00  0.00     0.026 A 
ATOM     21 BR   UNL d   1      33.426 -20.942   2.892  0.00  0.00    -0.050 Br
ENDBRANCH   2  15
TORSDOF 3
ENDMDL
MODEL 3
REMARK VINA RESULT:    -6.914      3.851      8.589
REMARK INTER + INTRA:          -8.484
REMARK INTER:                  -7.808
REMARK INTRA:                  -0.676
REMARK CONF_INDEPENDENT:        0.895
REMARK UNBOUND:                -0.676
REMARK  3 active torsions:
REMARK  status: ('A' for Active; 'I' for Inactive)
REMARK    1  A    between atoms: C_4  and  O_5 
REMARK    2  A    between atoms: C_6  and  N_7 
REMARK       I    between atoms: N_7  and  C_8 
REMARK    3  A    between atoms: C_8  and  C_10 
ROOT
ATOM      1  N   UNL d   1      25.567 -15.612  -3.366  0.00  0.00    -0.320 N 
ATOM      2  C   UNL d   1      25.470 -15.515  -1.979  0.00  0.00     0.257 C 
ATOM      3  O   UNL d   1      25.902 -14.660  -1.208  0.00  0.00    -0.267 OA
ATOM      4  H   UNL d   1      25.137 -16.423  -3.797  0.00  0.00     0.169 HD
ENDROOT
BRANCH   1   5
ATOM      5  C   UNL d   1      26.260 -14.728  -4.260  0.00  0.00     0.069 A 
ATOM      6  C   UNL d   1      25.881 -13.400  -4.500  0.00  0.00     0.092 A 
ATOM      7  C   UNL d   1      26.579 -12.580  -5.378  0.00  0.00     0.046 A 
ATOM      8  C   UNL d   1      27.697 -13.045  -6.063  0.00  0.00    -0.053 A 
ATOM      9  C   UNL d   1      28.393 -12.096  -6.996  0.00  0.00     0.049 C 
ATOM     10  C   UNL d   1      28.120 -14.370  -5.857  0.00  0.00    -0.054 A 
ATOM     11  C   UNL d   1      27.400 -15.200  -4.954  0.00  0.00     0.039 A 
ATOM     12  C   UNL d   1      29.328 -14.880  -6.602  0.00  0.00     0.049 C 
BRANCH   6  13
ATOM     13  O   UNL d   1      24.811 -12.835  -3.895  0.00  0.00    -0.358 OA
ATOM     14  H   UNL d   1      24.434 -12.094  -4.379  0.00  0.00     0.217 HD
ENDBRANCH   6  13
ENDBRANCH   1   5
BRANCH   2  15
ATOM     15  C   UNL d   1      24.727 -16.551  -1.241  0.00  0.00     0.049 A 
ATOM     16  C   UNL d   1      23.318 -16.429  -1.270  0.00  0.00     0.018 A 
ATOM     17  C   UNL d   1      22.510 -17.258  -0.498  0.00  0.00     0.001 A 
ATOM     18  C   UNL d   1      23.107 -18.200   0.330  0.00  0.00     0.001 A 
ATOM     19  C   UNL d   1      24.502 -18.303   0.393  0.00  0.00     0.020 A 
ATOM     20  C   UNL d   1      25.319 -17.479  -0.388  0.00  0.00     0.026 A 
ATOM     21 BR   UNL d   1      27.194 -17.634  -0.145  0.00  0.00    -0.050 Br
ENDBRANCH   2  15
TORSDOF 3
ENDMDL
MODEL 4
REMARK VINA RESULT:    -6.468      4.760      7.087
REMARK INTER + INTRA:          -8.737
REMARK INTER:                  -7.363
REMARK INTRA:                  -1.373
REMARK CONF_INDEPENDENT:        0.895
REMARK UNBOUND:                -1.373
REMARK  3 active torsions:
REMARK  status: ('A' for Active; 'I' for Inactive)
REMARK    1  A    between atoms: C_4  and  O_5 
REMARK    2  A    between atoms: C_6  and  N_7 
REMARK       I    between atoms: N_7  and  C_8 
REMARK    3  A    between atoms: C_8  and  C_10 
ROOT
ATOM      1  N   UNL d   1      27.658 -15.293  -3.620  0.00  0.00    -0.320 N 
ATOM      2  C   UNL d   1      27.569 -15.200  -5.008  0.00  0.00     0.257 C 
ATOM      3  O   UNL d   1      26.656 -15.511  -5.770  0.00  0.00    -0.267 OA
ATOM      4  H   UNL d   1      28.524 -14.981  -3.197  0.00  0.00     0.169 HD
ENDROOT
BRANCH   1   5
ATOM      5  C   UNL d   1      26.685 -15.837  -2.714  0.00  0.00     0.069 A 
ATOM      6  C   UNL d   1      25.311 -15.574  -2.786  0.00  0.00     0.092 A 
ATOM      7  C   UNL d   1      24.405 -16.119  -1.886  0.00  0.00     0.046 A 
ATOM      8  C   UNL d   1      24.827 -16.960  -0.861  0.00  0.00    -0.053 A 
ATOM      9  C   UNL d   1      23.786 -17.506   0.073  0.00  0.00     0.049 C 
ATOM     10  C   UNL d   1      26.196 -17.258  -0.744  0.00  0.00    -0.054 A 
ATOM     11  C   UNL d   1      27.115 -16.696  -1.674  0.00  0.00     0.039 A 
ATOM     12  C   UNL d   1      26.659 -18.164   0.369  0.00  0.00     0.049 C 
BRANCH   6  13
ATOM     13  O   UNL d   1      24.780 -14.770  -3.737  0.00  0.00    -0.358 OA
ATOM     14  H   UNL d   1      25.221 -14.828  -4.590  0.00  0.00     0.217 HD
ENDBRANCH   6  13
ENDBRANCH   1   5
BRANCH   2  15
ATOM     15  C   UNL d   1      28.698 -14.627  -5.759  0.00  0.00     0.049 A 
ATOM     16  C   UNL d   1      28.437 -13.398  -6.410  0.00  0.00     0.018 A 
ATOM     17  C   UNL d   1      29.374 -12.826  -7.266  0.00  0.00     0.001 A 
ATOM     18  C   UNL d   1      30.571 -13.493  -7.497  0.00  0.00     0.001 A 
ATOM     19  C   UNL d   1      30.822 -14.727  -6.885  0.00  0.00     0.020 A 
ATOM     20  C   UNL d   1      29.889 -15.302  -6.017  0.00  0.00     0.026 A 
ATOM     21 BR   UNL d   1      30.289 -17.023  -5.328  0.00  0.00    -0.050 Br
ENDBRANCH   2  15
TORSDOF 3
ENDMDL
MODEL 5
REMARK VINA RESULT:    -6.460      3.720      8.416
REMARK INTER + INTRA:          -8.392
REMARK INTER:                  -7.355
REMARK INTRA:                  -1.037
REMARK CONF_INDEPENDENT:        0.895
REMARK UNBOUND:                -1.037
REMARK  3 active torsions:
REMARK  status: ('A' for Active; 'I' for Inactive)
REMARK    1  A    between atoms: C_4  and  O_5 
REMARK    2  A    between atoms: C_6  and  N_7 
REMARK       I    between atoms: N_7  and  C_8 
REMARK    3  A    between atoms: C_8  and  C_10 
ROOT
ATOM      1  N   UNL d   1      25.239 -14.927  -2.876  0.00  0.00    -0.320 N 
ATOM      2  C   UNL d   1      25.871 -16.028  -2.300  0.00  0.00     0.257 C 
ATOM      3  O   UNL d   1      27.035 -16.414  -2.389  0.00  0.00    -0.267 OA
ATOM      4  H   UNL d   1      24.254 -14.808  -2.669  0.00  0.00     0.169 HD
ENDROOT
BRANCH   1   5
ATOM      5  C   UNL d   1      25.803 -13.966  -3.782  0.00  0.00     0.069 A 
ATOM      6  C   UNL d   1      26.644 -14.297  -4.852  0.00  0.00     0.092 A 
ATOM      7  C   UNL d   1      27.171 -13.334  -5.704  0.00  0.00     0.046 A 
ATOM      8  C   UNL d   1      26.884 -11.984  -5.528  0.00  0.00    -0.053 A 
ATOM      9  C   UNL d   1      27.496 -11.006  -6.488  0.00  0.00     0.049 C 
ATOM     10  C   UNL d   1      26.044 -11.598  -4.469  0.00  0.00    -0.054 A 
ATOM     11  C   UNL d   1      25.507 -12.593  -3.606  0.00  0.00     0.039 A 
ATOM     12  C   UNL d   1      25.735 -10.135  -4.272  0.00  0.00     0.049 C 
BRANCH   6  13
ATOM     13  O   UNL d   1      26.997 -15.575  -5.124  0.00  0.00    -0.358 OA
ATOM     14  H   UNL d   1      27.528 -15.989  -4.437  0.00  0.00     0.217 HD
ENDBRANCH   6  13
ENDBRANCH   1   5
BRANCH   2  15
ATOM     15  C   UNL d   1      25.099 -16.911  -1.410  0.00  0.00     0.049 A 
ATOM     16  C   UNL d   1      23.704 -16.944  -1.645  0.00  0.00     0.018 A 
ATOM     17  C   UNL d   1      22.848 -17.626  -0.785  0.00  0.00     0.001 A 
ATOM     18  C   UNL d   1      23.379 -18.260   0.331  0.00  0.00     0.001 A 
ATOM     19  C   UNL d   1      24.753 -18.201   0.591  0.00  0.00     0.020 A 
ATOM     20  C   UNL d   1      25.620 -17.525  -0.274  0.00  0.00     0.026 A 
ATOM     21 BR   UNL d   1      27.445 -17.421   0.231  0.00  0.00    -0.050 Br
ENDBRANCH   2  15
TORSDOF 3
ENDMDL
MODEL 6
REMARK VINA RESULT:    -6.219      4.798      7.135
REMARK INTER + INTRA:          -8.502
REMARK INTER:                  -7.114
REMARK INTRA:                  -1.388
REMARK CONF_INDEPENDENT:        0.895
REMARK UNBOUND:                -1.388
REMARK  3 active torsions:
REMARK  status: ('A' for Active; 'I' for Inactive)
REMARK    1  A    between atoms: C_4  and  O_5 
REMARK    2  A    between atoms: C_6  and  N_7 
REMARK       I    between atoms: N_7  and  C_8 
REMARK    3  A    between atoms: C_8  and  C_10 
ROOT
ATOM      1  N   UNL d   1      27.404 -15.211  -3.645  0.00  0.00    -0.320 N 
ATOM      2  C   UNL d   1      27.268 -15.171  -5.032  0.00  0.00     0.257 C 
ATOM      3  O   UNL d   1      26.358 -15.573  -5.755  0.00  0.00    -0.267 OA
ATOM      4  H   UNL d   1      28.257 -14.823  -3.260  0.00  0.00     0.169 HD
ENDROOT
BRANCH   1   5
ATOM      5  C   UNL d   1      26.501 -15.795  -2.693  0.00  0.00     0.069 A 
ATOM      6  C   UNL d   1      25.127 -15.528  -2.649  0.00  0.00     0.092 A 
ATOM      7  C   UNL d   1      24.289 -16.112  -1.707  0.00  0.00     0.046 A 
ATOM      8  C   UNL d   1      24.785 -16.998  -0.756  0.00  0.00    -0.053 A 
ATOM      9  C   UNL d   1      23.816 -17.585   0.230  0.00  0.00     0.049 C 
ATOM     10  C   UNL d   1      26.158 -17.302  -0.757  0.00  0.00    -0.054 A 
ATOM     11  C   UNL d   1      27.005 -16.700  -1.728  0.00  0.00     0.039 A 
ATOM     12  C   UNL d   1      26.700 -18.257   0.276  0.00  0.00     0.049 C 
BRANCH   6  13
ATOM     13  O   UNL d   1      24.527 -14.682  -3.520  0.00  0.00    -0.358 OA
ATOM     14  H   UNL d   1      24.858 -14.749  -4.421  0.00  0.00     0.217 HD
ENDBRANCH   6  13
ENDBRANCH   1   5
BRANCH   2  15
ATOM     15  C   UNL d   1      28.330 -14.542  -5.836  0.00  0.00     0.049 A 
ATOM     16  C   UNL d   1      29.441 -15.366  -6.132  0.00  0.00     0.018 A 
ATOM     17  C   UNL d   1      30.570 -14.850  -6.760  0.00  0.00     0.001 A 
ATOM     18  C   UNL d   1      30.607 -13.497  -7.074  0.00  0.00     0.001 A 
ATOM     19  C   UNL d   1      29.527 -12.667  -6.752  0.00  0.00     0.020 A 
ATOM     20  C   UNL d   1      28.385 -13.182  -6.129  0.00  0.00     0.026 A 
ATOM     21 BR   UNL d   1      27.029 -11.947  -5.646  0.00  0.00    -0.050 Br
ENDBRANCH   2  15
TORSDOF 3
ENDMDL
MODEL 7
REMARK VINA RESULT:    -6.188      4.545      8.473
REMARK INTER + INTRA:          -8.179
REMARK INTER:                  -7.083
REMARK INTRA:                  -1.096
REMARK CONF_INDEPENDENT:        0.895
REMARK UNBOUND:                -1.096
REMARK  3 active torsions:
REMARK  status: ('A' for Active; 'I' for Inactive)
REMARK    1  A    between atoms: C_4  and  O_5 
REMARK    2  A    between atoms: C_6  and  N_7 
REMARK       I    between atoms: N_7  and  C_8 
REMARK    3  A    between atoms: C_8  and  C_10 
ROOT
ATOM      1  N   UNL d   1      26.275 -14.248  -1.980  0.00  0.00    -0.320 N 
ATOM      2  C   UNL d   1      25.603 -15.469  -2.013  0.00  0.00     0.257 C 
ATOM      3  O   UNL d   1      24.791 -15.910  -2.824  0.00  0.00    -0.267 OA
ATOM      4  H   UNL d   1      26.900 -14.093  -1.198  0.00  0.00     0.169 HD
ENDROOT
BRANCH   1   5
ATOM      5  C   UNL d   1      26.141 -13.149  -2.896  0.00  0.00     0.069 A 
ATOM      6  C   UNL d   1      25.637 -13.269  -4.197  0.00  0.00     0.092 A 
ATOM      7  C   UNL d   1      25.529 -12.179  -5.052  0.00  0.00     0.046 A 
ATOM      8  C   UNL d   1      25.920 -10.907  -4.647  0.00  0.00    -0.053 A 
ATOM      9  C   UNL d   1      25.774  -9.782  -5.631  0.00  0.00     0.049 C 
ATOM     10  C   UNL d   1      26.432 -10.731  -3.350  0.00  0.00    -0.054 A 
ATOM     11  C   UNL d   1      26.535 -11.854  -2.482  0.00  0.00     0.039 A 
ATOM     12  C   UNL d   1      26.863  -9.355  -2.910  0.00  0.00     0.049 C 
BRANCH   6  13
ATOM     13  O   UNL d   1      25.226 -14.455  -4.705  0.00  0.00    -0.358 OA
ATOM     14  H   UNL d   1      24.618 -14.935  -4.135  0.00  0.00     0.217 HD
ENDBRANCH   6  13
ENDBRANCH   1   5
BRANCH   2  15
ATOM     15  C   UNL d   1      25.869 -16.459  -0.955  0.00  0.00     0.049 A 
ATOM     16  C   UNL d   1      27.224 -16.834  -0.797  0.00  0.00     0.018 A 
ATOM     17  C   UNL d   1      27.587 -17.862   0.068  0.00  0.00     0.001 A 
ATOM     18  C   UNL d   1      26.594 -18.539   0.764  0.00  0.00     0.001 A 
ATOM     19  C   UNL d   1      25.248 -18.199   0.586  0.00  0.00     0.020 A 
ATOM     20  C   UNL d   1      24.877 -17.161  -0.276  0.00  0.00     0.026 A 
ATOM     21 BR   UNL d   1      23.020 -16.856  -0.519  0.00  0.00    -0.050 Br
ENDBRANCH   2  15
TORSDOF 3
ENDMDL
MODEL 8
REMARK VINA RESULT:    -6.126      2.016      6.828
REMARK INTER + INTRA:          -8.134
REMARK INTER:                  -7.021
REMARK INTRA:                  -1.113
REMARK CONF_INDEPENDENT:        0.895
REMARK UNBOUND:                -1.113
REMARK  3 active torsions:
REMARK  status: ('A' for Active; 'I' for Inactive)
REMARK    1  A    between atoms: C_4  and  O_5 
REMARK    2  A    between atoms: C_6  and  N_7 
REMARK       I    between atoms: N_7  and  C_8 
REMARK    3  A    between atoms: C_8  and  C_10 
ROOT
ATOM      1  N   UNL d   1      21.748 -19.079   0.073  0.00  0.00    -0.320 N 
ATOM      2  C   UNL d   1      20.424 -18.960  -0.347  0.00  0.00     0.257 C 
ATOM      3  O   UNL d   1      19.896 -18.137  -1.092  0.00  0.00    -0.267 OA
ATOM      4  H   UNL d   1      21.957 -19.842   0.707  0.00  0.00     0.169 HD
ENDROOT
BRANCH   1   5
ATOM      5  C   UNL d   1      22.848 -18.210  -0.238  0.00  0.00     0.069 A 
ATOM      6  C   UNL d   1      22.703 -16.907  -0.730  0.00  0.00     0.092 A 
ATOM      7  C   UNL d   1      23.797 -16.100  -1.022  0.00  0.00     0.046 A 
ATOM      8  C   UNL d   1      25.097 -16.558  -0.835  0.00  0.00    -0.053 A 
ATOM      9  C   UNL d   1      26.224 -15.626  -1.177  0.00  0.00     0.049 C 
ATOM     10  C   UNL d   1      25.298 -17.859  -0.342  0.00  0.00    -0.054 A 
ATOM     11  C   UNL d   1      24.171 -18.674  -0.044  0.00  0.00     0.039 A 
ATOM     12  C   UNL d   1      26.706 -18.360  -0.144  0.00  0.00     0.049 C 
BRANCH   6  13
ATOM     13  O   UNL d   1      21.489 -16.351  -0.955  0.00  0.00    -0.358 OA
ATOM     14  H   UNL d   1      20.877 -16.925  -1.425  0.00  0.00     0.217 HD
ENDBRANCH   6  13
ENDBRANCH   1   5
BRANCH   2  15
ATOM     15  C   UNL d   1      19.437 -19.953   0.110  0.00  0.00     0.049 A 
ATOM     16  C   UNL d   1      18.500 -20.375  -0.862  0.00  0.00     0.018 A 
ATOM     17  C   UNL d   1      17.433 -21.199  -0.520  0.00  0.00     0.001 A 
ATOM     18  C   UNL d   1      17.280 -21.588   0.805  0.00  0.00     0.001 A 
ATOM     19  C   UNL d   1      18.181 -21.145   1.780  0.00  0.00     0.020 A 
ATOM     20  C   UNL d   1      19.261 -20.324   1.441  0.00  0.00     0.026 A 
ATOM     21 BR   UNL d   1      20.357 -19.700   2.858  0.00  0.00    -0.050 Br
ENDBRANCH   2  15
TORSDOF 3
ENDMDL
MODEL 9
REMARK VINA RESULT:    -5.986      4.190      6.420
REMARK INTER + INTRA:          -8.210
REMARK INTER:                  -6.881
REMARK INTRA:                  -1.329
REMARK CONF_INDEPENDENT:        0.895
REMARK UNBOUND:                -1.329
REMARK  3 active torsions:
REMARK  status: ('A' for Active; 'I' for Inactive)
REMARK    1  A    between atoms: C_4  and  O_5 
REMARK    2  A    between atoms: C_6  and  N_7 
REMARK       I    between atoms: N_7  and  C_8 
REMARK    3  A    between atoms: C_8  and  C_10 
ROOT
ATOM      1  N   UNL d   1      26.750 -14.991  -3.097  0.00  0.00    -0.320 N 
ATOM      2  C   UNL d   1      26.394 -14.589  -4.384  0.00  0.00     0.257 C 
ATOM      3  O   UNL d   1      25.359 -14.779  -5.020  0.00  0.00    -0.267 OA
ATOM      4  H   UNL d   1      27.673 -14.725  -2.776  0.00  0.00     0.169 HD
ENDROOT
BRANCH   1   5
ATOM      5  C   UNL d   1      25.983 -15.793  -2.186  0.00  0.00     0.069 A 
ATOM      6  C   UNL d   1      24.593 -15.698  -2.035  0.00  0.00     0.092 A 
ATOM      7  C   UNL d   1      23.891 -16.493  -1.137  0.00  0.00     0.046 A 
ATOM      8  C   UNL d   1      24.544 -17.428  -0.342  0.00  0.00    -0.053 A 
ATOM      9  C   UNL d   1      23.713 -18.246   0.605  0.00  0.00     0.049 C 
ATOM     10  C   UNL d   1      25.938 -17.566  -0.456  0.00  0.00    -0.054 A 
ATOM     11  C   UNL d   1      26.647 -16.749  -1.380  0.00  0.00     0.039 A 
ATOM     12  C   UNL d   1      26.651 -18.575   0.410  0.00  0.00     0.049 C 
BRANCH   6  13
ATOM     13  O   UNL d   1      23.848 -14.824  -2.751  0.00  0.00    -0.358 OA
ATOM     14  H   UNL d   1      24.358 -14.283  -3.362  0.00  0.00     0.217 HD
ENDBRANCH   6  13
ENDBRANCH   1   5
BRANCH   2  15
ATOM     15  C   UNL d   1      27.344 -13.782  -5.168  0.00  0.00     0.049 A 
ATOM     16  C   UNL d   1      26.848 -12.546  -5.644  0.00  0.00     0.018 A 
ATOM     17  C   UNL d   1      27.596 -11.759  -6.514  0.00  0.00     0.001 A 
ATOM     18  C   UNL d   1      28.839 -12.215  -6.934  0.00  0.00     0.001 A 
ATOM     19  C   UNL d   1      29.323 -13.454  -6.497  0.00  0.00     0.020 A 
ATOM     20  C   UNL d   1      28.579 -14.245  -5.616  0.00  0.00     0.026 A 
ATOM     21 BR   UNL d   1      29.284 -15.950  -5.173  0.00  0.00    -0.050 Br
ENDBRANCH   2  15
TORSDOF 3
ENDMDL
