MODEL 1
REMARK VINA RESULT:    -8.718      0.000      0.000
REMARK INTER + INTRA:          -9.676
REMARK INTER:                  -9.315
REMARK INTRA:                  -0.361
REMARK CONF_INDEPENDENT:        0.597
REMARK UNBOUND:                -0.361
REMARK  2 active torsions:
REMARK  status: ('A' for Active; 'I' for Inactive)
REMARK       I    between atoms: C_2  and  N_3 
REMARK    1  A    between atoms: C_2  and  C_11 
REMARK    2  A    between atoms: N_3  and  C_4 
ROOT
ATOM      1  O   UNL d   1      22.843 -19.314  -1.708  0.00  0.00    -0.267 OA
ATOM      2  C   UNL d   1      23.098 -18.456  -0.865  0.00  0.00     0.266 C 
ATOM      3  N   UNL d   1      22.256 -18.228   0.240  0.00  0.00    -0.322 N 
ATOM      4  H   UNL d   1      22.406 -17.361   0.737  0.00  0.00     0.169 HD
ENDROOT
BRANCH   2   5
ATOM      5  C   UNL d   1      24.278 -17.609  -0.900  0.00  0.00     0.111 A 
ATOM      6  S   UNL d   1      24.139 -16.067  -1.637  0.00  0.00    -0.081 SA
ATOM      7  C   UNL d   1      25.736 -15.622  -1.202  0.00  0.00     0.019 A 
ATOM      8  C   UNL d   1      26.354 -14.391  -1.484  0.00  0.00     0.020 A 
ATOM      9  C   UNL d   1      26.397 -16.642  -0.514  0.00  0.00     0.019 A 
ATOM     10  C   UNL d   1      27.671 -14.188  -1.075  0.00  0.00     0.001 A 
ATOM     11  C   UNL d   1      28.359 -15.182  -0.392  0.00  0.00     0.001 A 
ATOM     12  C   UNL d   1      27.735 -16.399  -0.104  0.00  0.00     0.016 A 
ATOM     13  C   UNL d   1      25.537 -17.780  -0.363  0.00  0.00     0.141 A 
ATOM     14  O   UNL d   1      25.937 -18.893   0.233  0.00  0.00    -0.190 OA
ENDBRANCH   2   5
BRANCH   3  15
ATOM     15  C   UNL d   1      21.061 -18.948   0.405  0.00  0.00     0.035 A 
ATOM     16  C   UNL d   1      20.654 -19.329   1.688  0.00  0.00     0.031 A 
ATOM     17  C   UNL d   1      19.532 -20.127   1.873  0.00  0.00     0.026 A 
ATOM     18  C   UNL d   1      18.807 -20.548   0.766  0.00  0.00     0.034 A 
ATOM     19 CL   UNL d   1      17.445 -21.575   0.991  0.00  0.00    -0.084 Cl
ATOM     20  C   UNL d   1      19.179 -20.144  -0.520  0.00  0.00     0.026 A 
ATOM     21  C   UNL d   1      20.297 -19.320  -0.703  0.00  0.00     0.031 A 
ENDBRANCH   3  15
TORSDOF 2
ENDMDL
MODEL 2
REMARK VINA RESULT:    -8.102      1.222      1.311
REMARK INTER + INTRA:          -8.978
REMARK INTER:                  -8.699
REMARK INTRA:                  -0.279
REMARK CONF_INDEPENDENT:        0.597
REMARK UNBOUND:                -0.279
REMARK  2 active torsions:
REMARK  status: ('A' for Active; 'I' for Inactive)
REMARK       I    between atoms: C_2  and  N_3 
REMARK    1  A    between atoms: C_2  and  C_11 
REMARK    2  A    between atoms: N_3  and  C_4 
ROOT
ATOM      1  O   UNL d   1      23.858 -18.571   0.977  0.00  0.00    -0.267 OA
ATOM      2  C   UNL d   1      23.753 -18.076  -0.144  0.00  0.00     0.266 C 
ATOM      3  N   UNL d   1      22.547 -18.128  -0.868  0.00  0.00    -0.322 N 
ATOM      4  H   UNL d   1      22.616 -17.920  -1.855  0.00  0.00     0.169 HD
ENDROOT
BRANCH   2   5
ATOM      5  C   UNL d   1      24.830 -17.380  -0.829  0.00  0.00     0.111 A 
ATOM      6  S   UNL d   1      24.407 -16.219  -2.017  0.00  0.00    -0.081 SA
ATOM      7  C   UNL d   1      26.038 -15.747  -2.256  0.00  0.00     0.019 A 
ATOM      8  C   UNL d   1      26.487 -14.752  -3.142  0.00  0.00     0.020 A 
ATOM      9  C   UNL d   1      26.919 -16.477  -1.455  0.00  0.00     0.019 A 
ATOM     10  C   UNL d   1      27.854 -14.496  -3.233  0.00  0.00     0.001 A 
ATOM     11  C   UNL d   1      28.757 -15.205  -2.453  0.00  0.00     0.001 A 
ATOM     12  C   UNL d   1      28.304 -16.185  -1.565  0.00  0.00     0.016 A 
ATOM     13  C   UNL d   1      26.197 -17.419  -0.650  0.00  0.00     0.141 A 
ATOM     14  O   UNL d   1      26.807 -18.253   0.178  0.00  0.00    -0.190 OA
ENDBRANCH   2   5
BRANCH   3  15
ATOM     15  C   UNL d   1      21.418 -18.787  -0.355  0.00  0.00     0.035 A 
ATOM     16  C   UNL d   1      21.281 -18.950   1.028  0.00  0.00     0.031 A 
ATOM     17  C   UNL d   1      20.228 -19.685   1.559  0.00  0.00     0.026 A 
ATOM     18  C   UNL d   1      19.300 -20.261   0.701  0.00  0.00     0.034 A 
ATOM     19 CL   UNL d   1      18.023 -21.210   1.355  0.00  0.00    -0.084 Cl
ATOM     20  C   UNL d   1      19.402 -20.075  -0.681  0.00  0.00     0.026 A 
ATOM     21  C   UNL d   1      20.451 -19.314  -1.213  0.00  0.00     0.031 A 
ENDBRANCH   3  15
TORSDOF 2
ENDMDL
MODEL 3
REMARK VINA RESULT:    -8.005      1.281      1.785
REMARK INTER + INTRA:          -9.643
REMARK INTER:                  -8.601
REMARK INTRA:                  -1.041
REMARK CONF_INDEPENDENT:        0.597
REMARK UNBOUND:                -1.041
REMARK  2 active torsions:
REMARK  status: ('A' for Active; 'I' for Inactive)
REMARK       I    between atoms: C_2  and  N_3 
REMARK    1  A    between atoms: C_2  and  C_11 
REMARK    2  A    between atoms: N_3  and  C_4 
ROOT
ATOM      1  O   UNL d   1      23.654 -19.893  -0.273  0.00  0.00    -0.267 OA
ATOM      2  C   UNL d   1      23.510 -18.673  -0.320  0.00  0.00     0.266 C 
ATOM      3  N   UNL d   1      22.261 -18.064  -0.094  0.00  0.00    -0.322 N 
ATOM      4  H   UNL d   1      22.181 -17.100  -0.387  0.00  0.00     0.169 HD
ENDROOT
BRANCH   2   5
ATOM      5  C   UNL d   1      24.589 -17.737  -0.588  0.00  0.00     0.111 A 
ATOM      6  S   UNL d   1      26.180 -18.199  -0.146  0.00  0.00    -0.081 SA
ATOM      7  C   UNL d   1      26.871 -16.794  -0.845  0.00  0.00     0.019 A 
ATOM      8  C   UNL d   1      28.241 -16.480  -0.878  0.00  0.00     0.020 A 
ATOM      9  C   UNL d   1      25.905 -15.954  -1.401  0.00  0.00     0.019 A 
ATOM     10  C   UNL d   1      28.645 -15.285  -1.472  0.00  0.00     0.001 A 
ATOM     11  C   UNL d   1      27.710 -14.425  -2.031  0.00  0.00     0.001 A 
ATOM     12  C   UNL d   1      26.351 -14.749  -2.006  0.00  0.00     0.016 A 
ATOM     13  C   UNL d   1      24.597 -16.515  -1.229  0.00  0.00     0.141 A 
ATOM     14  O   UNL d   1      23.503 -15.897  -1.645  0.00  0.00    -0.190 OA
ENDBRANCH   2   5
BRANCH   3  15
ATOM     15  C   UNL d   1      21.112 -18.832   0.154  0.00  0.00     0.035 A 
ATOM     16  C   UNL d   1      20.832 -19.258   1.457  0.00  0.00     0.031 A 
ATOM     17  C   UNL d   1      19.759 -20.102   1.717  0.00  0.00     0.026 A 
ATOM     18  C   UNL d   1      18.955 -20.523   0.666  0.00  0.00     0.034 A 
ATOM     19 CL   UNL d   1      17.655 -21.605   0.980  0.00  0.00    -0.084 Cl
ATOM     20  C   UNL d   1      19.199 -20.075  -0.636  0.00  0.00     0.026 A 
ATOM     21  C   UNL d   1      20.267 -19.206  -0.893  0.00  0.00     0.031 A 
ENDBRANCH   3  15
TORSDOF 2
ENDMDL
MODEL 4
REMARK VINA RESULT:    -7.991      1.955      2.417
REMARK INTER + INTRA:          -9.120
REMARK INTER:                  -8.588
REMARK INTRA:                  -0.532
REMARK CONF_INDEPENDENT:        0.597
REMARK UNBOUND:                -0.532
REMARK  2 active torsions:
REMARK  status: ('A' for Active; 'I' for Inactive)
REMARK       I    between atoms: C_2  and  N_3 
REMARK    1  A    between atoms: C_2  and  C_11 
REMARK    2  A    between atoms: N_3  and  C_4 
ROOT
ATOM      1  O   UNL d   1      22.162 -16.044  -0.583  0.00  0.00    -0.267 OA
ATOM      2  C   UNL d   1      23.070 -16.817  -0.885  0.00  0.00     0.266 C 
ATOM      3  N   UNL d   1      22.903 -18.214  -0.836  0.00  0.00    -0.322 N 
ATOM      4  H   UNL d   1      23.753 -18.760  -0.862  0.00  0.00     0.169 HD
ENDROOT
BRANCH   2   5
ATOM      5  C   UNL d   1      24.385 -16.389  -1.334  0.00  0.00     0.111 A 
ATOM      6  S   UNL d   1      25.750 -17.248  -0.753  0.00  0.00    -0.081 SA
ATOM      7  C   UNL d   1      26.833 -16.359  -1.741  0.00  0.00     0.019 A 
ATOM      8  C   UNL d   1      28.226 -16.542  -1.809  0.00  0.00     0.020 A 
ATOM      9  C   UNL d   1      26.176 -15.391  -2.504  0.00  0.00     0.019 A 
ATOM     10  C   UNL d   1      28.974 -15.723  -2.654  0.00  0.00     0.001 A 
ATOM     11  C   UNL d   1      28.352 -14.749  -3.423  0.00  0.00     0.001 A 
ATOM     12  C   UNL d   1      26.966 -14.580  -3.360  0.00  0.00     0.016 A 
ATOM     13  C   UNL d   1      24.766 -15.422  -2.242  0.00  0.00     0.141 A 
ATOM     14  O   UNL d   1      23.922 -14.583  -2.820  0.00  0.00    -0.190 OA
ENDBRANCH   2   5
BRANCH   3  15
ATOM     15  C   UNL d   1      21.698 -18.787  -0.399  0.00  0.00     0.035 A 
ATOM     16  C   UNL d   1      21.466 -18.949   0.970  0.00  0.00     0.031 A 
ATOM     17  C   UNL d   1      20.329 -19.604   1.429  0.00  0.00     0.026 A 
ATOM     18  C   UNL d   1      19.413 -20.100   0.511  0.00  0.00     0.034 A 
ATOM     19 CL   UNL d   1      18.030 -20.953   1.076  0.00  0.00    -0.084 Cl
ATOM     20  C   UNL d   1      19.613 -19.913  -0.860  0.00  0.00     0.026 A 
ATOM     21  C   UNL d   1      20.747 -19.232  -1.320  0.00  0.00     0.031 A 
ENDBRANCH   3  15
TORSDOF 2
ENDMDL
MODEL 5
REMARK VINA RESULT:    -6.500      1.437      1.861
REMARK INTER + INTRA:          -8.122
REMARK INTER:                  -7.097
REMARK INTRA:                  -1.025
REMARK CONF_INDEPENDENT:        0.597
REMARK UNBOUND:                -1.025
REMARK  2 active torsions:
REMARK  status: ('A' for Active; 'I' for Inactive)
REMARK       I    between atoms: C_2  and  N_3 
REMARK    1  A    between atoms: C_2  and  C_11 
REMARK    2  A    between atoms: N_3  and  C_4 
ROOT
ATOM      1  O   UNL d   1      23.161 -16.037  -1.050  0.00  0.00    -0.267 OA
ATOM      2  C   UNL d   1      24.043 -16.820  -0.699  0.00  0.00     0.266 C 
ATOM      3  N   UNL d   1      23.751 -18.139  -0.306  0.00  0.00    -0.322 N 
ATOM      4  H   UNL d   1      24.486 -18.624   0.190  0.00  0.00     0.169 HD
ENDROOT
BRANCH   2   5
ATOM      5  C   UNL d   1      25.458 -16.488  -0.668  0.00  0.00     0.111 A 
ATOM      6  S   UNL d   1      25.900 -14.840  -0.843  0.00  0.00    -0.081 SA
ATOM      7  C   UNL d   1      27.560 -15.171  -0.574  0.00  0.00     0.019 A 
ATOM      8  C   UNL d   1      28.597 -14.221  -0.555  0.00  0.00     0.020 A 
ATOM      9  C   UNL d   1      27.799 -16.532  -0.371  0.00  0.00     0.019 A 
ATOM     10  C   UNL d   1      29.904 -14.653  -0.338  0.00  0.00     0.001 A 
ATOM     11  C   UNL d   1      30.177 -16.000  -0.136  0.00  0.00     0.001 A 
ATOM     12  C   UNL d   1      29.141 -16.937  -0.144  0.00  0.00     0.016 A 
ATOM     13  C   UNL d   1      26.571 -17.270  -0.441  0.00  0.00     0.141 A 
ATOM     14  O   UNL d   1      26.530 -18.586  -0.309  0.00  0.00    -0.190 OA
ENDBRANCH   2   5
BRANCH   3  15
ATOM     15  C   UNL d   1      22.428 -18.608  -0.257  0.00  0.00     0.035 A 
ATOM     16  C   UNL d   1      21.796 -18.769   0.980  0.00  0.00     0.031 A 
ATOM     17  C   UNL d   1      20.525 -19.325   1.065  0.00  0.00     0.026 A 
ATOM     18  C   UNL d   1      19.877 -19.722  -0.098  0.00  0.00     0.034 A 
ATOM     19 CL   UNL d   1      18.324 -20.454   0.011  0.00  0.00    -0.084 Cl
ATOM     20  C   UNL d   1      20.480 -19.532  -1.345  0.00  0.00     0.026 A 
ATOM     21  C   UNL d   1      21.752 -18.950  -1.430  0.00  0.00     0.031 A 
ENDBRANCH   3  15
TORSDOF 2
ENDMDL
MODEL 6
REMARK VINA RESULT:    -6.324      5.826      8.867
REMARK INTER + INTRA:          -7.956
REMARK INTER:                  -6.920
REMARK INTRA:                  -1.035
REMARK CONF_INDEPENDENT:        0.597
REMARK UNBOUND:                -1.035
REMARK  2 active torsions:
REMARK  status: ('A' for Active; 'I' for Inactive)
REMARK       I    between atoms: C_2  and  N_3 
REMARK    1  A    between atoms: C_2  and  C_11 
REMARK    2  A    between atoms: N_3  and  C_4 
ROOT
ATOM      1  O   UNL d   1      24.760 -14.075  -4.645  0.00  0.00    -0.267 OA
ATOM      2  C   UNL d   1      25.783 -14.240  -3.982  0.00  0.00     0.266 C 
ATOM      3  N   UNL d   1      26.981 -13.566  -4.286  0.00  0.00    -0.322 N 
ATOM      4  H   UNL d   1      27.816 -13.937  -3.854  0.00  0.00     0.169 HD
ENDROOT
BRANCH   2   5
ATOM      5  C   UNL d   1      25.867 -15.114  -2.824  0.00  0.00     0.111 A 
ATOM      6  S   UNL d   1      24.404 -15.582  -2.062  0.00  0.00    -0.081 SA
ATOM      7  C   UNL d   1      25.210 -16.635  -0.975  0.00  0.00     0.019 A 
ATOM      8  C   UNL d   1      24.595 -17.430   0.009  0.00  0.00     0.020 A 
ATOM      9  C   UNL d   1      26.593 -16.627  -1.164  0.00  0.00     0.019 A 
ATOM     10  C   UNL d   1      25.394 -18.225   0.829  0.00  0.00     0.001 A 
ATOM     11  C   UNL d   1      26.773 -18.239   0.671  0.00  0.00     0.001 A 
ATOM     12  C   UNL d   1      27.377 -17.455  -0.317  0.00  0.00     0.016 A 
ATOM     13  C   UNL d   1      26.947 -15.734  -2.228  0.00  0.00     0.141 A 
ATOM     14  O   UNL d   1      28.204 -15.526  -2.587  0.00  0.00    -0.190 OA
ENDBRANCH   2   5
BRANCH   3  15
ATOM     15  C   UNL d   1      27.070 -12.704  -5.391  0.00  0.00     0.035 A 
ATOM     16  C   UNL d   1      26.237 -11.584  -5.463  0.00  0.00     0.031 A 
ATOM     17  C   UNL d   1      26.231 -10.769  -6.590  0.00  0.00     0.026 A 
ATOM     18  C   UNL d   1      27.070 -11.076  -7.654  0.00  0.00     0.034 A 
ATOM     19 CL   UNL d   1      27.030 -10.096  -9.067  0.00  0.00    -0.084 Cl
ATOM     20  C   UNL d   1      27.936 -12.171  -7.581  0.00  0.00     0.026 A 
ATOM     21  C   UNL d   1      27.956 -12.977  -6.435  0.00  0.00     0.031 A 
ENDBRANCH   3  15
TORSDOF 2
ENDMDL
MODEL 7
REMARK VINA RESULT:    -6.314      6.532      9.663
REMARK INTER + INTRA:          -7.929
REMARK INTER:                  -6.910
REMARK INTRA:                  -1.019
REMARK CONF_INDEPENDENT:        0.597
REMARK UNBOUND:                -1.019
REMARK  2 active torsions:
REMARK  status: ('A' for Active; 'I' for Inactive)
REMARK       I    between atoms: C_2  and  N_3 
REMARK    1  A    between atoms: C_2  and  C_11 
REMARK    2  A    between atoms: N_3  and  C_4 
ROOT
ATOM      1  O   UNL d   1      27.912 -12.577  -4.463  0.00  0.00    -0.267 OA
ATOM      2  C   UNL d   1      26.738 -12.843  -4.210  0.00  0.00     0.266 C 
ATOM      3  N   UNL d   1      25.677 -12.067  -4.713  0.00  0.00    -0.322 N 
ATOM      4  H   UNL d   1      24.781 -12.205  -4.267  0.00  0.00     0.169 HD
ENDROOT
BRANCH   2   5
ATOM      5  C   UNL d   1      26.318 -13.971  -3.396  0.00  0.00     0.111 A 
ATOM      6  S   UNL d   1      27.516 -14.796  -2.487  0.00  0.00    -0.081 SA
ATOM      7  C   UNL d   1      26.361 -15.811  -1.729  0.00  0.00     0.019 A 
ATOM      8  C   UNL d   1      26.639 -16.804  -0.773  0.00  0.00     0.020 A 
ATOM      9  C   UNL d   1      25.062 -15.551  -2.171  0.00  0.00     0.019 A 
ATOM     10  C   UNL d   1      25.586 -17.560  -0.261  0.00  0.00     0.001 A 
ATOM     11  C   UNL d   1      24.283 -17.330  -0.681  0.00  0.00     0.001 A 
ATOM     12  C   UNL d   1      24.012 -16.333  -1.623  0.00  0.00     0.016 A 
ATOM     13  C   UNL d   1      25.067 -14.493  -3.140  0.00  0.00     0.141 A 
ATOM     14  O   UNL d   1      23.961 -14.075  -3.734  0.00  0.00    -0.190 OA
ENDBRANCH   2   5
BRANCH   3  15
ATOM     15  C   UNL d   1      25.917 -10.927  -5.497  0.00  0.00     0.035 A 
ATOM     16  C   UNL d   1      25.529  -9.669  -5.025  0.00  0.00     0.031 A 
ATOM     17  C   UNL d   1      25.661  -8.536  -5.819  0.00  0.00     0.026 A 
ATOM     18  C   UNL d   1      26.190  -8.661  -7.098  0.00  0.00     0.034 A 
ATOM     19 CL   UNL d   1      26.311  -7.267  -8.099  0.00  0.00    -0.084 Cl
ATOM     20  C   UNL d   1      26.618  -9.906  -7.569  0.00  0.00     0.026 A 
ATOM     21  C   UNL d   1      26.505 -11.042  -6.758  0.00  0.00     0.031 A 
ENDBRANCH   3  15
TORSDOF 2
ENDMDL
MODEL 8
REMARK VINA RESULT:    -6.204      6.080      9.422
REMARK INTER + INTRA:          -7.815
REMARK INTER:                  -6.801
REMARK INTRA:                  -1.014
REMARK CONF_INDEPENDENT:        0.597
REMARK UNBOUND:                -1.014
REMARK  2 active torsions:
REMARK  status: ('A' for Active; 'I' for Inactive)
REMARK       I    between atoms: C_2  and  N_3 
REMARK    1  A    between atoms: C_2  and  C_11 
REMARK    2  A    between atoms: N_3  and  C_4 
ROOT
ATOM      1  O   UNL d   1      28.980 -14.779  -3.188  0.00  0.00    -0.267 OA
ATOM      2  C   UNL d   1      27.863 -15.127  -3.568  0.00  0.00     0.266 C 
ATOM      3  N   UNL d   1      27.414 -14.878  -4.879  0.00  0.00    -0.322 N 
ATOM      4  H   UNL d   1      26.420 -14.974  -5.029  0.00  0.00     0.169 HD
ENDROOT
BRANCH   2   5
ATOM      5  C   UNL d   1      26.906 -15.835  -2.734  0.00  0.00     0.111 A 
ATOM      6  S   UNL d   1      27.517 -16.845  -1.491  0.00  0.00    -0.081 SA
ATOM      7  C   UNL d   1      25.950 -17.190  -0.887  0.00  0.00     0.019 A 
ATOM      8  C   UNL d   1      25.655 -18.004   0.221  0.00  0.00     0.020 A 
ATOM      9  C   UNL d   1      24.949 -16.561  -1.631  0.00  0.00     0.019 A 
ATOM     10  C   UNL d   1      24.322 -18.200   0.578  0.00  0.00     0.001 A 
ATOM     11  C   UNL d   1      23.302 -17.592  -0.142  0.00  0.00     0.001 A 
ATOM     12  C   UNL d   1      23.603 -16.775  -1.235  0.00  0.00     0.016 A 
ATOM     13  C   UNL d   1      25.527 -15.795  -2.697  0.00  0.00     0.141 A 
ATOM     14  O   UNL d   1      24.787 -15.125  -3.566  0.00  0.00    -0.190 OA
ENDBRANCH   2   5
BRANCH   3  15
ATOM     15  C   UNL d   1      28.212 -14.181  -5.801  0.00  0.00     0.035 A 
ATOM     16  C   UNL d   1      27.781 -12.946  -6.295  0.00  0.00     0.031 A 
ATOM     17  C   UNL d   1      28.498 -12.282  -7.282  0.00  0.00     0.026 A 
ATOM     18  C   UNL d   1      29.661 -12.856  -7.780  0.00  0.00     0.034 A 
ATOM     19 CL   UNL d   1      30.525 -12.058  -9.035  0.00  0.00    -0.084 Cl
ATOM     20  C   UNL d   1      30.125 -14.072  -7.269  0.00  0.00     0.026 A 
ATOM     21  C   UNL d   1      29.413 -14.728  -6.257  0.00  0.00     0.031 A 
ENDBRANCH   3  15
TORSDOF 2
ENDMDL
