MODEL 1
REMARK VINA RESULT:    -9.179      0.000      0.000
REMARK INTER + INTRA:         -17.851
REMARK INTER:                 -13.952
REMARK INTRA:                  -3.899
REMARK CONF_INDEPENDENT:        4.773
REMARK UNBOUND:                -3.899
REMARK  16 active torsions:
REMARK  status: ('A' for Active; 'I' for Inactive)
REMARK    1  A    between atoms: C_2  and  C_3 
REMARK    2  A    between atoms: C_3  and  C_4 
REMARK    3  A    between atoms: C_6  and  C_7 
REMARK    4  A    between atoms: N_8  and  N_9 
REMARK       I    between atoms: N_9  and  C_10 
REMARK    5  A    between atoms: C_10  and  C_12 
REMARK    6  A    between atoms: C_12  and  C_13 
REMARK    7  A    between atoms: C_14  and  C_13 
REMARK    8  A    between atoms: C_14  and  C_16 
REMARK    9  A    between atoms: C_14  and  O_15 
REMARK   10  A    between atoms: C_19  and  O_20 
REMARK   11  A    between atoms: O_20  and  C_21 
REMARK   12  A    between atoms: C_26  and  O_27 
REMARK   13  A    between atoms: O_27  and  C_28 
REMARK   14  A    between atoms: C_30  and  O_31 
REMARK   15  A    between atoms: O_31  and  C_32 
REMARK   16  A    between atoms: C_32  and  C_33 
ROOT
ATOM      1  C   UNL d   1      28.014 -15.420  -3.594  0.00  0.00    -0.018 C 
ATOM      2  C   UNL d   1      28.807 -16.123  -2.651  0.00  0.00     0.023 C 
ATOM      3  C   UNL d   1      29.869 -16.923  -3.068  0.00  0.00    -0.014 C 
ATOM      4  C   UNL d   1      29.992 -17.173  -4.422  0.00  0.00     0.052 C 
ATOM      5  C   UNL d   1      29.358 -16.397  -5.372  0.00  0.00     0.103 C 
ATOM      6  C   UNL d   1      28.342 -15.513  -4.974  0.00  0.00     0.109 C 
ENDROOT
BRANCH   3   7
ATOM      7  C   UNL d   1      30.869 -17.410  -2.079  0.00  0.00     0.150 C 
ATOM      8  N   UNL d   1      30.839 -17.437  -0.774  0.00  0.00    -0.184 NA
BRANCH   8   9
ATOM      9  N   UNL d   1      29.740 -17.002  -0.104  0.00  0.00    -0.247 N 
ATOM     10  C   UNL d   1      29.600 -15.701   0.331  0.00  0.00     0.237 C 
ATOM     11  O   UNL d   1      30.463 -14.819   0.288  0.00  0.00    -0.272 OA
ATOM     12  H   UNL d   1      29.201 -17.681   0.416  0.00  0.00     0.192 HD
BRANCH  10  13
ATOM     13  C   UNL d   1      28.229 -15.493   0.927  0.00  0.00     0.107 C 
BRANCH  13  14
ATOM     14  C   UNL d   1      27.109 -15.889  -0.020  0.00  0.00     0.046 C 
BRANCH  14  15
ATOM     15  C   UNL d   1      26.515 -17.278   0.238  0.00  0.00     0.151 C 
BRANCH  15  16
ATOM     16  C   UNL d   1      25.039 -17.421  -0.112  0.00  0.00    -0.029 A 
ATOM     17  C   UNL d   1      24.385 -18.666  -0.135  0.00  0.00     0.012 A 
ATOM     18  C   UNL d   1      23.054 -18.806  -0.504  0.00  0.00     0.037 A 
ATOM     19  C   UNL d   1      22.322 -17.693  -0.861  0.00  0.00     0.068 A 
ATOM     20  C   UNL d   1      22.950 -16.449  -0.896  0.00  0.00     0.037 A 
ATOM     21  C   UNL d   1      24.289 -16.313  -0.523  0.00  0.00     0.012 A 
BRANCH  19  22
ATOM     22  O   UNL d   1      21.017 -17.952  -1.153  0.00  0.00    -0.352 OA
BRANCH  22  23
ATOM     23  C   UNL d   1      20.657 -19.326  -1.121  0.00  0.00     0.171 C 
ATOM     24  C   UNL d   1      19.546 -19.492  -0.111  0.00  0.00     0.034 C 
ENDBRANCH  22  23
ENDBRANCH  19  22
ENDBRANCH  15  16
BRANCH  15  25
ATOM     25  O   UNL d   1      27.308 -18.204  -0.522  0.00  0.00    -0.391 OA
ATOM     26  H   UNL d   1      27.997 -18.549   0.073  0.00  0.00     0.210 HD
ENDBRANCH  15  25
ENDBRANCH  14  15
ENDBRANCH  13  14
ENDBRANCH  10  13
ENDBRANCH   8   9
ENDBRANCH   3   7
BRANCH   1  27
ATOM     27  C   UNL d   1      26.912 -14.556  -3.004  0.00  0.00     0.068 C 
BRANCH  27  28
ATOM     28  C   UNL d   1      25.548 -14.911  -3.521  0.00  0.00    -0.032 C 
ATOM     29  C   UNL d   1      24.812 -14.072  -4.269  0.00  0.00     0.007 C 
ENDBRANCH  27  28
ENDBRANCH   1  27
BRANCH   5  30
ATOM     30  O   UNL d   1      29.882 -16.618  -6.632  0.00  0.00    -0.349 OA
BRANCH  30  31
ATOM     31  C   UNL d   1      31.262 -16.334  -6.782  0.00  0.00     0.171 C 
ATOM     32  C   UNL d   1      31.523 -15.052  -7.523  0.00  0.00     0.034 C 
ENDBRANCH  30  31
ENDBRANCH   5  30
BRANCH   6  33
ATOM     33  O   UNL d   1      27.786 -14.857  -6.029  0.00  0.00    -0.343 OA
BRANCH  33  34
ATOM     34  C   UNL d   1      28.417 -13.795  -6.671  0.00  0.00     0.214 C 
BRANCH  34  35
ATOM     35  C   UNL d   1      27.710 -12.495  -6.745  0.00  0.00    -0.034 C 
ATOM     36  C   UNL d   1      27.583 -11.815  -7.941  0.00  0.00     0.009 C 
ATOM     37  C   UNL d   1      26.947 -10.597  -7.951  0.00  0.00     0.001 C 
ATOM     38  C   UNL d   1      26.273 -10.162  -6.810  0.00  0.00     0.000 C 
ATOM     39  C   UNL d   1      26.255 -10.929  -5.647  0.00  0.00     0.001 C 
ATOM     40  C   UNL d   1      26.997 -12.090  -5.608  0.00  0.00     0.009 C 
ENDBRANCH  34  35
ENDBRANCH  33  34
ENDBRANCH   6  33
TORSDOF 16
ENDMDL
MODEL 2
REMARK VINA RESULT:    -9.058      4.085      6.466
REMARK INTER + INTRA:         -17.799
REMARK INTER:                 -13.831
REMARK INTRA:                  -3.968
REMARK CONF_INDEPENDENT:        4.773
REMARK UNBOUND:                -3.968
REMARK  16 active torsions:
REMARK  status: ('A' for Active; 'I' for Inactive)
REMARK    1  A    between atoms: C_2  and  C_3 
REMARK    2  A    between atoms: C_3  and  C_4 
REMARK    3  A    between atoms: C_6  and  C_7 
REMARK    4  A    between atoms: N_8  and  N_9 
REMARK       I    between atoms: N_9  and  C_10 
REMARK    5  A    between atoms: C_10  and  C_12 
REMARK    6  A    between atoms: C_12  and  C_13 
REMARK    7  A    between atoms: C_14  and  C_13 
REMARK    8  A    between atoms: C_14  and  C_16 
REMARK    9  A    between atoms: C_14  and  O_15 
REMARK   10  A    between atoms: C_19  and  O_20 
REMARK   11  A    between atoms: O_20  and  C_21 
REMARK   12  A    between atoms: C_26  and  O_27 
REMARK   13  A    between atoms: O_27  and  C_28 
REMARK   14  A    between atoms: C_30  and  O_31 
REMARK   15  A    between atoms: O_31  and  C_32 
REMARK   16  A    between atoms: C_32  and  C_33 
ROOT
ATOM      1  C   UNL d   1      26.026 -15.918  -2.098  0.00  0.00    -0.018 C 
ATOM      2  C   UNL d   1      27.208 -16.215  -1.372  0.00  0.00     0.023 C 
ATOM      3  C   UNL d   1      28.456 -16.164  -1.990  0.00  0.00    -0.014 C 
ATOM      4  C   UNL d   1      28.487 -16.022  -3.365  0.00  0.00     0.052 C 
ATOM      5  C   UNL d   1      27.394 -15.574  -4.081  0.00  0.00     0.103 C 
ATOM      6  C   UNL d   1      26.135 -15.529  -3.460  0.00  0.00     0.109 C 
ENDROOT
BRANCH   3   7
ATOM      7  C   UNL d   1      29.696 -16.179  -1.168  0.00  0.00     0.150 C 
ATOM      8  N   UNL d   1      29.924 -15.756   0.046  0.00  0.00    -0.184 NA
BRANCH   8   9
ATOM      9  N   UNL d   1      28.918 -15.224   0.787  0.00  0.00    -0.247 N 
ATOM     10  C   UNL d   1      28.424 -13.955   0.570  0.00  0.00     0.237 C 
ATOM     11  O   UNL d   1      28.887 -13.113  -0.206  0.00  0.00    -0.272 OA
ATOM     12  H   UNL d   1      28.782 -15.575   1.725  0.00  0.00     0.192 HD
BRANCH  10  13
ATOM     13  C   UNL d   1      27.234 -13.696   1.462  0.00  0.00     0.107 C 
BRANCH  13  14
ATOM     14  C   UNL d   1      27.617 -13.052   2.783  0.00  0.00     0.046 C 
BRANCH  14  15
ATOM     15  C   UNL d   1      28.393 -13.967   3.738  0.00  0.00     0.151 C 
BRANCH  15  16
ATOM     16  C   UNL d   1      28.409 -13.511   5.192  0.00  0.00    -0.029 A 
ATOM     17  C   UNL d   1      28.091 -12.195   5.575  0.00  0.00     0.012 A 
ATOM     18  C   UNL d   1      28.156 -11.762   6.892  0.00  0.00     0.037 A 
ATOM     19  C   UNL d   1      28.537 -12.641   7.883  0.00  0.00     0.068 A 
ATOM     20  C   UNL d   1      28.905 -13.940   7.535  0.00  0.00     0.037 A 
ATOM     21  C   UNL d   1      28.838 -14.371   6.208  0.00  0.00     0.012 A 
BRANCH  19  22
ATOM     22  O   UNL d   1      28.513 -12.114   9.139  0.00  0.00    -0.352 OA
BRANCH  22  23
ATOM     23  C   UNL d   1      28.949 -12.992  10.166  0.00  0.00     0.171 C 
ATOM     24  C   UNL d   1      27.783 -13.234  11.098  0.00  0.00     0.034 C 
ENDBRANCH  22  23
ENDBRANCH  19  22
ENDBRANCH  15  16
BRANCH  15  25
ATOM     25  O   UNL d   1      27.802 -15.270   3.621  0.00  0.00    -0.391 OA
ATOM     26  H   UNL d   1      28.530 -15.915   3.589  0.00  0.00     0.210 HD
ENDBRANCH  15  25
ENDBRANCH  14  15
ENDBRANCH  13  14
ENDBRANCH  10  13
ENDBRANCH   8   9
ENDBRANCH   3   7
BRANCH   1  27
ATOM     27  C   UNL d   1      24.736 -15.976  -1.295  0.00  0.00     0.068 C 
BRANCH  27  28
ATOM     28  C   UNL d   1      24.408 -17.358  -0.811  0.00  0.00    -0.032 C 
ATOM     29  C   UNL d   1      23.169 -17.873  -0.866  0.00  0.00     0.007 C 
ENDBRANCH  27  28
ENDBRANCH   1  27
BRANCH   5  30
ATOM     30  O   UNL d   1      27.752 -15.200  -5.362  0.00  0.00    -0.349 OA
BRANCH  30  31
ATOM     31  C   UNL d   1      28.649 -14.107  -5.454  0.00  0.00     0.171 C 
ATOM     32  C   UNL d   1      28.811 -13.595  -6.858  0.00  0.00     0.034 C 
ENDBRANCH  30  31
ENDBRANCH   5  30
BRANCH   6  33
ATOM     33  O   UNL d   1      25.156 -15.112  -4.309  0.00  0.00    -0.343 OA
BRANCH  33  34
ATOM     34  C   UNL d   1      24.588 -13.843  -4.237  0.00  0.00     0.214 C 
BRANCH  34  35
ATOM     35  C   UNL d   1      25.485 -12.681  -4.029  0.00  0.00    -0.034 C 
ATOM     36  C   UNL d   1      25.941 -12.344  -2.769  0.00  0.00     0.009 C 
ATOM     37  C   UNL d   1      26.744 -11.237  -2.625  0.00  0.00     0.001 C 
ATOM     38  C   UNL d   1      27.242 -10.595  -3.758  0.00  0.00     0.000 C 
ATOM     39  C   UNL d   1      26.919 -11.039  -5.039  0.00  0.00     0.001 C 
ATOM     40  C   UNL d   1      26.017 -12.072  -5.174  0.00  0.00     0.009 C 
ENDBRANCH  34  35
ENDBRANCH  33  34
ENDBRANCH   6  33
TORSDOF 16
ENDMDL
MODEL 3
REMARK VINA RESULT:    -8.339      1.636      3.250
REMARK INTER + INTRA:         -17.461
REMARK INTER:                 -13.112
REMARK INTRA:                  -4.348
REMARK CONF_INDEPENDENT:        4.773
REMARK UNBOUND:                -4.348
REMARK  16 active torsions:
REMARK  status: ('A' for Active; 'I' for Inactive)
REMARK    1  A    between atoms: C_2  and  C_3 
REMARK    2  A    between atoms: C_3  and  C_4 
REMARK    3  A    between atoms: C_6  and  C_7 
REMARK    4  A    between atoms: N_8  and  N_9 
REMARK       I    between atoms: N_9  and  C_10 
REMARK    5  A    between atoms: C_10  and  C_12 
REMARK    6  A    between atoms: C_12  and  C_13 
REMARK    7  A    between atoms: C_14  and  C_13 
REMARK    8  A    between atoms: C_14  and  C_16 
REMARK    9  A    between atoms: C_14  and  O_15 
REMARK   10  A    between atoms: C_19  and  O_20 
REMARK   11  A    between atoms: O_20  and  C_21 
REMARK   12  A    between atoms: C_26  and  O_27 
REMARK   13  A    between atoms: O_27  and  C_28 
REMARK   14  A    between atoms: C_30  and  O_31 
REMARK   15  A    between atoms: O_31  and  C_32 
REMARK   16  A    between atoms: C_32  and  C_33 
ROOT
ATOM      1  C   UNL d   1      30.283 -16.942  -5.092  0.00  0.00    -0.018 C 
ATOM      2  C   UNL d   1      30.946 -17.540  -3.989  0.00  0.00     0.023 C 
ATOM      3  C   UNL d   1      30.947 -16.926  -2.739  0.00  0.00    -0.014 C 
ATOM      4  C   UNL d   1      30.468 -15.631  -2.658  0.00  0.00     0.052 C 
ATOM      5  C   UNL d   1      29.679 -15.078  -3.648  0.00  0.00     0.103 C 
ATOM      6  C   UNL d   1      29.585 -15.720  -4.894  0.00  0.00     0.109 C 
ENDROOT
BRANCH   3   7
ATOM      7  C   UNL d   1      31.375 -17.687  -1.534  0.00  0.00     0.150 C 
ATOM      8  N   UNL d   1      30.795 -17.854  -0.376  0.00  0.00    -0.184 NA
BRANCH   8   9
ATOM      9  N   UNL d   1      29.573 -17.313  -0.137  0.00  0.00    -0.247 N 
ATOM     10  C   UNL d   1      29.393 -15.974   0.144  0.00  0.00     0.237 C 
ATOM     11  O   UNL d   1      30.286 -15.141   0.334  0.00  0.00    -0.272 OA
ATOM     12  H   UNL d   1      28.845 -17.919   0.216  0.00  0.00     0.192 HD
BRANCH  10  13
ATOM     13  C   UNL d   1      27.922 -15.651   0.237  0.00  0.00     0.107 C 
BRANCH  13  14
ATOM     14  C   UNL d   1      27.057 -16.605  -0.568  0.00  0.00     0.046 C 
BRANCH  14  15
ATOM     15  C   UNL d   1      26.250 -17.600   0.273  0.00  0.00     0.151 C 
BRANCH  15  16
ATOM     16  C   UNL d   1      24.767 -17.676  -0.070  0.00  0.00    -0.029 A 
ATOM     17  C   UNL d   1      24.071 -18.896  -0.147  0.00  0.00     0.012 A 
ATOM     18  C   UNL d   1      22.734 -18.974  -0.512  0.00  0.00     0.037 A 
ATOM     19  C   UNL d   1      22.037 -17.821  -0.808  0.00  0.00     0.068 A 
ATOM     20  C   UNL d   1      22.707 -16.598  -0.789  0.00  0.00     0.037 A 
ATOM     21  C   UNL d   1      24.053 -16.526  -0.421  0.00  0.00     0.012 A 
BRANCH  19  22
ATOM     22  O   UNL d   1      20.722 -18.022  -1.102  0.00  0.00    -0.352 OA
BRANCH  22  23
ATOM     23  C   UNL d   1      20.295 -19.375  -1.041  0.00  0.00     0.171 C 
ATOM     24  C   UNL d   1      19.518 -19.560   0.242  0.00  0.00     0.034 C 
ENDBRANCH  22  23
ENDBRANCH  19  22
ENDBRANCH  15  16
BRANCH  15  25
ATOM     25  O   UNL d   1      26.877 -18.880   0.099  0.00  0.00    -0.391 OA
ATOM     26  H   UNL d   1      27.719 -18.857   0.587  0.00  0.00     0.210 HD
ENDBRANCH  15  25
ENDBRANCH  14  15
ENDBRANCH  13  14
ENDBRANCH  10  13
ENDBRANCH   8   9
ENDBRANCH   3   7
BRANCH   1  27
ATOM     27  C   UNL d   1      30.329 -17.734  -6.388  0.00  0.00     0.068 C 
BRANCH  27  28
ATOM     28  C   UNL d   1      31.242 -18.923  -6.318  0.00  0.00    -0.032 C 
ATOM     29  C   UNL d   1      30.821 -20.179  -6.538  0.00  0.00     0.007 C 
ENDBRANCH  27  28
ENDBRANCH   1  27
BRANCH   5  30
ATOM     30  O   UNL d   1      29.056 -13.926  -3.208  0.00  0.00    -0.349 OA
BRANCH  30  31
ATOM     31  C   UNL d   1      29.801 -12.730  -3.360  0.00  0.00     0.171 C 
ATOM     32  C   UNL d   1      29.708 -12.149  -4.743  0.00  0.00     0.034 C 
ENDBRANCH  30  31
ENDBRANCH   5  30
BRANCH   6  33
ATOM     33  O   UNL d   1      28.810 -15.028  -5.774  0.00  0.00    -0.343 OA
BRANCH  33  34
ATOM     34  C   UNL d   1      27.430 -15.194  -5.852  0.00  0.00     0.214 C 
BRANCH  34  35
ATOM     35  C   UNL d   1      26.588 -14.607  -4.782  0.00  0.00    -0.034 C 
ATOM     36  C   UNL d   1      26.049 -15.394  -3.782  0.00  0.00     0.009 C 
ATOM     37  C   UNL d   1      25.247 -14.807  -2.833  0.00  0.00     0.001 C 
ATOM     38  C   UNL d   1      25.151 -13.417  -2.776  0.00  0.00     0.000 C 
ATOM     39  C   UNL d   1      25.834 -12.609  -3.683  0.00  0.00     0.001 C 
ATOM     40  C   UNL d   1      26.536 -13.209  -4.705  0.00  0.00     0.009 C 
ENDBRANCH  34  35
ENDBRANCH  33  34
ENDBRANCH   6  33
TORSDOF 16
ENDMDL
MODEL 4
REMARK VINA RESULT:    -8.001      4.124      7.259
REMARK INTER + INTRA:         -16.727
REMARK INTER:                 -12.774
REMARK INTRA:                  -3.952
REMARK CONF_INDEPENDENT:        4.773
REMARK UNBOUND:                -3.952
REMARK  16 active torsions:
REMARK  status: ('A' for Active; 'I' for Inactive)
REMARK    1  A    between atoms: C_2  and  C_3 
REMARK    2  A    between atoms: C_3  and  C_4 
REMARK    3  A    between atoms: C_6  and  C_7 
REMARK    4  A    between atoms: N_8  and  N_9 
REMARK       I    between atoms: N_9  and  C_10 
REMARK    5  A    between atoms: C_10  and  C_12 
REMARK    6  A    between atoms: C_12  and  C_13 
REMARK    7  A    between atoms: C_14  and  C_13 
REMARK    8  A    between atoms: C_14  and  C_16 
REMARK    9  A    between atoms: C_14  and  O_15 
REMARK   10  A    between atoms: C_19  and  O_20 
REMARK   11  A    between atoms: O_20  and  C_21 
REMARK   12  A    between atoms: C_26  and  O_27 
REMARK   13  A    between atoms: O_27  and  C_28 
REMARK   14  A    between atoms: C_30  and  O_31 
REMARK   15  A    between atoms: O_31  and  C_32 
REMARK   16  A    between atoms: C_32  and  C_33 
ROOT
ATOM      1  C   UNL d   1      27.003 -14.800  -0.456  0.00  0.00    -0.018 C 
ATOM      2  C   UNL d   1      28.322 -15.248  -0.186  0.00  0.00     0.023 C 
ATOM      3  C   UNL d   1      28.616 -16.609  -0.133  0.00  0.00    -0.014 C 
ATOM      4  C   UNL d   1      27.555 -17.497  -0.142  0.00  0.00     0.052 C 
ATOM      5  C   UNL d   1      26.292 -17.126  -0.559  0.00  0.00     0.103 C 
ATOM      6  C   UNL d   1      25.988 -15.762  -0.709  0.00  0.00     0.109 C 
ENDROOT
BRANCH   3   7
ATOM      7  C   UNL d   1      30.032 -17.068  -0.150  0.00  0.00     0.150 C 
ATOM      8  N   UNL d   1      31.090 -16.598   0.453  0.00  0.00    -0.184 NA
BRANCH   8   9
ATOM      9  N   UNL d   1      30.988 -15.534   1.289  0.00  0.00    -0.247 N 
ATOM     10  C   UNL d   1      31.662 -14.350   1.074  0.00  0.00     0.237 C 
ATOM     11  O   UNL d   1      32.513 -14.141   0.202  0.00  0.00    -0.272 OA
ATOM     12  H   UNL d   1      30.741 -15.708   2.254  0.00  0.00     0.192 HD
BRANCH  10  13
ATOM     13  C   UNL d   1      31.252 -13.319   2.097  0.00  0.00     0.107 C 
BRANCH  13  14
ATOM     14  C   UNL d   1      31.349 -13.833   3.523  0.00  0.00     0.046 C 
BRANCH  14  15
ATOM     15  C   UNL d   1      30.069 -14.485   4.056  0.00  0.00     0.151 C 
BRANCH  15  16
ATOM     16  C   UNL d   1      29.491 -13.835   5.307  0.00  0.00    -0.029 A 
ATOM     17  C   UNL d   1      30.012 -14.074   6.592  0.00  0.00     0.012 A 
ATOM     18  C   UNL d   1      29.456 -13.526   7.739  0.00  0.00     0.037 A 
ATOM     19  C   UNL d   1      28.352 -12.706   7.641  0.00  0.00     0.068 A 
ATOM     20  C   UNL d   1      27.779 -12.485   6.389  0.00  0.00     0.037 A 
ATOM     21  C   UNL d   1      28.343 -13.039   5.237  0.00  0.00     0.012 A 
BRANCH  19  22
ATOM     22  O   UNL d   1      27.930 -12.190   8.829  0.00  0.00    -0.352 OA
BRANCH  22  23
ATOM     23  C   UNL d   1      28.661 -12.628   9.965  0.00  0.00     0.171 C 
ATOM     24  C   UNL d   1      27.795 -13.606  10.726  0.00  0.00     0.034 C 
ENDBRANCH  22  23
ENDBRANCH  19  22
ENDBRANCH  15  16
BRANCH  15  25
ATOM     25  O   UNL d   1      29.118 -14.448   2.980  0.00  0.00    -0.391 OA
ATOM     26  H   UNL d   1      29.151 -15.314   2.538  0.00  0.00     0.210 HD
ENDBRANCH  15  25
ENDBRANCH  14  15
ENDBRANCH  13  14
ENDBRANCH  10  13
ENDBRANCH   8   9
ENDBRANCH   3   7
BRANCH   1  27
ATOM     27  C   UNL d   1      26.827 -13.292  -0.521  0.00  0.00     0.068 C 
BRANCH  27  28
ATOM     28  C   UNL d   1      27.227 -12.599   0.748  0.00  0.00    -0.032 C 
ATOM     29  C   UNL d   1      26.453 -12.586   1.846  0.00  0.00     0.007 C 
ENDBRANCH  27  28
ENDBRANCH   1  27
BRANCH   5  30
ATOM     30  O   UNL d   1      25.497 -18.231  -0.796  0.00  0.00    -0.349 OA
BRANCH  30  31
ATOM     31  C   UNL d   1      24.371 -18.371   0.052  0.00  0.00     0.171 C 
ATOM     32  C   UNL d   1      23.070 -18.084  -0.643  0.00  0.00     0.034 C 
ENDBRANCH  30  31
ENDBRANCH   5  30
BRANCH   6  33
ATOM     33  O   UNL d   1      24.694 -15.560  -1.079  0.00  0.00    -0.343 OA
BRANCH  33  34
ATOM     34  C   UNL d   1      24.319 -15.305  -2.395  0.00  0.00     0.214 C 
BRANCH  34  35
ATOM     35  C   UNL d   1      25.312 -14.680  -3.302  0.00  0.00    -0.034 C 
ATOM     36  C   UNL d   1      26.144 -15.450  -4.092  0.00  0.00     0.009 C 
ATOM     37  C   UNL d   1      27.071 -14.823  -4.891  0.00  0.00     0.001 C 
ATOM     38  C   UNL d   1      27.025 -13.437  -5.041  0.00  0.00     0.000 C 
ATOM     39  C   UNL d   1      26.073 -12.670  -4.374  0.00  0.00     0.001 C 
ATOM     40  C   UNL d   1      25.228 -13.293  -3.482  0.00  0.00     0.009 C 
ENDBRANCH  34  35
ENDBRANCH  33  34
ENDBRANCH   6  33
TORSDOF 16
ENDMDL
MODEL 5
REMARK VINA RESULT:    -7.868      3.194      5.675
REMARK INTER + INTRA:         -16.841
REMARK INTER:                 -12.641
REMARK INTRA:                  -4.200
REMARK CONF_INDEPENDENT:        4.773
REMARK UNBOUND:                -4.200
REMARK  16 active torsions:
REMARK  status: ('A' for Active; 'I' for Inactive)
REMARK    1  A    between atoms: C_2  and  C_3 
REMARK    2  A    between atoms: C_3  and  C_4 
REMARK    3  A    between atoms: C_6  and  C_7 
REMARK    4  A    between atoms: N_8  and  N_9 
REMARK       I    between atoms: N_9  and  C_10 
REMARK    5  A    between atoms: C_10  and  C_12 
REMARK    6  A    between atoms: C_12  and  C_13 
REMARK    7  A    between atoms: C_14  and  C_13 
REMARK    8  A    between atoms: C_14  and  C_16 
REMARK    9  A    between atoms: C_14  and  O_15 
REMARK   10  A    between atoms: C_19  and  O_20 
REMARK   11  A    between atoms: O_20  and  C_21 
REMARK   12  A    between atoms: C_26  and  O_27 
REMARK   13  A    between atoms: O_27  and  C_28 
REMARK   14  A    between atoms: C_30  and  O_31 
REMARK   15  A    between atoms: O_31  and  C_32 
REMARK   16  A    between atoms: C_32  and  C_33 
ROOT
ATOM      1  C   UNL d   1      26.347 -15.951  -2.352  0.00  0.00    -0.018 C 
ATOM      2  C   UNL d   1      27.620 -16.335  -1.856  0.00  0.00     0.023 C 
ATOM      3  C   UNL d   1      28.745 -16.300  -2.676  0.00  0.00    -0.014 C 
ATOM      4  C   UNL d   1      28.549 -16.082  -4.028  0.00  0.00     0.052 C 
ATOM      5  C   UNL d   1      27.374 -15.552  -4.522  0.00  0.00     0.103 C 
ATOM      6  C   UNL d   1      26.242 -15.491  -3.692  0.00  0.00     0.109 C 
ENDROOT
BRANCH   3   7
ATOM      7  C   UNL d   1      30.106 -16.411  -2.082  0.00  0.00     0.150 C 
ATOM      8  N   UNL d   1      30.519 -16.247  -0.854  0.00  0.00    -0.184 NA
BRANCH   8   9
ATOM      9  N   UNL d   1      29.635 -15.955   0.134  0.00  0.00    -0.247 N 
ATOM     10  C   UNL d   1      29.071 -14.705   0.284  0.00  0.00     0.237 C 
ATOM     11  O   UNL d   1      29.370 -13.687  -0.349  0.00  0.00    -0.272 OA
ATOM     12  H   UNL d   1      29.669 -16.507   0.980  0.00  0.00     0.192 HD
BRANCH  10  13
ATOM     13  C   UNL d   1      28.040 -14.724   1.386  0.00  0.00     0.107 C 
BRANCH  13  14
ATOM     14  C   UNL d   1      26.838 -13.847   1.083  0.00  0.00     0.046 C 
BRANCH  14  15
ATOM     15  C   UNL d   1      26.831 -12.498   1.812  0.00  0.00     0.151 C 
BRANCH  15  16
ATOM     16  C   UNL d   1      27.259 -12.557   3.273  0.00  0.00    -0.029 A 
ATOM     17  C   UNL d   1      27.067 -13.700   4.071  0.00  0.00     0.012 A 
ATOM     18  C   UNL d   1      27.407 -13.739   5.416  0.00  0.00     0.037 A 
ATOM     19  C   UNL d   1      27.963 -12.628   6.015  0.00  0.00     0.068 A 
ATOM     20  C   UNL d   1      28.125 -11.463   5.267  0.00  0.00     0.037 A 
ATOM     21  C   UNL d   1      27.781 -11.428   3.913  0.00  0.00     0.012 A 
BRANCH  19  22
ATOM     22  O   UNL d   1      28.300 -12.807   7.323  0.00  0.00    -0.352 OA
BRANCH  22  23
ATOM     23  C   UNL d   1      28.999 -14.011   7.602  0.00  0.00     0.171 C 
ATOM     24  C   UNL d   1      30.216 -14.060   6.706  0.00  0.00     0.034 C 
ENDBRANCH  22  23
ENDBRANCH  19  22
ENDBRANCH  15  16
BRANCH  15  25
ATOM     25  O   UNL d   1      27.695 -11.629   1.064  0.00  0.00    -0.391 OA
ATOM     26  H   UNL d   1      28.082 -12.158   0.344  0.00  0.00     0.210 HD
ENDBRANCH  15  25
ENDBRANCH  14  15
ENDBRANCH  13  14
ENDBRANCH  10  13
ENDBRANCH   8   9
ENDBRANCH   3   7
BRANCH   1  27
ATOM     27  C   UNL d   1      25.212 -16.002  -1.343  0.00  0.00     0.068 C 
BRANCH  27  28
ATOM     28  C   UNL d   1      24.926 -17.391  -0.851  0.00  0.00    -0.032 C 
ATOM     29  C   UNL d   1      23.685 -17.822  -0.569  0.00  0.00     0.007 C 
ENDBRANCH  27  28
ENDBRANCH   1  27
BRANCH   5  30
ATOM     30  O   UNL d   1      27.527 -15.121  -5.826  0.00  0.00    -0.349 OA
BRANCH  30  31
ATOM     31  C   UNL d   1      28.792 -14.567  -6.145  0.00  0.00     0.171 C 
ATOM     32  C   UNL d   1      28.709 -13.139  -6.607  0.00  0.00     0.034 C 
ENDBRANCH  30  31
ENDBRANCH   5  30
BRANCH   6  33
ATOM     33  O   UNL d   1      25.155 -14.988  -4.339  0.00  0.00    -0.343 OA
BRANCH  33  34
ATOM     34  C   UNL d   1      24.677 -13.700  -4.115  0.00  0.00     0.214 C 
BRANCH  34  35
ATOM     35  C   UNL d   1      25.659 -12.607  -3.922  0.00  0.00    -0.034 C 
ATOM     36  C   UNL d   1      25.906 -11.681  -4.917  0.00  0.00     0.009 C 
ATOM     37  C   UNL d   1      26.851 -10.706  -4.701  0.00  0.00     0.001 C 
ATOM     38  C   UNL d   1      27.397 -10.546  -3.428  0.00  0.00     0.000 C 
ATOM     39  C   UNL d   1      27.021 -11.375  -2.373  0.00  0.00     0.001 C 
ATOM     40  C   UNL d   1      26.166 -12.425  -2.628  0.00  0.00     0.009 C 
ENDBRANCH  34  35
ENDBRANCH  33  34
ENDBRANCH   6  33
TORSDOF 16
ENDMDL
MODEL 6
REMARK VINA RESULT:    -6.797      2.126      5.733
REMARK INTER + INTRA:         -16.751
REMARK INTER:                 -11.569
REMARK INTRA:                  -5.182
REMARK CONF_INDEPENDENT:        4.773
REMARK UNBOUND:                -5.182
REMARK  16 active torsions:
REMARK  status: ('A' for Active; 'I' for Inactive)
REMARK    1  A    between atoms: C_2  and  C_3 
REMARK    2  A    between atoms: C_3  and  C_4 
REMARK    3  A    between atoms: C_6  and  C_7 
REMARK    4  A    between atoms: N_8  and  N_9 
REMARK       I    between atoms: N_9  and  C_10 
REMARK    5  A    between atoms: C_10  and  C_12 
REMARK    6  A    between atoms: C_12  and  C_13 
REMARK    7  A    between atoms: C_14  and  C_13 
REMARK    8  A    between atoms: C_14  and  C_16 
REMARK    9  A    between atoms: C_14  and  O_15 
REMARK   10  A    between atoms: C_19  and  O_20 
REMARK   11  A    between atoms: O_20  and  C_21 
REMARK   12  A    between atoms: C_26  and  O_27 
REMARK   13  A    between atoms: O_27  and  C_28 
REMARK   14  A    between atoms: C_30  and  O_31 
REMARK   15  A    between atoms: O_31  and  C_32 
REMARK   16  A    between atoms: C_32  and  C_33 
ROOT
ATOM      1  C   UNL d   1      25.722 -15.858  -1.319  0.00  0.00    -0.018 C 
ATOM      2  C   UNL d   1      26.238 -15.618  -0.019  0.00  0.00     0.023 C 
ATOM      3  C   UNL d   1      26.771 -14.377   0.318  0.00  0.00    -0.014 C 
ATOM      4  C   UNL d   1      26.971 -13.464  -0.701  0.00  0.00     0.052 C 
ATOM      5  C   UNL d   1      26.348 -13.587  -1.928  0.00  0.00     0.103 C 
ATOM      6  C   UNL d   1      25.722 -14.798  -2.265  0.00  0.00     0.109 C 
ENDROOT
BRANCH   3   7
ATOM      7  C   UNL d   1      27.030 -14.038   1.745  0.00  0.00     0.150 C 
ATOM      8  N   UNL d   1      28.106 -14.168   2.473  0.00  0.00    -0.184 NA
BRANCH   8   9
ATOM      9  N   UNL d   1      29.250 -14.651   1.926  0.00  0.00    -0.247 N 
ATOM     10  C   UNL d   1      30.054 -13.900   1.094  0.00  0.00     0.237 C 
ATOM     11  O   UNL d   1      29.797 -12.778   0.647  0.00  0.00    -0.272 OA
ATOM     12  H   UNL d   1      29.332 -15.651   1.800  0.00  0.00     0.192 HD
BRANCH  10  13
ATOM     13  C   UNL d   1      31.310 -14.663   0.750  0.00  0.00     0.107 C 
BRANCH  13  14
ATOM     14  C   UNL d   1      31.025 -16.056   0.217  0.00  0.00     0.046 C 
BRANCH  14  15
ATOM     15  C   UNL d   1      29.704 -16.190  -0.549  0.00  0.00     0.151 C 
BRANCH  15  16
ATOM     16  C   UNL d   1      29.840 -16.690  -1.982  0.00  0.00    -0.029 A 
ATOM     17  C   UNL d   1      30.609 -17.819  -2.317  0.00  0.00     0.012 A 
ATOM     18  C   UNL d   1      30.780 -18.247  -3.626  0.00  0.00     0.037 A 
ATOM     19  C   UNL d   1      30.175 -17.558  -4.656  0.00  0.00     0.068 A 
ATOM     20  C   UNL d   1      29.444 -16.406  -4.366  0.00  0.00     0.037 A 
ATOM     21  C   UNL d   1      29.276 -15.980  -3.046  0.00  0.00     0.012 A 
BRANCH  19  22
ATOM     22  O   UNL d   1      30.374 -18.103  -5.889  0.00  0.00    -0.352 OA
BRANCH  22  23
ATOM     23  C   UNL d   1      31.017 -19.369  -5.886  0.00  0.00     0.171 C 
ATOM     24  C   UNL d   1      30.737 -20.036  -7.213  0.00  0.00     0.034 C 
ENDBRANCH  22  23
ENDBRANCH  19  22
ENDBRANCH  15  16
BRANCH  15  25
ATOM     25  O   UNL d   1      28.878 -17.076   0.221  0.00  0.00    -0.391 OA
ATOM     26  H   UNL d   1      29.462 -17.753   0.605  0.00  0.00     0.210 HD
ENDBRANCH  15  25
ENDBRANCH  14  15
ENDBRANCH  13  14
ENDBRANCH  10  13
ENDBRANCH   8   9
ENDBRANCH   3   7
BRANCH   1  27
ATOM     27  C   UNL d   1      25.138 -17.243  -1.543  0.00  0.00     0.068 C 
BRANCH  27  28
ATOM     28  C   UNL d   1      24.260 -17.699  -0.415  0.00  0.00    -0.032 C 
ATOM     29  C   UNL d   1      23.245 -18.562  -0.585  0.00  0.00     0.007 C 
ENDBRANCH  27  28
ENDBRANCH   1  27
BRANCH   5  30
ATOM     30  O   UNL d   1      26.431 -12.413  -2.652  0.00  0.00    -0.349 OA
BRANCH  30  31
ATOM     31  C   UNL d   1      27.653 -11.705  -2.537  0.00  0.00     0.171 C 
ATOM     32  C   UNL d   1      28.831 -12.474  -3.066  0.00  0.00     0.034 C 
ENDBRANCH  30  31
ENDBRANCH   5  30
BRANCH   6  33
ATOM     33  O   UNL d   1      25.197 -14.775  -3.521  0.00  0.00    -0.343 OA
BRANCH  33  34
ATOM     34  C   UNL d   1      25.899 -15.220  -4.637  0.00  0.00     0.214 C 
BRANCH  34  35
ATOM     35  C   UNL d   1      26.751 -14.251  -5.367  0.00  0.00    -0.034 C 
ATOM     36  C   UNL d   1      27.802 -14.674  -6.158  0.00  0.00     0.009 C 
ATOM     37  C   UNL d   1      28.582 -13.733  -6.788  0.00  0.00     0.001 C 
ATOM     38  C   UNL d   1      28.188 -12.395  -6.781  0.00  0.00     0.000 C 
ATOM     39  C   UNL d   1      27.029 -11.987  -6.124  0.00  0.00     0.001 C 
ATOM     40  C   UNL d   1      26.321 -12.917  -5.394  0.00  0.00     0.009 C 
ENDBRANCH  34  35
ENDBRANCH  33  34
ENDBRANCH   6  33
TORSDOF 16
ENDMDL
MODEL 7
REMARK VINA RESULT:    -6.788      2.844      7.017
REMARK INTER + INTRA:         -16.978
REMARK INTER:                 -11.561
REMARK INTRA:                  -5.417
REMARK CONF_INDEPENDENT:        4.773
REMARK UNBOUND:                -5.417
REMARK  16 active torsions:
REMARK  status: ('A' for Active; 'I' for Inactive)
REMARK    1  A    between atoms: C_2  and  C_3 
REMARK    2  A    between atoms: C_3  and  C_4 
REMARK    3  A    between atoms: C_6  and  C_7 
REMARK    4  A    between atoms: N_8  and  N_9 
REMARK       I    between atoms: N_9  and  C_10 
REMARK    5  A    between atoms: C_10  and  C_12 
REMARK    6  A    between atoms: C_12  and  C_13 
REMARK    7  A    between atoms: C_14  and  C_13 
REMARK    8  A    between atoms: C_14  and  C_16 
REMARK    9  A    between atoms: C_14  and  O_15 
REMARK   10  A    between atoms: C_19  and  O_20 
REMARK   11  A    between atoms: O_20  and  C_21 
REMARK   12  A    between atoms: C_26  and  O_27 
REMARK   13  A    between atoms: O_27  and  C_28 
REMARK   14  A    between atoms: C_30  and  O_31 
REMARK   15  A    between atoms: O_31  and  C_32 
REMARK   16  A    between atoms: C_32  and  C_33 
ROOT
ATOM      1  C   UNL d   1      28.293 -15.831  -2.637  0.00  0.00    -0.018 C 
ATOM      2  C   UNL d   1      28.808 -15.695  -3.952  0.00  0.00     0.023 C 
ATOM      3  C   UNL d   1      27.987 -15.289  -5.001  0.00  0.00    -0.014 C 
ATOM      4  C   UNL d   1      26.626 -15.226  -4.765  0.00  0.00     0.052 C 
ATOM      5  C   UNL d   1      26.104 -15.191  -3.487  0.00  0.00     0.103 C 
ATOM      6  C   UNL d   1      26.930 -15.509  -2.396  0.00  0.00     0.109 C 
ENDROOT
BRANCH   3   7
ATOM      7  C   UNL d   1      28.586 -14.862  -6.295  0.00  0.00     0.150 C 
ATOM      8  N   UNL d   1      29.491 -13.960  -6.563  0.00  0.00    -0.184 NA
BRANCH   8   9
ATOM      9  N   UNL d   1      30.077 -13.258  -5.560  0.00  0.00    -0.247 N 
ATOM     10  C   UNL d   1      29.374 -12.395  -4.746  0.00  0.00     0.237 C 
ATOM     11  O   UNL d   1      28.194 -12.056  -4.885  0.00  0.00    -0.272 OA
ATOM     12  H   UNL d   1      31.065 -13.056  -5.634  0.00  0.00     0.192 HD
BRANCH  10  13
ATOM     13  C   UNL d   1      30.267 -11.861  -3.652  0.00  0.00     0.107 C 
BRANCH  13  14
ATOM     14  C   UNL d   1      29.963 -12.471  -2.294  0.00  0.00     0.046 C 
BRANCH  14  15
ATOM     15  C   UNL d   1      28.474 -12.518  -1.933  0.00  0.00     0.151 C 
BRANCH  15  16
ATOM     16  C   UNL d   1      28.174 -12.949  -0.503  0.00  0.00    -0.029 A 
ATOM     17  C   UNL d   1      26.893 -12.836   0.068  0.00  0.00     0.012 A 
ATOM     18  C   UNL d   1      26.627 -13.177   1.386  0.00  0.00     0.037 A 
ATOM     19  C   UNL d   1      27.642 -13.656   2.187  0.00  0.00     0.068 A 
ATOM     20  C   UNL d   1      28.935 -13.737   1.670  0.00  0.00     0.037 A 
ATOM     21  C   UNL d   1      29.197 -13.392   0.342  0.00  0.00     0.012 A 
BRANCH  19  22
ATOM     22  O   UNL d   1      27.247 -14.005   3.444  0.00  0.00    -0.352 OA
BRANCH  22  23
ATOM     23  C   UNL d   1      28.159 -14.834   4.149  0.00  0.00     0.171 C 
ATOM     24  C   UNL d   1      28.241 -14.330   5.571  0.00  0.00     0.034 C 
ENDBRANCH  22  23
ENDBRANCH  19  22
ENDBRANCH  15  16
BRANCH  15  25
ATOM     25  O   UNL d   1      27.955 -11.203  -2.185  0.00  0.00    -0.391 OA
ATOM     26  H   UNL d   1      27.569 -11.212  -3.079  0.00  0.00     0.210 HD
ENDBRANCH  15  25
ENDBRANCH  14  15
ENDBRANCH  13  14
ENDBRANCH  10  13
ENDBRANCH   8   9
ENDBRANCH   3   7
BRANCH   1  27
ATOM     27  C   UNL d   1      29.303 -16.246  -1.580  0.00  0.00     0.068 C 
BRANCH  27  28
ATOM     28  C   UNL d   1      30.608 -16.704  -2.164  0.00  0.00    -0.032 C 
ATOM     29  C   UNL d   1      30.763 -17.902  -2.751  0.00  0.00     0.007 C 
ENDBRANCH  27  28
ENDBRANCH   1  27
BRANCH   5  30
ATOM     30  O   UNL d   1      24.779 -14.799  -3.497  0.00  0.00    -0.349 OA
BRANCH  30  31
ATOM     31  C   UNL d   1      24.517 -13.532  -4.074  0.00  0.00     0.171 C 
ATOM     32  C   UNL d   1      25.435 -12.454  -3.569  0.00  0.00     0.034 C 
ENDBRANCH  30  31
ENDBRANCH   5  30
BRANCH   6  33
ATOM     33  O   UNL d   1      26.257 -15.474  -1.213  0.00  0.00    -0.343 OA
BRANCH  33  34
ATOM     34  C   UNL d   1      25.985 -16.619  -0.470  0.00  0.00     0.214 C 
BRANCH  34  35
ATOM     35  C   UNL d   1      24.639 -17.230  -0.585  0.00  0.00    -0.034 C 
ATOM     36  C   UNL d   1      24.444 -18.580  -0.364  0.00  0.00     0.009 C 
ATOM     37  C   UNL d   1      23.183 -19.105  -0.517  0.00  0.00     0.001 C 
ATOM     38  C   UNL d   1      22.097 -18.248  -0.695  0.00  0.00     0.000 C 
ATOM     39  C   UNL d   1      22.270 -16.866  -0.749  0.00  0.00     0.001 C 
ATOM     40  C   UNL d   1      23.550 -16.358  -0.717  0.00  0.00     0.009 C 
ENDBRANCH  34  35
ENDBRANCH  33  34
ENDBRANCH   6  33
TORSDOF 16
ENDMDL
MODEL 8
REMARK VINA RESULT:    -6.472      2.267      6.869
REMARK INTER + INTRA:         -17.101
REMARK INTER:                 -11.245
REMARK INTRA:                  -5.857
REMARK CONF_INDEPENDENT:        4.773
REMARK UNBOUND:                -5.857
REMARK  16 active torsions:
REMARK  status: ('A' for Active; 'I' for Inactive)
REMARK    1  A    between atoms: C_2  and  C_3 
REMARK    2  A    between atoms: C_3  and  C_4 
REMARK    3  A    between atoms: C_6  and  C_7 
REMARK    4  A    between atoms: N_8  and  N_9 
REMARK       I    between atoms: N_9  and  C_10 
REMARK    5  A    between atoms: C_10  and  C_12 
REMARK    6  A    between atoms: C_12  and  C_13 
REMARK    7  A    between atoms: C_14  and  C_13 
REMARK    8  A    between atoms: C_14  and  C_16 
REMARK    9  A    between atoms: C_14  and  O_15 
REMARK   10  A    between atoms: C_19  and  O_20 
REMARK   11  A    between atoms: O_20  and  C_21 
REMARK   12  A    between atoms: C_26  and  O_27 
REMARK   13  A    between atoms: O_27  and  C_28 
REMARK   14  A    between atoms: C_30  and  O_31 
REMARK   15  A    between atoms: O_31  and  C_32 
REMARK   16  A    between atoms: C_32  and  C_33 
ROOT
ATOM      1  C   UNL d   1      26.982 -15.883  -2.451  0.00  0.00    -0.018 C 
ATOM      2  C   UNL d   1      27.909 -15.873  -3.525  0.00  0.00     0.023 C 
ATOM      3  C   UNL d   1      29.239 -16.235  -3.324  0.00  0.00    -0.014 C 
ATOM      4  C   UNL d   1      29.670 -16.400  -2.020  0.00  0.00     0.052 C 
ATOM      5  C   UNL d   1      28.787 -16.578  -0.973  0.00  0.00     0.103 C 
ATOM      6  C   UNL d   1      27.422 -16.306  -1.168  0.00  0.00     0.109 C 
ENDROOT
BRANCH   3   7
ATOM      7  C   UNL d   1      30.122 -16.511  -4.490  0.00  0.00     0.150 C 
ATOM      8  N   UNL d   1      30.395 -15.791  -5.545  0.00  0.00    -0.184 NA
BRANCH   8   9
ATOM      9  N   UNL d   1      29.863 -14.550  -5.685  0.00  0.00    -0.247 N 
ATOM     10  C   UNL d   1      28.568 -14.339  -6.110  0.00  0.00     0.237 C 
ATOM     11  O   UNL d   1      27.785 -15.200  -6.525  0.00  0.00    -0.272 OA
ATOM     12  H   UNL d   1      30.494 -13.779  -5.856  0.00  0.00     0.192 HD
BRANCH  10  13
ATOM     13  C   UNL d   1      28.228 -12.869  -6.046  0.00  0.00     0.107 C 
BRANCH  13  14
ATOM     14  C   UNL d   1      27.610 -12.466  -4.718  0.00  0.00     0.046 C 
BRANCH  14  15
ATOM     15  C   UNL d   1      28.623 -12.082  -3.633  0.00  0.00     0.151 C 
BRANCH  15  16
ATOM     16  C   UNL d   1      28.281 -12.578  -2.233  0.00  0.00    -0.029 A 
ATOM     17  C   UNL d   1      26.966 -12.578  -1.732  0.00  0.00     0.012 A 
ATOM     18  C   UNL d   1      26.658 -12.978  -0.439  0.00  0.00     0.037 A 
ATOM     19  C   UNL d   1      27.663 -13.403   0.404  0.00  0.00     0.068 A 
ATOM     20  C   UNL d   1      28.983 -13.371  -0.042  0.00  0.00     0.037 A 
ATOM     21  C   UNL d   1      29.288 -12.968  -1.344  0.00  0.00     0.012 A 
BRANCH  19  22
ATOM     22  O   UNL d   1      27.229 -13.817   1.627  0.00  0.00    -0.352 OA
BRANCH  22  23
ATOM     23  C   UNL d   1      28.214 -14.457   2.426  0.00  0.00     0.171 C 
ATOM     24  C   UNL d   1      27.784 -14.349   3.870  0.00  0.00     0.034 C 
ENDBRANCH  22  23
ENDBRANCH  19  22
ENDBRANCH  15  16
BRANCH  15  25
ATOM     25  O   UNL d   1      29.891 -12.604  -4.060  0.00  0.00    -0.391 OA
ATOM     26  H   UNL d   1      30.570 -12.221  -3.477  0.00  0.00     0.210 HD
ENDBRANCH  15  25
ENDBRANCH  14  15
ENDBRANCH  13  14
ENDBRANCH  10  13
ENDBRANCH   8   9
ENDBRANCH   3   7
BRANCH   1  27
ATOM     27  C   UNL d   1      25.557 -15.501  -2.815  0.00  0.00     0.068 C 
BRANCH  27  28
ATOM     28  C   UNL d   1      25.464 -14.754  -4.113  0.00  0.00    -0.032 C 
ATOM     29  C   UNL d   1      24.703 -13.658  -4.269  0.00  0.00     0.007 C 
ENDBRANCH  27  28
ENDBRANCH   1  27
BRANCH   5  30
ATOM     30  O   UNL d   1      29.434 -17.047   0.154  0.00  0.00    -0.349 OA
BRANCH  30  31
ATOM     31  C   UNL d   1      30.833 -16.827   0.195  0.00  0.00     0.171 C 
ATOM     32  C   UNL d   1      31.213 -15.585   0.952  0.00  0.00     0.034 C 
ENDBRANCH  30  31
ENDBRANCH   5  30
BRANCH   6  33
ATOM     33  O   UNL d   1      26.694 -16.485  -0.032  0.00  0.00    -0.343 OA
BRANCH  33  34
ATOM     34  C   UNL d   1      25.978 -17.650   0.227  0.00  0.00     0.214 C 
BRANCH  34  35
ATOM     35  C   UNL d   1      24.540 -17.687  -0.129  0.00  0.00    -0.034 C 
ATOM     36  C   UNL d   1      23.862 -16.540  -0.495  0.00  0.00     0.009 C 
ATOM     37  C   UNL d   1      22.521 -16.622  -0.784  0.00  0.00     0.001 C 
ATOM     38  C   UNL d   1      21.915 -17.873  -0.895  0.00  0.00     0.000 C 
ATOM     39  C   UNL d   1      22.640 -19.046  -0.692  0.00  0.00     0.001 C 
ATOM     40  C   UNL d   1      23.953 -18.950  -0.284  0.00  0.00     0.009 C 
ENDBRANCH  34  35
ENDBRANCH  33  34
ENDBRANCH   6  33
TORSDOF 16
ENDMDL
MODEL 9
REMARK VINA RESULT:    -6.469      2.713      7.116
REMARK INTER + INTRA:         -16.722
REMARK INTER:                 -11.241
REMARK INTRA:                  -5.481
REMARK CONF_INDEPENDENT:        4.773
REMARK UNBOUND:                -5.481
REMARK  16 active torsions:
REMARK  status: ('A' for Active; 'I' for Inactive)
REMARK    1  A    between atoms: C_2  and  C_3 
REMARK    2  A    between atoms: C_3  and  C_4 
REMARK    3  A    between atoms: C_6  and  C_7 
REMARK    4  A    between atoms: N_8  and  N_9 
REMARK       I    between atoms: N_9  and  C_10 
REMARK    5  A    between atoms: C_10  and  C_12 
REMARK    6  A    between atoms: C_12  and  C_13 
REMARK    7  A    between atoms: C_14  and  C_13 
REMARK    8  A    between atoms: C_14  and  C_16 
REMARK    9  A    between atoms: C_14  and  O_15 
REMARK   10  A    between atoms: C_19  and  O_20 
REMARK   11  A    between atoms: O_20  and  C_21 
REMARK   12  A    between atoms: C_26  and  O_27 
REMARK   13  A    between atoms: O_27  and  C_28 
REMARK   14  A    between atoms: C_30  and  O_31 
REMARK   15  A    between atoms: O_31  and  C_32 
REMARK   16  A    between atoms: C_32  and  C_33 
ROOT
ATOM      1  C   UNL d   1      28.213 -15.807  -2.958  0.00  0.00    -0.018 C 
ATOM      2  C   UNL d   1      28.920 -15.643  -4.177  0.00  0.00     0.023 C 
ATOM      3  C   UNL d   1      28.261 -15.236  -5.335  0.00  0.00    -0.014 C 
ATOM      4  C   UNL d   1      26.879 -15.200  -5.308  0.00  0.00     0.052 C 
ATOM      5  C   UNL d   1      26.168 -15.191  -4.124  0.00  0.00     0.103 C 
ATOM      6  C   UNL d   1      26.824 -15.511  -2.924  0.00  0.00     0.109 C 
ENDROOT
BRANCH   3   7
ATOM      7  C   UNL d   1      29.042 -14.782  -6.517  0.00  0.00     0.150 C 
ATOM      8  N   UNL d   1      29.568 -13.620  -6.800  0.00  0.00    -0.184 NA
BRANCH   8   9
ATOM      9  N   UNL d   1      29.476 -12.592  -5.918  0.00  0.00    -0.247 N 
ATOM     10  C   UNL d   1      28.474 -11.646  -5.980  0.00  0.00     0.237 C 
ATOM     11  O   UNL d   1      27.633 -11.529  -6.877  0.00  0.00    -0.272 OA
ATOM     12  H   UNL d   1      30.321 -12.282  -5.459  0.00  0.00     0.192 HD
BRANCH  10  13
ATOM     13  C   UNL d   1      28.564 -10.710  -4.799  0.00  0.00     0.107 C 
BRANCH  13  14
ATOM     14  C   UNL d   1      28.060 -11.338  -3.511  0.00  0.00     0.046 C 
BRANCH  14  15
ATOM     15  C   UNL d   1      29.162 -11.833  -2.568  0.00  0.00     0.151 C 
BRANCH  15  16
ATOM     16  C   UNL d   1      28.664 -12.547  -1.317  0.00  0.00    -0.029 A 
ATOM     17  C   UNL d   1      29.528 -13.233  -0.444  0.00  0.00     0.012 A 
ATOM     18  C   UNL d   1      29.072 -13.929   0.667  0.00  0.00     0.037 A 
ATOM     19  C   UNL d   1      27.723 -13.958   0.951  0.00  0.00     0.068 A 
ATOM     20  C   UNL d   1      26.832 -13.328   0.082  0.00  0.00     0.037 A 
ATOM     21  C   UNL d   1      27.296 -12.629  -1.035  0.00  0.00     0.012 A 
BRANCH  19  22
ATOM     22  O   UNL d   1      27.405 -14.629   2.093  0.00  0.00    -0.352 OA
BRANCH  22  23
ATOM     23  C   UNL d   1      27.404 -13.837   3.272  0.00  0.00     0.171 C 
ATOM     24  C   UNL d   1      28.436 -14.408   4.217  0.00  0.00     0.034 C 
ENDBRANCH  22  23
ENDBRANCH  19  22
ENDBRANCH  15  16
BRANCH  15  25
ATOM     25  O   UNL d   1      30.002 -12.700  -3.346  0.00  0.00    -0.391 OA
ATOM     26  H   UNL d   1      30.815 -12.850  -2.832  0.00  0.00     0.210 HD
ENDBRANCH  15  25
ENDBRANCH  14  15
ENDBRANCH  13  14
ENDBRANCH  10  13
ENDBRANCH   8   9
ENDBRANCH   3   7
BRANCH   1  27
ATOM     27  C   UNL d   1      29.059 -16.219  -1.764  0.00  0.00     0.068 C 
BRANCH  27  28
ATOM     28  C   UNL d   1      30.227 -17.082  -2.143  0.00  0.00    -0.032 C 
ATOM     29  C   UNL d   1      31.103 -17.557  -1.242  0.00  0.00     0.007 C 
ENDBRANCH  27  28
ENDBRANCH   1  27
BRANCH   5  30
ATOM     30  O   UNL d   1      24.853 -14.822  -4.332  0.00  0.00    -0.349 OA
BRANCH  30  31
ATOM     31  C   UNL d   1      24.405 -13.701  -3.589  0.00  0.00     0.171 C 
ATOM     32  C   UNL d   1      25.172 -12.446  -3.897  0.00  0.00     0.034 C 
ENDBRANCH  30  31
ENDBRANCH   5  30
BRANCH   6  33
ATOM     33  O   UNL d   1      25.978 -15.504  -1.857  0.00  0.00    -0.343 OA
BRANCH  33  34
ATOM     34  C   UNL d   1      25.858 -16.584  -0.987  0.00  0.00     0.214 C 
BRANCH  34  35
ATOM     35  C   UNL d   1      24.535 -17.241  -0.859  0.00  0.00    -0.034 C 
ATOM     36  C   UNL d   1      24.429 -18.576  -0.519  0.00  0.00     0.009 C 
ATOM     37  C   UNL d   1      23.180 -19.147  -0.446  0.00  0.00     0.001 C 
ATOM     38  C   UNL d   1      22.047 -18.338  -0.519  0.00  0.00     0.000 C 
ATOM     39  C   UNL d   1      22.155 -16.959  -0.692  0.00  0.00     0.001 C 
ATOM     40  C   UNL d   1      23.405 -16.413  -0.886  0.00  0.00     0.009 C 
ENDBRANCH  34  35
ENDBRANCH  33  34
ENDBRANCH   6  33
TORSDOF 16
ENDMDL
