MODEL 1
REMARK VINA RESULT:    -7.794      0.000      0.000
REMARK INTER + INTRA:         -10.312
REMARK INTER:                  -8.987
REMARK INTRA:                  -1.325
REMARK CONF_INDEPENDENT:        1.193
REMARK UNBOUND:                -1.325
REMARK  4 active torsions:
REMARK  status: ('A' for Active; 'I' for Inactive)
REMARK    1  A    between atoms: C_5  and  C_6 
REMARK       I    between atoms: C_6  and  N_8 
REMARK    2  A    between atoms: N_8  and  N_9 
REMARK       I    between atoms: N_9  and  C_10 
REMARK    3  A    between atoms: C_10  and  C_12 
REMARK    4  A    between atoms: C_18  and  O_19 
ROOT
ATOM      1  C   UNL d   1      21.879 -18.559  -0.575  0.00  0.00     0.272 C 
ATOM      2  O   UNL d   1      22.340 -18.939  -1.655  0.00  0.00    -0.266 OA
ATOM      3  N   UNL d   1      22.393 -17.451   0.098  0.00  0.00    -0.263 N 
ATOM      4  H   UNL d   1      22.048 -17.094   0.985  0.00  0.00     0.190 HD
ENDROOT
BRANCH   3   5
ATOM      5  N   UNL d   1      23.475 -16.714  -0.462  0.00  0.00    -0.263 N 
ATOM      6  C   UNL d   1      24.727 -17.312  -0.623  0.00  0.00     0.277 C 
ATOM      7  O   UNL d   1      24.894 -18.494  -0.291  0.00  0.00    -0.265 OA
ATOM      8  H   UNL d   1      23.254 -15.788  -0.820  0.00  0.00     0.190 HD
BRANCH   6   9
ATOM      9  C   UNL d   1      25.789 -16.462  -1.174  0.00  0.00     0.080 A 
ATOM     10  S   UNL d   1      25.437 -15.400  -2.484  0.00  0.00    -0.096 SA
ATOM     11  C   UNL d   1      27.050 -14.835  -2.576  0.00  0.00     0.051 A 
ATOM     12  C   UNL d   1      27.856 -15.461  -1.654  0.00  0.00     0.015 A 
ATOM     13  C   UNL d   1      27.140 -16.406  -0.842  0.00  0.00    -0.039 A 
ATOM     14  C   UNL d   1      27.803 -17.258   0.182  0.00  0.00     0.050 C 
ENDBRANCH   6   9
ENDBRANCH   3   5
BRANCH   1  15
ATOM     15  C   UNL d   1      20.721 -19.314   0.035  0.00  0.00     0.066 A 
ATOM     16  C   UNL d   1      20.626 -19.540   1.417  0.00  0.00     0.020 A 
ATOM     17  C   UNL d   1      19.533 -20.232   1.972  0.00  0.00     0.008 A 
ATOM     18  C   UNL d   1      18.498 -20.706   1.162  0.00  0.00    -0.059 A 
ATOM     19  C   UNL d   1      17.309 -21.426   1.730  0.00  0.00     0.048 C 
ATOM     20  C   UNL d   1      18.585 -20.497  -0.216  0.00  0.00     0.044 A 
ATOM     21  C   UNL d   1      19.679 -19.819  -0.772  0.00  0.00     0.082 A 
BRANCH  21  22
ATOM     22  O   UNL d   1      19.641 -19.700  -2.139  0.00  0.00    -0.360 OA
ATOM     23  H   UNL d   1      20.562 -19.715  -2.476  0.00  0.00     0.217 HD
ENDBRANCH  21  22
ENDBRANCH   1  15
TORSDOF 4
ENDMDL
MODEL 2
REMARK VINA RESULT:    -7.605      2.314      7.972
REMARK INTER + INTRA:         -10.547
REMARK INTER:                  -8.798
REMARK INTRA:                  -1.748
REMARK CONF_INDEPENDENT:        1.193
REMARK UNBOUND:                -1.748
REMARK  4 active torsions:
REMARK  status: ('A' for Active; 'I' for Inactive)
REMARK    1  A    between atoms: C_5  and  C_6 
REMARK       I    between atoms: C_6  and  N_8 
REMARK    2  A    between atoms: N_8  and  N_9 
REMARK       I    between atoms: N_9  and  C_10 
REMARK    3  A    between atoms: C_10  and  C_12 
REMARK    4  A    between atoms: C_18  and  O_19 
ROOT
ATOM      1  C   UNL d   1      24.283 -18.018  -0.390  0.00  0.00     0.272 C 
ATOM      2  O   UNL d   1      24.627 -18.573   0.657  0.00  0.00    -0.266 OA
ATOM      3  N   UNL d   1      23.005 -18.178  -0.924  0.00  0.00    -0.263 N 
ATOM      4  H   UNL d   1      22.669 -17.740  -1.778  0.00  0.00     0.190 HD
ENDROOT
BRANCH   3   5
ATOM      5  N   UNL d   1      22.047 -18.991  -0.255  0.00  0.00    -0.263 N 
ATOM      6  C   UNL d   1      20.682 -18.798  -0.476  0.00  0.00     0.277 C 
ATOM      7  O   UNL d   1      20.301 -17.926  -1.270  0.00  0.00    -0.265 OA
ATOM      8  H   UNL d   1      22.414 -19.764   0.296  0.00  0.00     0.190 HD
BRANCH   6   9
ATOM      9  C   UNL d   1      19.770 -19.660   0.286  0.00  0.00     0.080 A 
ATOM     10  S   UNL d   1      18.468 -20.448  -0.520  0.00  0.00    -0.096 SA
ATOM     11  C   UNL d   1      17.892 -21.167   0.922  0.00  0.00     0.051 A 
ATOM     12  C   UNL d   1      18.648 -20.793   2.007  0.00  0.00     0.015 A 
ATOM     13  C   UNL d   1      19.734 -19.920   1.654  0.00  0.00    -0.039 A 
ATOM     14  C   UNL d   1      20.655 -19.326   2.660  0.00  0.00     0.050 C 
ENDBRANCH   6   9
ENDBRANCH   3   5
BRANCH   1  15
ATOM     15  C   UNL d   1      25.275 -17.137  -1.114  0.00  0.00     0.066 A 
ATOM     16  C   UNL d   1      24.914 -16.380  -2.239  0.00  0.00     0.020 A 
ATOM     17  C   UNL d   1      25.845 -15.551  -2.893  0.00  0.00     0.008 A 
ATOM     18  C   UNL d   1      27.160 -15.448  -2.433  0.00  0.00    -0.059 A 
ATOM     19  C   UNL d   1      28.168 -14.554  -3.096  0.00  0.00     0.048 C 
ATOM     20  C   UNL d   1      27.535 -16.203  -1.320  0.00  0.00     0.044 A 
ATOM     21  C   UNL d   1      26.612 -17.039  -0.674  0.00  0.00     0.082 A 
BRANCH  21  22
ATOM     22  O   UNL d   1      27.122 -17.734   0.393  0.00  0.00    -0.360 OA
ATOM     23  H   UNL d   1      26.551 -18.515   0.555  0.00  0.00     0.217 HD
ENDBRANCH  21  22
ENDBRANCH   1  15
TORSDOF 4
ENDMDL
MODEL 3
REMARK VINA RESULT:    -7.512      1.270      1.575
REMARK INTER + INTRA:         -10.563
REMARK INTER:                  -8.705
REMARK INTRA:                  -1.858
REMARK CONF_INDEPENDENT:        1.193
REMARK UNBOUND:                -1.858
REMARK  4 active torsions:
REMARK  status: ('A' for Active; 'I' for Inactive)
REMARK    1  A    between atoms: C_5  and  C_6 
REMARK       I    between atoms: C_6  and  N_8 
REMARK    2  A    between atoms: N_8  and  N_9 
REMARK       I    between atoms: N_9  and  C_10 
REMARK    3  A    between atoms: C_10  and  C_12 
REMARK    4  A    between atoms: C_18  and  O_19 
ROOT
ATOM      1  C   UNL d   1      21.923 -18.232  -0.331  0.00  0.00     0.272 C 
ATOM      2  O   UNL d   1      21.657 -17.454  -1.250  0.00  0.00    -0.266 OA
ATOM      3  N   UNL d   1      23.202 -18.315   0.219  0.00  0.00    -0.263 N 
ATOM      4  H   UNL d   1      23.473 -18.933   0.979  0.00  0.00     0.190 HD
ENDROOT
BRANCH   3   5
ATOM      5  N   UNL d   1      24.246 -17.479  -0.270  0.00  0.00    -0.263 N 
ATOM      6  C   UNL d   1      25.560 -17.668   0.162  0.00  0.00     0.277 C 
ATOM      7  O   UNL d   1      25.823 -18.576   0.963  0.00  0.00    -0.265 OA
ATOM      8  H   UNL d   1      23.994 -16.826  -1.008  0.00  0.00     0.190 HD
BRANCH   6   9
ATOM      9  C   UNL d   1      26.561 -16.734  -0.369  0.00  0.00     0.080 A 
ATOM     10  S   UNL d   1      27.897 -16.268   0.612  0.00  0.00    -0.096 SA
ATOM     11  C   UNL d   1      28.531 -15.227  -0.589  0.00  0.00     0.051 A 
ATOM     12  C   UNL d   1      27.730 -15.202  -1.706  0.00  0.00     0.015 A 
ATOM     13  C   UNL d   1      26.587 -16.065  -1.590  0.00  0.00    -0.039 A 
ATOM     14  C   UNL d   1      25.537 -16.162  -2.639  0.00  0.00     0.050 C 
ENDBRANCH   6   9
ENDBRANCH   3   5
BRANCH   1  15
ATOM     15  C   UNL d   1      20.831 -19.121   0.218  0.00  0.00     0.066 A 
ATOM     16  C   UNL d   1      20.660 -19.324   1.596  0.00  0.00     0.020 A 
ATOM     17  C   UNL d   1      19.627 -20.142   2.093  0.00  0.00     0.008 A 
ATOM     18  C   UNL d   1      18.730 -20.770   1.225  0.00  0.00    -0.059 A 
ATOM     19  C   UNL d   1      17.605 -21.630   1.728  0.00  0.00     0.048 C 
ATOM     20  C   UNL d   1      18.895 -20.585  -0.149  0.00  0.00     0.044 A 
ATOM     21  C   UNL d   1      19.930 -19.780  -0.646  0.00  0.00     0.082 A 
BRANCH  21  22
ATOM     22  O   UNL d   1      19.984 -19.700  -2.015  0.00  0.00    -0.360 OA
ATOM     23  H   UNL d   1      20.279 -18.799  -2.261  0.00  0.00     0.217 HD
ENDBRANCH  21  22
ENDBRANCH   1  15
TORSDOF 4
ENDMDL
MODEL 4
REMARK VINA RESULT:    -6.045      4.472      9.502
REMARK INTER + INTRA:          -9.132
REMARK INTER:                  -7.239
REMARK INTRA:                  -1.894
REMARK CONF_INDEPENDENT:        1.193
REMARK UNBOUND:                -1.894
REMARK  4 active torsions:
REMARK  status: ('A' for Active; 'I' for Inactive)
REMARK    1  A    between atoms: C_5  and  C_6 
REMARK       I    between atoms: C_6  and  N_8 
REMARK    2  A    between atoms: N_8  and  N_9 
REMARK       I    between atoms: N_9  and  C_10 
REMARK    3  A    between atoms: C_10  and  C_12 
REMARK    4  A    between atoms: C_18  and  O_19 
ROOT
ATOM      1  C   UNL d   1      27.159 -14.582  -4.924  0.00  0.00     0.272 C 
ATOM      2  O   UNL d   1      27.876 -15.575  -5.070  0.00  0.00    -0.266 OA
ATOM      3  N   UNL d   1      26.156 -14.533  -3.957  0.00  0.00    -0.263 N 
ATOM      4  H   UNL d   1      25.542 -13.739  -3.790  0.00  0.00     0.190 HD
ENDROOT
BRANCH   3   5
ATOM      5  N   UNL d   1      25.940 -15.645  -3.093  0.00  0.00    -0.263 N 
ATOM      6  C   UNL d   1      24.780 -15.720  -2.320  0.00  0.00     0.277 C 
ATOM      7  O   UNL d   1      23.926 -14.825  -2.395  0.00  0.00    -0.265 OA
ATOM      8  H   UNL d   1      26.615 -16.403  -3.155  0.00  0.00     0.190 HD
BRANCH   6   9
ATOM      9  C   UNL d   1      24.663 -16.885  -1.433  0.00  0.00     0.080 A 
ATOM     10  S   UNL d   1      23.145 -17.683  -1.270  0.00  0.00    -0.096 SA
ATOM     11  C   UNL d   1      23.759 -18.810  -0.137  0.00  0.00     0.051 A 
ATOM     12  C   UNL d   1      25.083 -18.570   0.144  0.00  0.00     0.015 A 
ATOM     13  C   UNL d   1      25.616 -17.459  -0.596  0.00  0.00    -0.039 A 
ATOM     14  C   UNL d   1      27.007 -16.961  -0.418  0.00  0.00     0.050 C 
ENDBRANCH   6   9
ENDBRANCH   3   5
BRANCH   1  15
ATOM     15  C   UNL d   1      27.376 -13.382  -5.816  0.00  0.00     0.066 A 
ATOM     16  C   UNL d   1      28.357 -13.368  -6.820  0.00  0.00     0.020 A 
ATOM     17  C   UNL d   1      28.535 -12.248  -7.654  0.00  0.00     0.008 A 
ATOM     18  C   UNL d   1      27.730 -11.115  -7.515  0.00  0.00    -0.059 A 
ATOM     19  C   UNL d   1      27.882  -9.915  -8.406  0.00  0.00     0.048 C 
ATOM     20  C   UNL d   1      26.756 -11.111  -6.514  0.00  0.00     0.044 A 
ATOM     21  C   UNL d   1      26.585 -12.221  -5.674  0.00  0.00     0.082 A 
BRANCH  21  22
ATOM     22  O   UNL d   1      25.605 -12.072  -4.725  0.00  0.00    -0.360 OA
ATOM     23  H   UNL d   1      24.784 -11.776  -5.172  0.00  0.00     0.217 HD
ENDBRANCH  21  22
ENDBRANCH   1  15
TORSDOF 4
ENDMDL
MODEL 5
REMARK VINA RESULT:    -5.970      2.201      7.973
REMARK INTER + INTRA:          -8.936
REMARK INTER:                  -7.163
REMARK INTRA:                  -1.773
REMARK CONF_INDEPENDENT:        1.193
REMARK UNBOUND:                -1.773
REMARK  4 active torsions:
REMARK  status: ('A' for Active; 'I' for Inactive)
REMARK    1  A    between atoms: C_5  and  C_6 
REMARK       I    between atoms: C_6  and  N_8 
REMARK    2  A    between atoms: N_8  and  N_9 
REMARK       I    between atoms: N_9  and  C_10 
REMARK    3  A    between atoms: C_10  and  C_12 
REMARK    4  A    between atoms: C_18  and  O_19 
ROOT
ATOM      1  C   UNL d   1      24.962 -17.942   0.130  0.00  0.00     0.272 C 
ATOM      2  O   UNL d   1      25.197 -18.284   1.292  0.00  0.00    -0.266 OA
ATOM      3  N   UNL d   1      23.740 -18.210  -0.485  0.00  0.00    -0.263 N 
ATOM      4  H   UNL d   1      23.493 -17.946  -1.435  0.00  0.00     0.190 HD
ENDROOT
BRANCH   3   5
ATOM      5  N   UNL d   1      22.712 -18.887   0.232  0.00  0.00    -0.263 N 
ATOM      6  C   UNL d   1      21.370 -18.604  -0.027  0.00  0.00     0.277 C 
ATOM      7  O   UNL d   1      21.069 -17.771  -0.894  0.00  0.00    -0.265 OA
ATOM      8  H   UNL d   1      23.010 -19.639   0.848  0.00  0.00     0.190 HD
BRANCH   6   9
ATOM      9  C   UNL d   1      20.383 -19.325   0.787  0.00  0.00     0.080 A 
ATOM     10  S   UNL d   1      20.656 -19.529   2.475  0.00  0.00    -0.096 SA
ATOM     11  C   UNL d   1      19.213 -20.424   2.691  0.00  0.00     0.051 A 
ATOM     12  C   UNL d   1      18.547 -20.598   1.501  0.00  0.00     0.015 A 
ATOM     13  C   UNL d   1      19.214 -19.972   0.393  0.00  0.00    -0.039 A 
ATOM     14  C   UNL d   1      18.726 -20.074  -1.008  0.00  0.00     0.050 C 
ENDBRANCH   6   9
ENDBRANCH   3   5
BRANCH   1  15
ATOM     15  C   UNL d   1      26.029 -17.209  -0.649  0.00  0.00     0.066 A 
ATOM     16  C   UNL d   1      27.378 -17.224  -0.260  0.00  0.00     0.020 A 
ATOM     17  C   UNL d   1      28.362 -16.549  -1.006  0.00  0.00     0.008 A 
ATOM     18  C   UNL d   1      28.028 -15.850  -2.168  0.00  0.00    -0.059 A 
ATOM     19  C   UNL d   1      29.061 -15.141  -2.996  0.00  0.00     0.048 C 
ATOM     20  C   UNL d   1      26.688 -15.818  -2.562  0.00  0.00     0.044 A 
ATOM     21  C   UNL d   1      25.704 -16.480  -1.813  0.00  0.00     0.082 A 
BRANCH  21  22
ATOM     22  O   UNL d   1      24.430 -16.351  -2.306  0.00  0.00    -0.360 OA
ATOM     23  H   UNL d   1      23.990 -15.611  -1.836  0.00  0.00     0.217 HD
ENDBRANCH  21  22
ENDBRANCH   1  15
TORSDOF 4
ENDMDL
MODEL 6
REMARK VINA RESULT:    -5.965      3.503      5.485
REMARK INTER + INTRA:          -8.986
REMARK INTER:                  -7.158
REMARK INTRA:                  -1.829
REMARK CONF_INDEPENDENT:        1.193
REMARK UNBOUND:                -1.829
REMARK  4 active torsions:
REMARK  status: ('A' for Active; 'I' for Inactive)
REMARK    1  A    between atoms: C_5  and  C_6 
REMARK       I    between atoms: C_6  and  N_8 
REMARK    2  A    between atoms: N_8  and  N_9 
REMARK       I    between atoms: N_9  and  C_10 
REMARK    3  A    between atoms: C_10  and  C_12 
REMARK    4  A    between atoms: C_18  and  O_19 
ROOT
ATOM      1  C   UNL d   1      25.974 -16.136  -1.698  0.00  0.00     0.272 C 
ATOM      2  O   UNL d   1      26.909 -15.801  -0.966  0.00  0.00    -0.266 OA
ATOM      3  N   UNL d   1      25.988 -15.892  -3.071  0.00  0.00    -0.263 N 
ATOM      4  H   UNL d   1      25.249 -16.152  -3.718  0.00  0.00     0.190 HD
ENDROOT
BRANCH   3   5
ATOM      5  N   UNL d   1      27.108 -15.249  -3.671  0.00  0.00    -0.263 N 
ATOM      6  C   UNL d   1      27.191 -15.131  -5.060  0.00  0.00     0.277 C 
ATOM      7  O   UNL d   1      26.280 -15.575  -5.774  0.00  0.00    -0.265 OA
ATOM      8  H   UNL d   1      27.767 -14.804  -3.038  0.00  0.00     0.190 HD
BRANCH   6   9
ATOM      9  C   UNL d   1      28.399 -14.485  -5.588  0.00  0.00     0.080 A 
ATOM     10  S   UNL d   1      28.348 -12.825  -6.044  0.00  0.00    -0.096 SA
ATOM     11  C   UNL d   1      29.982 -12.823  -6.553  0.00  0.00     0.051 A 
ATOM     12  C   UNL d   1      30.554 -14.065  -6.415  0.00  0.00     0.015 A 
ATOM     13  C   UNL d   1      29.648 -15.035  -5.862  0.00  0.00    -0.039 A 
ATOM     14  C   UNL d   1      30.010 -16.467  -5.678  0.00  0.00     0.050 C 
ENDBRANCH   6   9
ENDBRANCH   3   5
BRANCH   1  15
ATOM     15  C   UNL d   1      24.780 -16.834  -1.090  0.00  0.00     0.066 A 
ATOM     16  C   UNL d   1      23.471 -16.361  -1.270  0.00  0.00     0.020 A 
ATOM     17  C   UNL d   1      22.367 -17.032  -0.711  0.00  0.00     0.008 A 
ATOM     18  C   UNL d   1      22.540 -18.201   0.035  0.00  0.00    -0.059 A 
ATOM     19  C   UNL d   1      21.379 -18.950   0.623  0.00  0.00     0.048 C 
ATOM     20  C   UNL d   1      23.838 -18.677   0.230  0.00  0.00     0.044 A 
ATOM     21  C   UNL d   1      24.940 -18.004  -0.316  0.00  0.00     0.082 A 
BRANCH  21  22
ATOM     22  O   UNL d   1      26.155 -18.574  -0.031  0.00  0.00    -0.360 OA
ATOM     23  H   UNL d   1      26.855 -17.904  -0.182  0.00  0.00     0.217 HD
ENDBRANCH  21  22
ENDBRANCH   1  15
TORSDOF 4
ENDMDL
MODEL 7
REMARK VINA RESULT:    -5.889      5.938     10.078
REMARK INTER + INTRA:          -8.960
REMARK INTER:                  -7.082
REMARK INTRA:                  -1.878
REMARK CONF_INDEPENDENT:        1.193
REMARK UNBOUND:                -1.878
REMARK  4 active torsions:
REMARK  status: ('A' for Active; 'I' for Inactive)
REMARK    1  A    between atoms: C_5  and  C_6 
REMARK       I    between atoms: C_6  and  N_8 
REMARK    2  A    between atoms: N_8  and  N_9 
REMARK       I    between atoms: N_9  and  C_10 
REMARK    3  A    between atoms: C_10  and  C_12 
REMARK    4  A    between atoms: C_18  and  O_19 
ROOT
ATOM      1  C   UNL d   1      25.893 -10.708  -3.313  0.00  0.00     0.272 C 
ATOM      2  O   UNL d   1      26.619 -10.570  -2.325  0.00  0.00    -0.266 OA
ATOM      3  N   UNL d   1      25.379 -11.951  -3.683  0.00  0.00    -0.263 N 
ATOM      4  H   UNL d   1      24.774 -12.119  -4.483  0.00  0.00     0.190 HD
ENDROOT
BRANCH   3   5
ATOM      5  N   UNL d   1      25.678 -13.107  -2.908  0.00  0.00    -0.263 N 
ATOM      6  C   UNL d   1      25.148 -14.349  -3.264  0.00  0.00     0.277 C 
ATOM      7  O   UNL d   1      24.428 -14.450  -4.267  0.00  0.00    -0.265 OA
ATOM      8  H   UNL d   1      26.363 -12.990  -2.165  0.00  0.00     0.190 HD
BRANCH   6   9
ATOM      9  C   UNL d   1      25.482 -15.476  -2.384  0.00  0.00     0.080 A 
ATOM     10  S   UNL d   1      24.223 -16.326  -1.572  0.00  0.00    -0.096 SA
ATOM     11  C   UNL d   1      25.319 -17.374  -0.780  0.00  0.00     0.051 A 
ATOM     12  C   UNL d   1      26.623 -17.070  -1.094  0.00  0.00     0.015 A 
ATOM     13  C   UNL d   1      26.730 -15.972  -2.016  0.00  0.00    -0.039 A 
ATOM     14  C   UNL d   1      28.036 -15.412  -2.457  0.00  0.00     0.050 C 
ENDBRANCH   6   9
ENDBRANCH   3   5
BRANCH   1  15
ATOM     15  C   UNL d   1      25.547  -9.495  -4.146  0.00  0.00     0.066 A 
ATOM     16  C   UNL d   1      25.529  -8.201  -3.603  0.00  0.00     0.020 A 
ATOM     17  C   UNL d   1      25.221  -7.079  -4.396  0.00  0.00     0.008 A 
ATOM     18  C   UNL d   1      24.934  -7.220  -5.756  0.00  0.00    -0.059 A 
ATOM     19  C   UNL d   1      24.625  -6.038  -6.631  0.00  0.00     0.048 C 
ATOM     20  C   UNL d   1      24.939  -8.503  -6.307  0.00  0.00     0.044 A 
ATOM     21  C   UNL d   1      25.234  -9.623  -5.516  0.00  0.00     0.082 A 
BRANCH  21  22
ATOM     22  O   UNL d   1      25.185 -10.821  -6.183  0.00  0.00    -0.360 OA
ATOM     23  H   UNL d   1      24.405 -11.321  -5.865  0.00  0.00     0.217 HD
ENDBRANCH  21  22
ENDBRANCH   1  15
TORSDOF 4
ENDMDL
MODEL 8
REMARK VINA RESULT:    -5.865      5.494      9.039
REMARK INTER + INTRA:          -9.023
REMARK INTER:                  -7.058
REMARK INTRA:                  -1.965
REMARK CONF_INDEPENDENT:        1.193
REMARK UNBOUND:                -1.965
REMARK  4 active torsions:
REMARK  status: ('A' for Active; 'I' for Inactive)
REMARK    1  A    between atoms: C_5  and  C_6 
REMARK       I    between atoms: C_6  and  N_8 
REMARK    2  A    between atoms: N_8  and  N_9 
REMARK       I    between atoms: N_9  and  C_10 
REMARK    3  A    between atoms: C_10  and  C_12 
REMARK    4  A    between atoms: C_18  and  O_19 
ROOT
ATOM      1  C   UNL d   1      27.374 -13.258   3.186  0.00  0.00     0.272 C 
ATOM      2  O   UNL d   1      26.717 -12.314   2.740  0.00  0.00    -0.266 OA
ATOM      3  N   UNL d   1      27.582 -14.425   2.452  0.00  0.00    -0.263 N 
ATOM      4  H   UNL d   1      28.118 -15.228   2.769  0.00  0.00     0.190 HD
ENDROOT
BRANCH   3   5
ATOM      5  N   UNL d   1      27.038 -14.550   1.141  0.00  0.00    -0.263 N 
ATOM      6  C   UNL d   1      26.989 -15.798   0.516  0.00  0.00     0.277 C 
ATOM      7  O   UNL d   1      27.405 -16.804   1.109  0.00  0.00    -0.265 OA
ATOM      8  H   UNL d   1      26.609 -13.717   0.747  0.00  0.00     0.190 HD
BRANCH   6   9
ATOM      9  C   UNL d   1      26.446 -15.822  -0.848  0.00  0.00     0.080 A 
ATOM     10  S   UNL d   1      26.947 -14.631  -1.986  0.00  0.00    -0.096 SA
ATOM     11  C   UNL d   1      25.933 -15.252  -3.217  0.00  0.00     0.051 A 
ATOM     12  C   UNL d   1      25.198 -16.325  -2.770  0.00  0.00     0.015 A 
ATOM     13  C   UNL d   1      25.482 -16.661  -1.402  0.00  0.00    -0.039 A 
ATOM     14  C   UNL d   1      24.768 -17.742  -0.669  0.00  0.00     0.050 C 
ENDBRANCH   6   9
ENDBRANCH   3   5
BRANCH   1  15
ATOM     15  C   UNL d   1      27.975 -13.146   4.568  0.00  0.00     0.066 A 
ATOM     16  C   UNL d   1      28.157 -11.907   5.202  0.00  0.00     0.020 A 
ATOM     17  C   UNL d   1      28.703 -11.821   6.497  0.00  0.00     0.008 A 
ATOM     18  C   UNL d   1      29.072 -12.973   7.198  0.00  0.00    -0.059 A 
ATOM     19  C   UNL d   1      29.635 -12.912   8.589  0.00  0.00     0.048 C 
ATOM     20  C   UNL d   1      28.905 -14.211   6.575  0.00  0.00     0.044 A 
ATOM     21  C   UNL d   1      28.372 -14.298   5.281  0.00  0.00     0.082 A 
BRANCH  21  22
ATOM     22  O   UNL d   1      28.281 -15.575   4.787  0.00  0.00    -0.360 OA
ATOM     23  H   UNL d   1      29.124 -15.794   4.338  0.00  0.00     0.217 HD
ENDBRANCH  21  22
ENDBRANCH   1  15
TORSDOF 4
ENDMDL
MODEL 9
REMARK VINA RESULT:    -5.762      5.332      7.894
REMARK INTER + INTRA:          -8.889
REMARK INTER:                  -6.955
REMARK INTRA:                  -1.934
REMARK CONF_INDEPENDENT:        1.193
REMARK UNBOUND:                -1.934
REMARK  4 active torsions:
REMARK  status: ('A' for Active; 'I' for Inactive)
REMARK    1  A    between atoms: C_5  and  C_6 
REMARK       I    between atoms: C_6  and  N_8 
REMARK    2  A    between atoms: N_8  and  N_9 
REMARK       I    between atoms: N_9  and  C_10 
REMARK    3  A    between atoms: C_10  and  C_12 
REMARK    4  A    between atoms: C_18  and  O_19 
ROOT
ATOM      1  C   UNL d   1      25.180 -14.223  -3.021  0.00  0.00     0.272 C 
ATOM      2  O   UNL d   1      24.405 -14.447  -3.955  0.00  0.00    -0.266 OA
ATOM      3  N   UNL d   1      25.751 -12.967  -2.821  0.00  0.00    -0.263 N 
ATOM      4  H   UNL d   1      26.389 -12.727  -2.067  0.00  0.00     0.190 HD
ENDROOT
BRANCH   3   5
ATOM      5  N   UNL d   1      25.437 -11.891  -3.700  0.00  0.00    -0.263 N 
ATOM      6  C   UNL d   1      26.119 -10.677  -3.598  0.00  0.00     0.277 C 
ATOM      7  O   UNL d   1      27.011 -10.537  -2.749  0.00  0.00    -0.265 OA
ATOM      8  H   UNL d   1      24.780 -12.095  -4.449  0.00  0.00     0.190 HD
BRANCH   6   9
ATOM      9  C   UNL d   1      25.701  -9.615  -4.523  0.00  0.00     0.080 A 
ATOM     10  S   UNL d   1      25.154  -8.106  -3.897  0.00  0.00    -0.096 SA
ATOM     11  C   UNL d   1      24.839  -7.473  -5.456  0.00  0.00     0.051 A 
ATOM     12  C   UNL d   1      25.109  -8.396  -6.438  0.00  0.00     0.015 A 
ATOM     13  C   UNL d   1      25.604  -9.639  -5.911  0.00  0.00    -0.039 A 
ATOM     14  C   UNL d   1      25.905 -10.818  -6.768  0.00  0.00     0.050 C 
ENDBRANCH   6   9
ENDBRANCH   3   5
BRANCH   1  15
ATOM     15  C   UNL d   1      25.519 -15.342  -2.064  0.00  0.00     0.066 A 
ATOM     16  C   UNL d   1      24.649 -16.421  -1.843  0.00  0.00     0.020 A 
ATOM     17  C   UNL d   1      24.987 -17.464  -0.960  0.00  0.00     0.008 A 
ATOM     18  C   UNL d   1      26.209 -17.463  -0.283  0.00  0.00    -0.059 A 
ATOM     19  C   UNL d   1      26.605 -18.575   0.647  0.00  0.00     0.048 C 
ATOM     20  C   UNL d   1      27.080 -16.391  -0.486  0.00  0.00     0.044 A 
ATOM     21  C   UNL d   1      26.740 -15.345  -1.356  0.00  0.00     0.082 A 
BRANCH  21  22
ATOM     22  O   UNL d   1      27.682 -14.351  -1.447  0.00  0.00    -0.360 OA
ATOM     23  H   UNL d   1      28.280 -14.420  -0.674  0.00  0.00     0.217 HD
ENDBRANCH  21  22
ENDBRANCH   1  15
TORSDOF 4
ENDMDL
