MODEL 1
REMARK VINA RESULT:    -6.714      0.000      0.000
REMARK INTER + INTRA:         -11.024
REMARK INTER:                  -8.802
REMARK INTRA:                  -2.222
REMARK CONF_INDEPENDENT:        2.088
REMARK UNBOUND:                -2.222
REMARK  7 active torsions:
REMARK  status: ('A' for Active; 'I' for Inactive)
REMARK       I    between atoms: C_2  and  N_4 
REMARK    1  A    between atoms: C_5  and  N_4 
REMARK    2  A    between atoms: C_6  and  O_7 
REMARK    3  A    between atoms: O_7  and  C_8 
REMARK    4  A    between atoms: C_28  and  C_29 
REMARK    5  A    between atoms: C_29  and  O_30 
REMARK    6  A    between atoms: C_31  and  O_32 
REMARK    7  A    between atoms: C_33  and  O_34 
ROOT
ATOM      1  C   UNL d   1      27.682 -15.017  -0.378  0.00  0.00     0.072 A 
ATOM      2  C   UNL d   1      26.280 -14.077   0.301  0.00  0.00     0.037 A 
ATOM      3  C   UNL d   1      26.523 -13.325   1.894  0.00  0.00     0.011 A 
ATOM      4  C   UNL d   1      28.104 -13.393   2.697  0.00  0.00    -0.047 A 
ATOM      5  C   UNL d   1      29.420 -14.225   1.994  0.00  0.00    -0.049 A 
ATOM      6  C   UNL d   1      29.315 -15.026   0.466  0.00  0.00     0.044 A 
ATOM      7  C   UNL d   1      30.645 -14.445   2.748  0.00  0.00     0.039 C 
ATOM      8  C   UNL d   1      30.590 -13.899   4.141  0.00  0.00     0.010 C 
ATOM      9  C   UNL d   1      30.013 -12.527   4.363  0.00  0.00    -0.000 C 
ATOM     10  C   UNL d   1      30.477 -12.061   6.017  0.00  0.00     0.006 C 
ATOM     11  C   UNL d   1      30.955 -12.757   7.732  0.00  0.00     0.013 C 
ATOM     12  C   UNL d   1      30.634 -14.174   7.729  0.00  0.00     0.079 C 
ATOM     13  C   UNL d   1      29.423 -13.819   6.961  0.00  0.00     0.135 C 
ATOM     14  O   UNL d   1      28.742 -14.758   6.568  0.00  0.00    -0.297 OA
ATOM     15  C   UNL d   1      29.163 -12.202   6.667  0.00  0.00     0.021 C 
ATOM     16  C   UNL d   1      29.331 -10.988   7.676  0.00  0.00     0.024 C 
ATOM     17  C   UNL d   1      27.780 -12.126   6.130  0.00  0.00     0.018 C 
ATOM     18  C   UNL d   1      27.525 -12.961   4.919  0.00  0.00     0.011 C 
ATOM     19  C   UNL d   1      28.445 -12.476   3.859  0.00  0.00     0.024 C 
ENDROOT
BRANCH   1  20
ATOM     20  O   UNL d   1      27.606 -16.090  -1.147  0.00  0.00    -0.318 OA
BRANCH  20  21
ATOM     21  C   UNL d   1      27.058 -15.356  -2.167  0.00  0.00     0.292 C 
ATOM     22  C   UNL d   1      25.462 -15.114  -2.212  0.00  0.00     0.171 C 
ATOM     23  C   UNL d   1      25.294 -14.463  -3.561  0.00  0.00     0.177 C 
ATOM     24  C   UNL d   1      26.251 -13.259  -3.713  0.00  0.00     0.180 C 
ATOM     25  C   UNL d   1      27.707 -13.564  -3.323  0.00  0.00     0.179 C 
ATOM     26  O   UNL d   1      27.728 -14.140  -2.054  0.00  0.00    -0.349 OA
BRANCH  22  27
ATOM     27  N   UNL d   1      24.581 -16.391  -2.075  0.00  0.00    -0.349 N 
ATOM     28  C   UNL d   1      24.635 -17.551  -1.022  0.00  0.00     0.214 C 
ATOM     29  C   UNL d   1      26.097 -17.894   0.539  0.00  0.00     0.117 C 
ATOM     30  O   UNL d   1      23.668 -18.263  -1.498  0.00  0.00    -0.274 OA
ATOM     31  H   UNL d   1      23.841 -16.525  -2.770  0.00  0.00     0.163 HD
ENDBRANCH  22  27
BRANCH  23  32
ATOM     32  O   UNL d   1      23.935 -14.075  -3.737  0.00  0.00    -0.391 OA
ATOM     33  H   UNL d   1      23.844 -13.732  -4.644  0.00  0.00     0.210 HD
ENDBRANCH  23  32
BRANCH  24  34
ATOM     34  O   UNL d   1      26.220 -12.867  -5.077  0.00  0.00    -0.390 OA
ATOM     35  H   UNL d   1      25.323 -13.047  -5.407  0.00  0.00     0.210 HD
ENDBRANCH  24  34
BRANCH  25  36
ATOM     36  C   UNL d   1      28.568 -12.331  -3.201  0.00  0.00     0.198 C 
BRANCH  36  37
ATOM     37  O   UNL d   1      28.721 -11.947  -1.854  0.00  0.00    -0.398 OA
ATOM     38  H   UNL d   1      28.473 -12.711  -1.307  0.00  0.00     0.209 HD
ENDBRANCH  36  37
ENDBRANCH  25  36
ENDBRANCH  20  21
ENDBRANCH   1  20
TORSDOF 7
ENDMDL
MODEL 2
REMARK VINA RESULT:    -6.692      2.358      4.139
REMARK INTER + INTRA:         -10.706
REMARK INTER:                  -8.780
REMARK INTRA:                  -1.926
REMARK CONF_INDEPENDENT:        2.088
REMARK UNBOUND:                -1.926
REMARK  7 active torsions:
REMARK  status: ('A' for Active; 'I' for Inactive)
REMARK       I    between atoms: C_2  and  N_4 
REMARK    1  A    between atoms: C_5  and  N_4 
REMARK    2  A    between atoms: C_6  and  O_7 
REMARK    3  A    between atoms: O_7  and  C_8 
REMARK    4  A    between atoms: C_28  and  C_29 
REMARK    5  A    between atoms: C_29  and  O_30 
REMARK    6  A    between atoms: C_31  and  O_32 
REMARK    7  A    between atoms: C_33  and  O_34 
ROOT
ATOM      1  C   UNL d   1      28.465 -12.927  -0.336  0.00  0.00     0.072 A 
ATOM      2  C   UNL d   1      28.288 -14.594   0.371  0.00  0.00     0.037 A 
ATOM      3  C   UNL d   1      28.303 -14.711   2.145  0.00  0.00     0.011 A 
ATOM      4  C   UNL d   1      28.357 -13.250   3.150  0.00  0.00    -0.047 A 
ATOM      5  C   UNL d   1      28.450 -11.695   2.449  0.00  0.00    -0.049 A 
ATOM      6  C   UNL d   1      28.474 -11.436   0.740  0.00  0.00     0.044 A 
ATOM      7  C   UNL d   1      28.695 -10.523   3.276  0.00  0.00     0.039 C 
ATOM      8  C   UNL d   1      28.866 -10.848   4.728  0.00  0.00     0.010 C 
ATOM      9  C   UNL d   1      27.919 -11.823   5.373  0.00  0.00    -0.000 C 
ATOM     10  C   UNL d   1      28.157 -11.650   7.128  0.00  0.00     0.006 C 
ATOM     11  C   UNL d   1      29.419 -11.122   8.463  0.00  0.00     0.013 C 
ATOM     12  C   UNL d   1      30.714 -11.006   7.812  0.00  0.00     0.079 C 
ATOM     13  C   UNL d   1      30.342 -12.203   7.031  0.00  0.00     0.135 C 
ATOM     14  O   UNL d   1      31.132 -12.541   6.157  0.00  0.00    -0.297 OA
ATOM     15  C   UNL d   1      28.876 -12.909   7.383  0.00  0.00     0.021 C 
ATOM     16  C   UNL d   1      28.247 -13.190   8.812  0.00  0.00     0.024 C 
ATOM     17  C   UNL d   1      28.891 -14.205   6.657  0.00  0.00     0.018 C 
ATOM     18  C   UNL d   1      29.123 -14.105   5.186  0.00  0.00     0.011 C 
ATOM     19  C   UNL d   1      28.012 -13.290   4.629  0.00  0.00     0.024 C 
ENDROOT
BRANCH   1  20
ATOM     20  O   UNL d   1      29.060 -12.619  -1.476  0.00  0.00    -0.318 OA
BRANCH  20  21
ATOM     21  C   UNL d   1      27.884 -12.772  -2.165  0.00  0.00     0.292 C 
ATOM     22  C   UNL d   1      27.195 -11.492  -2.868  0.00  0.00     0.171 C 
ATOM     23  C   UNL d   1      25.873 -12.066  -3.310  0.00  0.00     0.177 C 
ATOM     24  C   UNL d   1      26.083 -13.362  -4.126  0.00  0.00     0.180 C 
ATOM     25  C   UNL d   1      27.034 -14.372  -3.462  0.00  0.00     0.179 C 
ATOM     26  O   UNL d   1      28.220 -13.726  -3.122  0.00  0.00    -0.349 OA
BRANCH  22  27
ATOM     27  N   UNL d   1      27.005 -10.242  -1.958  0.00  0.00    -0.349 N 
ATOM     28  C   UNL d   1      26.283  -8.880  -2.245  0.00  0.00     0.214 C 
ATOM     29  C   UNL d   1      25.434  -8.165  -4.105  0.00  0.00     0.117 C 
ATOM     30  O   UNL d   1      26.516  -8.317  -1.107  0.00  0.00    -0.274 OA
ATOM     31  H   UNL d   1      27.407 -10.283  -1.017  0.00  0.00     0.163 HD
ENDBRANCH  22  27
BRANCH  23  32
ATOM     32  O   UNL d   1      25.155 -11.089  -4.057  0.00  0.00    -0.391 OA
ATOM     33  H   UNL d   1      25.040 -11.437  -4.960  0.00  0.00     0.210 HD
ENDBRANCH  23  32
BRANCH  24  34
ATOM     34  O   UNL d   1      24.810 -13.971  -4.281  0.00  0.00    -0.390 OA
ATOM     35  H   UNL d   1      24.369 -13.528  -5.026  0.00  0.00     0.210 HD
ENDBRANCH  24  34
BRANCH  25  36
ATOM     36  C   UNL d   1      27.455 -15.494  -4.380  0.00  0.00     0.198 C 
BRANCH  36  37
ATOM     37  O   UNL d   1      26.612 -15.575  -5.506  0.00  0.00    -0.398 OA
ATOM     38  H   UNL d   1      25.697 -15.603  -5.180  0.00  0.00     0.209 HD
ENDBRANCH  36  37
ENDBRANCH  25  36
ENDBRANCH  20  21
ENDBRANCH   1  20
TORSDOF 7
ENDMDL
MODEL 3
REMARK VINA RESULT:    -6.593      4.890     10.467
REMARK INTER + INTRA:         -10.890
REMARK INTER:                  -8.681
REMARK INTRA:                  -2.208
REMARK CONF_INDEPENDENT:        2.088
REMARK UNBOUND:                -2.208
REMARK  7 active torsions:
REMARK  status: ('A' for Active; 'I' for Inactive)
REMARK       I    between atoms: C_2  and  N_4 
REMARK    1  A    between atoms: C_5  and  N_4 
REMARK    2  A    between atoms: C_6  and  O_7 
REMARK    3  A    between atoms: O_7  and  C_8 
REMARK    4  A    between atoms: C_28  and  C_29 
REMARK    5  A    between atoms: C_29  and  O_30 
REMARK    6  A    between atoms: C_31  and  O_32 
REMARK    7  A    between atoms: C_33  and  O_34 
ROOT
ATOM      1  C   UNL d   1      25.641 -14.580  -3.303  0.00  0.00     0.072 A 
ATOM      2  C   UNL d   1      26.891 -15.571  -4.177  0.00  0.00     0.037 A 
ATOM      3  C   UNL d   1      27.722 -14.784  -5.538  0.00  0.00     0.011 A 
ATOM      4  C   UNL d   1      27.422 -13.077  -5.918  0.00  0.00    -0.047 A 
ATOM      5  C   UNL d   1      26.292 -12.156  -5.029  0.00  0.00    -0.049 A 
ATOM      6  C   UNL d   1      25.392 -12.802  -3.701  0.00  0.00     0.044 A 
ATOM      7  C   UNL d   1      25.908 -10.824  -5.473  0.00  0.00     0.039 C 
ATOM      8  C   UNL d   1      26.578 -10.408  -6.746  0.00  0.00     0.010 C 
ATOM      9  C   UNL d   1      28.050 -10.672  -6.914  0.00  0.00    -0.000 C 
ATOM     10  C   UNL d   1      28.563  -9.705  -8.318  0.00  0.00     0.006 C 
ATOM     11  C   UNL d   1      27.945  -8.897  -9.936  0.00  0.00     0.013 C 
ATOM     12  C   UNL d   1      26.622  -9.433 -10.209  0.00  0.00     0.079 C 
ATOM     13  C   UNL d   1      27.134 -10.732  -9.730  0.00  0.00     0.135 C 
ATOM     14  O   UNL d   1      26.312 -11.639  -9.654  0.00  0.00    -0.297 OA
ATOM     15  C   UNL d   1      28.738 -10.797  -9.290  0.00  0.00     0.021 C 
ATOM     16  C   UNL d   1      29.982 -10.166 -10.047  0.00  0.00     0.024 C 
ATOM     17  C   UNL d   1      29.031 -12.243  -9.114  0.00  0.00     0.018 C 
ATOM     18  C   UNL d   1      28.155 -12.950  -8.134  0.00  0.00     0.011 C 
ATOM     19  C   UNL d   1      28.357 -12.288  -6.819  0.00  0.00     0.024 C 
ENDROOT
BRANCH   1  20
ATOM     20  O   UNL d   1      24.538 -15.035  -2.733  0.00  0.00    -0.318 OA
BRANCH  20  21
ATOM     21  C   UNL d   1      25.269 -15.780  -1.845  0.00  0.00     0.292 C 
ATOM     22  C   UNL d   1      26.041 -15.049  -0.630  0.00  0.00     0.171 C 
ATOM     23  C   UNL d   1      26.850 -16.185  -0.059  0.00  0.00     0.177 C 
ATOM     24  C   UNL d   1      25.950 -17.406   0.237  0.00  0.00     0.180 C 
ATOM     25  C   UNL d   1      25.024 -17.796  -0.927  0.00  0.00     0.179 C 
ATOM     26  O   UNL d   1      24.320 -16.670  -1.348  0.00  0.00    -0.349 OA
BRANCH  22  27
ATOM     27  N   UNL d   1      26.943 -13.843  -1.031  0.00  0.00    -0.349 N 
ATOM     28  C   UNL d   1      28.401 -13.816  -1.606  0.00  0.00     0.214 C 
ATOM     29  C   UNL d   1      29.777 -15.465  -1.884  0.00  0.00     0.117 C 
ATOM     30  O   UNL d   1      28.533 -12.533  -1.683  0.00  0.00    -0.274 OA
ATOM     31  H   UNL d   1      26.551 -12.905  -0.907  0.00  0.00     0.163 HD
ENDBRANCH  22  27
BRANCH  23  32
ATOM     32  O   UNL d   1      27.532 -15.743   1.111  0.00  0.00    -0.391 OA
ATOM     33  H   UNL d   1      28.188 -16.426   1.342  0.00  0.00     0.210 HD
ENDBRANCH  23  32
BRANCH  24  34
ATOM     34  O   UNL d   1      26.807 -18.501   0.522  0.00  0.00    -0.390 OA
ATOM     35  H   UNL d   1      27.632 -18.133   0.883  0.00  0.00     0.210 HD
ENDBRANCH  24  34
BRANCH  25  36
ATOM     36  C   UNL d   1      23.960 -18.794  -0.540  0.00  0.00     0.198 C 
BRANCH  36  37
ATOM     37  O   UNL d   1      22.854 -18.722  -1.409  0.00  0.00    -0.398 OA
ATOM     38  H   UNL d   1      22.738 -17.788  -1.651  0.00  0.00     0.209 HD
ENDBRANCH  36  37
ENDBRANCH  25  36
ENDBRANCH  20  21
ENDBRANCH   1  20
TORSDOF 7
ENDMDL
MODEL 4
REMARK VINA RESULT:    -6.555      2.768      4.784
REMARK INTER + INTRA:         -10.876
REMARK INTER:                  -8.643
REMARK INTRA:                  -2.233
REMARK CONF_INDEPENDENT:        2.088
REMARK UNBOUND:                -2.233
REMARK  7 active torsions:
REMARK  status: ('A' for Active; 'I' for Inactive)
REMARK       I    between atoms: C_2  and  N_4 
REMARK    1  A    between atoms: C_5  and  N_4 
REMARK    2  A    between atoms: C_6  and  O_7 
REMARK    3  A    between atoms: O_7  and  C_8 
REMARK    4  A    between atoms: C_28  and  C_29 
REMARK    5  A    between atoms: C_29  and  O_30 
REMARK    6  A    between atoms: C_31  and  O_32 
REMARK    7  A    between atoms: C_33  and  O_34 
ROOT
ATOM      1  C   UNL d   1      26.414 -13.194  -3.144  0.00  0.00     0.072 A 
ATOM      2  C   UNL d   1      26.710 -11.504  -2.539  0.00  0.00     0.037 A 
ATOM      3  C   UNL d   1      27.405 -11.353  -0.909  0.00  0.00     0.011 A 
ATOM      4  C   UNL d   1      27.896 -12.793   0.004  0.00  0.00    -0.047 A 
ATOM      5  C   UNL d   1      27.669 -14.364  -0.627  0.00  0.00    -0.049 A 
ATOM      6  C   UNL d   1      26.978 -14.657  -2.185  0.00  0.00     0.044 A 
ATOM      7  C   UNL d   1      27.887 -15.536   0.206  0.00  0.00     0.039 C 
ATOM      8  C   UNL d   1      28.291 -15.200   1.608  0.00  0.00     0.010 C 
ATOM      9  C   UNL d   1      29.325 -14.130   1.831  0.00  0.00    -0.000 C 
ATOM     10  C   UNL d   1      29.836 -14.289   3.529  0.00  0.00     0.006 C 
ATOM     11  C   UNL d   1      29.277 -14.903   5.251  0.00  0.00     0.013 C 
ATOM     12  C   UNL d   1      27.846 -15.149   5.179  0.00  0.00     0.079 C 
ATOM     13  C   UNL d   1      27.758 -13.939   4.337  0.00  0.00     0.135 C 
ATOM     14  O   UNL d   1      26.655 -13.691   3.865  0.00  0.00    -0.297 OA
ATOM     15  C   UNL d   1      29.170 -13.096   4.077  0.00  0.00     0.021 C 
ATOM     16  C   UNL d   1      30.296 -12.731   5.134  0.00  0.00     0.024 C 
ATOM     17  C   UNL d   1      28.745 -11.821   3.444  0.00  0.00     0.018 C 
ATOM     18  C   UNL d   1      27.947 -11.971   2.191  0.00  0.00     0.011 C 
ATOM     19  C   UNL d   1      28.806 -12.692   1.217  0.00  0.00     0.024 C 
ENDROOT
BRANCH   1  20
ATOM     20  O   UNL d   1      25.439 -13.577  -3.951  0.00  0.00    -0.318 OA
BRANCH  20  21
ATOM     21  C   UNL d   1      26.225 -13.357  -5.053  0.00  0.00     0.292 C 
ATOM     22  C   UNL d   1      26.714 -11.859  -5.402  0.00  0.00     0.171 C 
ATOM     23  C   UNL d   1      27.350 -12.056  -6.754  0.00  0.00     0.177 C 
ATOM     24  C   UNL d   1      28.385 -13.203  -6.711  0.00  0.00     0.180 C 
ATOM     25  C   UNL d   1      27.864 -14.490  -6.050  0.00  0.00     0.179 C 
ATOM     26  O   UNL d   1      27.323 -14.178  -4.805  0.00  0.00    -0.349 OA
BRANCH  22  27
ATOM     27  N   UNL d   1      25.594 -10.775  -5.446  0.00  0.00    -0.349 N 
ATOM     28  C   UNL d   1      25.638  -9.257  -5.059  0.00  0.00     0.214 C 
ATOM     29  C   UNL d   1      27.250  -8.141  -4.138  0.00  0.00     0.117 C 
ATOM     30  O   UNL d   1      24.402  -8.978  -5.310  0.00  0.00    -0.274 OA
ATOM     31  H   UNL d   1      24.669 -11.072  -5.770  0.00  0.00     0.163 HD
ENDBRANCH  22  27
BRANCH  23  32
ATOM     32  O   UNL d   1      27.942 -10.835  -7.186  0.00  0.00    -0.391 OA
ATOM     33  H   UNL d   1      28.672 -11.061  -7.790  0.00  0.00     0.210 HD
ENDBRANCH  23  32
BRANCH  24  34
ATOM     34  O   UNL d   1      28.744 -13.496  -8.053  0.00  0.00    -0.390 OA
ATOM     35  H   UNL d   1      29.525 -14.075  -8.021  0.00  0.00     0.210 HD
ENDBRANCH  24  34
BRANCH  25  36
ATOM     36  C   UNL d   1      28.950 -15.497  -5.757  0.00  0.00     0.198 C 
BRANCH  36  37
ATOM     37  O   UNL d   1      29.757 -15.721  -6.889  0.00  0.00    -0.398 OA
ATOM     38  H   UNL d   1      29.241 -15.452  -7.668  0.00  0.00     0.209 HD
ENDBRANCH  36  37
ENDBRANCH  25  36
ENDBRANCH  20  21
ENDBRANCH   1  20
TORSDOF 7
ENDMDL
MODEL 5
REMARK VINA RESULT:    -6.463      2.739      9.523
REMARK INTER + INTRA:         -10.990
REMARK INTER:                  -8.551
REMARK INTRA:                  -2.439
REMARK CONF_INDEPENDENT:        2.088
REMARK UNBOUND:                -2.439
REMARK  7 active torsions:
REMARK  status: ('A' for Active; 'I' for Inactive)
REMARK       I    between atoms: C_2  and  N_4 
REMARK    1  A    between atoms: C_5  and  N_4 
REMARK    2  A    between atoms: C_6  and  O_7 
REMARK    3  A    between atoms: O_7  and  C_8 
REMARK    4  A    between atoms: C_28  and  C_29 
REMARK    5  A    between atoms: C_29  and  O_30 
REMARK    6  A    between atoms: C_31  and  O_32 
REMARK    7  A    between atoms: C_33  and  O_34 
ROOT
ATOM      1  C   UNL d   1      28.640 -13.983   5.007  0.00  0.00     0.072 A 
ATOM      2  C   UNL d   1      30.264 -14.385   4.293  0.00  0.00     0.037 A 
ATOM      3  C   UNL d   1      30.360 -14.450   2.518  0.00  0.00     0.011 A 
ATOM      4  C   UNL d   1      28.961 -14.011   1.519  0.00  0.00    -0.047 A 
ATOM      5  C   UNL d   1      27.470 -13.568   2.225  0.00  0.00    -0.049 A 
ATOM      6  C   UNL d   1      27.228 -13.493   3.935  0.00  0.00     0.044 A 
ATOM      7  C   UNL d   1      26.280 -13.407   1.404  0.00  0.00     0.039 C 
ATOM      8  C   UNL d   1      26.519 -13.687  -0.048  0.00  0.00     0.010 C 
ATOM      9  C   UNL d   1      27.754 -13.130  -0.703  0.00  0.00    -0.000 C 
ATOM     10  C   UNL d   1      27.501 -13.305  -2.456  0.00  0.00     0.006 C 
ATOM     11  C   UNL d   1      26.569 -14.322  -3.780  0.00  0.00     0.013 C 
ATOM     12  C   UNL d   1      26.025 -15.497  -3.119  0.00  0.00     0.079 C 
ATOM     13  C   UNL d   1      27.281 -15.549  -2.344  0.00  0.00     0.135 C 
ATOM     14  O   UNL d   1      27.336 -16.401  -1.466  0.00  0.00    -0.297 OA
ATOM     15  C   UNL d   1      28.440 -14.411  -2.709  0.00  0.00     0.021 C 
ATOM     16  C   UNL d   1      28.910 -13.923  -4.144  0.00  0.00     0.024 C 
ATOM     17  C   UNL d   1      29.659 -14.859  -1.987  0.00  0.00     0.018 C 
ATOM     18  C   UNL d   1      29.494 -15.034  -0.514  0.00  0.00     0.011 C 
ATOM     19  C   UNL d   1      29.107 -13.710   0.037  0.00  0.00     0.024 C 
ENDROOT
BRANCH   1  20
ATOM     20  O   UNL d   1      28.155 -14.431   6.152  0.00  0.00    -0.318 OA
BRANCH  20  21
ATOM     21  C   UNL d   1      28.926 -13.546   6.859  0.00  0.00     0.292 C 
ATOM     22  C   UNL d   1      28.315 -12.113   7.285  0.00  0.00     0.171 C 
ATOM     23  C   UNL d   1      29.532 -11.417   7.837  0.00  0.00     0.177 C 
ATOM     24  C   UNL d   1      30.230 -12.294   8.902  0.00  0.00     0.180 C 
ATOM     25  C   UNL d   1      30.464 -13.748   8.459  0.00  0.00     0.179 C 
ATOM     26  O   UNL d   1      29.266 -14.282   7.992  0.00  0.00    -0.349 OA
BRANCH  22  27
ATOM     27  N   UNL d   1      27.653 -11.292   6.137  0.00  0.00    -0.349 N 
ATOM     28  C   UNL d   1      28.274 -10.707   4.822  0.00  0.00     0.214 C 
ATOM     29  C   UNL d   1      30.350 -10.672   4.205  0.00  0.00     0.117 C 
ATOM     30  O   UNL d   1      27.207 -10.146   4.361  0.00  0.00    -0.274 OA
ATOM     31  H   UNL d   1      26.655 -11.082   6.229  0.00  0.00     0.163 HD
ENDBRANCH  22  27
BRANCH  23  32
ATOM     32  O   UNL d   1      29.158 -10.150   8.368  0.00  0.00    -0.391 OA
ATOM     33  H   UNL d   1      28.732 -10.308   9.230  0.00  0.00     0.210 HD
ENDBRANCH  23  32
BRANCH  24  34
ATOM     34  O   UNL d   1      31.487 -11.696   9.181  0.00  0.00    -0.390 OA
ATOM     35  H   UNL d   1      31.393 -10.742   9.019  0.00  0.00     0.210 HD
ENDBRANCH  24  34
BRANCH  25  36
ATOM     36  C   UNL d   1      30.880 -14.661   9.587  0.00  0.00     0.198 C 
BRANCH  36  37
ATOM     37  O   UNL d   1      29.819 -15.500   9.980  0.00  0.00    -0.398 OA
ATOM     38  H   UNL d   1      29.305 -15.708   9.181  0.00  0.00     0.209 HD
ENDBRANCH  36  37
ENDBRANCH  25  36
ENDBRANCH  20  21
ENDBRANCH   1  20
TORSDOF 7
ENDMDL
MODEL 6
REMARK VINA RESULT:    -6.427      1.919      2.935
REMARK INTER + INTRA:         -10.927
REMARK INTER:                  -8.515
REMARK INTRA:                  -2.412
REMARK CONF_INDEPENDENT:        2.088
REMARK UNBOUND:                -2.412
REMARK  7 active torsions:
REMARK  status: ('A' for Active; 'I' for Inactive)
REMARK       I    between atoms: C_2  and  N_4 
REMARK    1  A    between atoms: C_5  and  N_4 
REMARK    2  A    between atoms: C_6  and  O_7 
REMARK    3  A    between atoms: O_7  and  C_8 
REMARK    4  A    between atoms: C_28  and  C_29 
REMARK    5  A    between atoms: C_29  and  O_30 
REMARK    6  A    between atoms: C_31  and  O_32 
REMARK    7  A    between atoms: C_33  and  O_34 
ROOT
ATOM      1  C   UNL d   1      28.043 -15.249  -0.800  0.00  0.00     0.072 A 
ATOM      2  C   UNL d   1      26.539 -14.422  -0.198  0.00  0.00     0.037 A 
ATOM      3  C   UNL d   1      26.626 -13.689   1.420  0.00  0.00     0.011 A 
ATOM      4  C   UNL d   1      28.154 -13.666   2.323  0.00  0.00    -0.047 A 
ATOM      5  C   UNL d   1      29.567 -14.391   1.694  0.00  0.00    -0.049 A 
ATOM      6  C   UNL d   1      29.616 -15.164   0.149  0.00  0.00     0.044 A 
ATOM      7  C   UNL d   1      30.753 -14.543   2.522  0.00  0.00     0.039 C 
ATOM      8  C   UNL d   1      30.571 -14.031   3.918  0.00  0.00     0.010 C 
ATOM      9  C   UNL d   1      29.887 -12.707   4.124  0.00  0.00    -0.000 C 
ATOM     10  C   UNL d   1      30.211 -12.246   5.813  0.00  0.00     0.006 C 
ATOM     11  C   UNL d   1      30.626 -12.944   7.544  0.00  0.00     0.013 C 
ATOM     12  C   UNL d   1      30.405 -14.380   7.496  0.00  0.00     0.079 C 
ATOM     13  C   UNL d   1      29.224 -14.092   6.657  0.00  0.00     0.135 C 
ATOM     14  O   UNL d   1      28.636 -15.067   6.203  0.00  0.00    -0.297 OA
ATOM     15  C   UNL d   1      28.871 -12.490   6.373  0.00  0.00     0.021 C 
ATOM     16  C   UNL d   1      28.889 -11.289   7.411  0.00  0.00     0.024 C 
ATOM     17  C   UNL d   1      27.523 -12.498   5.748  0.00  0.00     0.018 C 
ATOM     18  C   UNL d   1      27.405 -13.322   4.510  0.00  0.00     0.011 C 
ATOM     19  C   UNL d   1      28.355 -12.753   3.520  0.00  0.00     0.024 C 
ENDROOT
BRANCH   1  20
ATOM     20  O   UNL d   1      28.091 -16.308  -1.590  0.00  0.00    -0.318 OA
BRANCH  20  21
ATOM     21  C   UNL d   1      27.759 -15.546  -2.680  0.00  0.00     0.292 C 
ATOM     22  C   UNL d   1      28.319 -15.949  -4.140  0.00  0.00     0.171 C 
ATOM     23  C   UNL d   1      27.891 -14.763  -4.966  0.00  0.00     0.177 C 
ATOM     24  C   UNL d   1      26.382 -14.481  -4.781  0.00  0.00     0.180 C 
ATOM     25  C   UNL d   1      25.930 -14.441  -3.312  0.00  0.00     0.179 C 
ATOM     26  O   UNL d   1      26.367 -15.595  -2.667  0.00  0.00    -0.349 OA
BRANCH  22  27
ATOM     27  N   UNL d   1      29.856 -16.190  -4.232  0.00  0.00    -0.349 N 
ATOM     28  C   UNL d   1      30.809 -17.016  -3.300  0.00  0.00     0.214 C 
ATOM     29  C   UNL d   1      30.355 -17.985  -1.418  0.00  0.00     0.117 C 
ATOM     30  O   UNL d   1      31.913 -16.778  -3.927  0.00  0.00    -0.274 OA
ATOM     31  H   UNL d   1      30.352 -15.749  -5.011  0.00  0.00     0.163 HD
ENDBRANCH  22  27
BRANCH  23  32
ATOM     32  O   UNL d   1      28.215 -14.992  -6.334  0.00  0.00    -0.391 OA
ATOM     33  H   UNL d   1      27.712 -14.349  -6.865  0.00  0.00     0.210 HD
ENDBRANCH  23  32
BRANCH  24  34
ATOM     34  O   UNL d   1      26.115 -13.219  -5.373  0.00  0.00    -0.390 OA
ATOM     35  H   UNL d   1      25.418 -12.796  -4.842  0.00  0.00     0.210 HD
ENDBRANCH  24  34
BRANCH  25  36
ATOM     36  C   UNL d   1      24.429 -14.450  -3.144  0.00  0.00     0.198 C 
BRANCH  36  37
ATOM     37  O   UNL d   1      23.795 -13.756  -4.193  0.00  0.00    -0.398 OA
ATOM     38  H   UNL d   1      24.213 -14.043  -5.022  0.00  0.00     0.209 HD
ENDBRANCH  36  37
ENDBRANCH  25  36
ENDBRANCH  20  21
ENDBRANCH   1  20
TORSDOF 7
ENDMDL
MODEL 7
REMARK VINA RESULT:    -6.335      2.009      3.451
REMARK INTER + INTRA:         -10.695
REMARK INTER:                  -8.423
REMARK INTRA:                  -2.272
REMARK CONF_INDEPENDENT:        2.088
REMARK UNBOUND:                -2.272
REMARK  7 active torsions:
REMARK  status: ('A' for Active; 'I' for Inactive)
REMARK       I    between atoms: C_2  and  N_4 
REMARK    1  A    between atoms: C_5  and  N_4 
REMARK    2  A    between atoms: C_6  and  O_7 
REMARK    3  A    between atoms: O_7  and  C_8 
REMARK    4  A    between atoms: C_28  and  C_29 
REMARK    5  A    between atoms: C_29  and  O_30 
REMARK    6  A    between atoms: C_31  and  O_32 
REMARK    7  A    between atoms: C_33  and  O_34 
ROOT
ATOM      1  C   UNL d   1      28.086 -13.958   0.699  0.00  0.00     0.072 A 
ATOM      2  C   UNL d   1      29.233 -12.546   0.743  0.00  0.00     0.037 A 
ATOM      3  C   UNL d   1      29.893 -12.105   2.335  0.00  0.00     0.011 A 
ATOM      4  C   UNL d   1      29.537 -13.091   3.767  0.00  0.00    -0.047 A 
ATOM      5  C   UNL d   1      28.512 -14.453   3.674  0.00  0.00    -0.049 A 
ATOM      6  C   UNL d   1      27.779 -14.977   2.199  0.00  0.00     0.044 A 
ATOM      7  C   UNL d   1      28.069 -15.131   4.883  0.00  0.00     0.039 C 
ATOM      8  C   UNL d   1      28.582 -14.497   6.140  0.00  0.00     0.010 C 
ATOM      9  C   UNL d   1      30.026 -14.079   6.207  0.00  0.00    -0.000 C 
ATOM     10  C   UNL d   1      30.364 -13.763   7.926  0.00  0.00     0.006 C 
ATOM     11  C   UNL d   1      29.555 -13.270   9.586  0.00  0.00     0.013 C 
ATOM     12  C   UNL d   1      28.213 -12.796   9.289  0.00  0.00     0.079 C 
ATOM     13  C   UNL d   1      28.787 -12.157   8.088  0.00  0.00     0.135 C 
ATOM     14  O   UNL d   1      27.988 -11.621   7.330  0.00  0.00    -0.297 OA
ATOM     15  C   UNL d   1      30.433 -12.293   7.874  0.00  0.00     0.021 C 
ATOM     16  C   UNL d   1      31.575 -12.127   8.963  0.00  0.00     0.024 C 
ATOM     17  C   UNL d   1      30.755 -11.355   6.767  0.00  0.00     0.018 C 
ATOM     18  C   UNL d   1      30.006 -11.592   5.498  0.00  0.00     0.011 C 
ATOM     19  C   UNL d   1      30.355 -12.962   5.042  0.00  0.00     0.024 C 
ENDROOT
BRANCH   1  20
ATOM     20  O   UNL d   1      27.061 -14.109  -0.122  0.00  0.00    -0.318 OA
BRANCH  20  21
ATOM     21  C   UNL d   1      27.776 -14.982  -0.900  0.00  0.00     0.292 C 
ATOM     22  C   UNL d   1      27.986 -14.669  -2.470  0.00  0.00     0.171 C 
ATOM     23  C   UNL d   1      28.623 -15.949  -2.950  0.00  0.00     0.177 C 
ATOM     24  C   UNL d   1      29.845 -16.315  -2.077  0.00  0.00     0.180 C 
ATOM     25  C   UNL d   1      29.571 -16.260  -0.565  0.00  0.00     0.179 C 
ATOM     26  O   UNL d   1      29.006 -15.027  -0.248  0.00  0.00    -0.349 OA
BRANCH  22  27
ATOM     27  N   UNL d   1      26.693 -14.334  -3.271  0.00  0.00    -0.349 N 
ATOM     28  C   UNL d   1      25.214 -14.807  -3.053  0.00  0.00     0.214 C 
ATOM     29  C   UNL d   1      24.455 -16.267  -1.645  0.00  0.00     0.117 C 
ATOM     30  O   UNL d   1      24.684 -14.188  -4.055  0.00  0.00    -0.274 OA
ATOM     31  H   UNL d   1      26.791 -13.710  -4.077  0.00  0.00     0.163 HD
ENDBRANCH  22  27
BRANCH  23  32
ATOM     32  O   UNL d   1      28.982 -15.817  -4.322  0.00  0.00    -0.391 OA
ATOM     33  H   UNL d   1      29.755 -16.389  -4.478  0.00  0.00     0.210 HD
ENDBRANCH  23  32
BRANCH  24  34
ATOM     34  O   UNL d   1      30.225 -17.638  -2.421  0.00  0.00    -0.390 OA
ATOM     35  H   UNL d   1      29.964 -17.780  -3.347  0.00  0.00     0.210 HD
ENDBRANCH  24  34
BRANCH  25  36
ATOM     36  C   UNL d   1      30.823 -16.338   0.276  0.00  0.00     0.198 C 
BRANCH  36  37
ATOM     37  O   UNL d   1      30.783 -15.411   1.336  0.00  0.00    -0.398 OA
ATOM     38  H   UNL d   1      29.898 -15.467   1.734  0.00  0.00     0.209 HD
ENDBRANCH  36  37
ENDBRANCH  25  36
ENDBRANCH  20  21
ENDBRANCH   1  20
TORSDOF 7
ENDMDL
MODEL 8
REMARK VINA RESULT:    -6.194      2.140      3.497
REMARK INTER + INTRA:         -10.922
REMARK INTER:                  -8.282
REMARK INTRA:                  -2.640
REMARK CONF_INDEPENDENT:        2.088
REMARK UNBOUND:                -2.640
REMARK  7 active torsions:
REMARK  status: ('A' for Active; 'I' for Inactive)
REMARK       I    between atoms: C_2  and  N_4 
REMARK    1  A    between atoms: C_5  and  N_4 
REMARK    2  A    between atoms: C_6  and  O_7 
REMARK    3  A    between atoms: O_7  and  C_8 
REMARK    4  A    between atoms: C_28  and  C_29 
REMARK    5  A    between atoms: C_29  and  O_30 
REMARK    6  A    between atoms: C_31  and  O_32 
REMARK    7  A    between atoms: C_33  and  O_34 
ROOT
ATOM      1  C   UNL d   1      28.022 -12.654  -2.166  0.00  0.00     0.072 A 
ATOM      2  C   UNL d   1      29.759 -13.102  -1.862  0.00  0.00     0.037 A 
ATOM      3  C   UNL d   1      30.221 -13.401  -0.171  0.00  0.00     0.011 A 
ATOM      4  C   UNL d   1      29.000 -13.384   1.118  0.00  0.00    -0.047 A 
ATOM      5  C   UNL d   1      27.364 -13.029   0.785  0.00  0.00    -0.049 A 
ATOM      6  C   UNL d   1      26.782 -12.691  -0.808  0.00  0.00     0.044 A 
ATOM      7  C   UNL d   1      26.415 -12.821   1.868  0.00  0.00     0.039 C 
ATOM      8  C   UNL d   1      27.034 -12.931   3.227  0.00  0.00     0.010 C 
ATOM      9  C   UNL d   1      27.990 -14.060   3.503  0.00  0.00    -0.000 C 
ATOM     10  C   UNL d   1      28.192 -14.110   5.271  0.00  0.00     0.006 C 
ATOM     11  C   UNL d   1      28.097 -13.050   6.859  0.00  0.00     0.013 C 
ATOM     12  C   UNL d   1      28.019 -11.658   6.446  0.00  0.00     0.079 C 
ATOM     13  C   UNL d   1      28.985 -12.000   5.383  0.00  0.00     0.135 C 
ATOM     14  O   UNL d   1      29.243 -11.108   4.583  0.00  0.00    -0.297 OA
ATOM     15  C   UNL d   1      29.557 -13.563   5.356  0.00  0.00     0.021 C 
ATOM     16  C   UNL d   1      30.030 -14.450   6.584  0.00  0.00     0.024 C 
ATOM     17  C   UNL d   1      30.679 -13.545   4.382  0.00  0.00     0.018 C 
ATOM     18  C   UNL d   1      30.324 -13.058   3.016  0.00  0.00     0.011 C 
ATOM     19  C   UNL d   1      29.284 -13.978   2.487  0.00  0.00     0.024 C 
ENDROOT
BRANCH   1  20
ATOM     20  O   UNL d   1      27.576 -11.848  -3.114  0.00  0.00    -0.318 OA
BRANCH  20  21
ATOM     21  C   UNL d   1      27.675 -12.845  -4.049  0.00  0.00     0.292 C 
ATOM     22  C   UNL d   1      26.387 -13.758  -4.387  0.00  0.00     0.171 C 
ATOM     23  C   UNL d   1      26.990 -14.813  -5.279  0.00  0.00     0.177 C 
ATOM     24  C   UNL d   1      27.789 -14.166  -6.433  0.00  0.00     0.180 C 
ATOM     25  C   UNL d   1      28.767 -13.070  -5.979  0.00  0.00     0.179 C 
ATOM     26  O   UNL d   1      28.086 -12.151  -5.185  0.00  0.00    -0.349 OA
BRANCH  22  27
ATOM     27  N   UNL d   1      25.663 -14.386  -3.159  0.00  0.00    -0.349 N 
ATOM     28  C   UNL d   1      26.185 -15.403  -2.086  0.00  0.00     0.214 C 
ATOM     29  C   UNL d   1      28.075 -16.459  -2.030  0.00  0.00     0.117 C 
ATOM     30  O   UNL d   1      25.096 -15.506  -1.400  0.00  0.00    -0.274 OA
ATOM     31  H   UNL d   1      24.688 -14.114  -3.002  0.00  0.00     0.163 HD
ENDBRANCH  22  27
BRANCH  23  32
ATOM     32  O   UNL d   1      25.962 -15.668  -5.769  0.00  0.00    -0.391 OA
ATOM     33  H   UNL d   1      26.270 -16.040  -6.615  0.00  0.00     0.210 HD
ENDBRANCH  23  32
BRANCH  24  34
ATOM     34  O   UNL d   1      28.527 -15.200  -7.065  0.00  0.00    -0.390 OA
ATOM     35  H   UNL d   1      28.560 -14.991  -8.014  0.00  0.00     0.210 HD
ENDBRANCH  24  34
BRANCH  25  36
ATOM     36  C   UNL d   1      29.328 -12.254  -7.119  0.00  0.00     0.198 C 
BRANCH  36  37
ATOM     37  O   UNL d   1      29.354 -13.000  -8.314  0.00  0.00    -0.398 OA
ATOM     38  H   UNL d   1      29.505 -13.929  -8.071  0.00  0.00     0.209 HD
ENDBRANCH  36  37
ENDBRANCH  25  36
ENDBRANCH  20  21
ENDBRANCH   1  20
TORSDOF 7
ENDMDL
MODEL 9
REMARK VINA RESULT:    -6.011      1.903      2.687
REMARK INTER + INTRA:         -10.662
REMARK INTER:                  -8.099
REMARK INTRA:                  -2.563
REMARK CONF_INDEPENDENT:        2.088
REMARK UNBOUND:                -2.563
REMARK  7 active torsions:
REMARK  status: ('A' for Active; 'I' for Inactive)
REMARK       I    between atoms: C_2  and  N_4 
REMARK    1  A    between atoms: C_5  and  N_4 
REMARK    2  A    between atoms: C_6  and  O_7 
REMARK    3  A    between atoms: O_7  and  C_8 
REMARK    4  A    between atoms: C_28  and  C_29 
REMARK    5  A    between atoms: C_29  and  O_30 
REMARK    6  A    between atoms: C_31  and  O_32 
REMARK    7  A    between atoms: C_33  and  O_34 
ROOT
ATOM      1  C   UNL d   1      26.731 -12.833  -1.092  0.00  0.00     0.072 A 
ATOM      2  C   UNL d   1      27.527 -11.206  -0.922  0.00  0.00     0.037 A 
ATOM      3  C   UNL d   1      28.369 -10.888   0.611  0.00  0.00     0.011 A 
ATOM      4  C   UNL d   1      28.522 -12.157   1.842  0.00  0.00    -0.047 A 
ATOM      5  C   UNL d   1      27.822 -13.699   1.617  0.00  0.00    -0.049 A 
ATOM      6  C   UNL d   1      26.951 -14.134   0.189  0.00  0.00     0.044 A 
ATOM      7  C   UNL d   1      27.780 -14.660   2.709  0.00  0.00     0.039 C 
ATOM      8  C   UNL d   1      28.375 -14.139   3.980  0.00  0.00     0.010 C 
ATOM      9  C   UNL d   1      29.677 -13.387   3.921  0.00  0.00    -0.000 C 
ATOM     10  C   UNL d   1      30.263 -13.289   5.599  0.00  0.00     0.006 C 
ATOM     11  C   UNL d   1      29.702 -13.303   7.426  0.00  0.00     0.013 C 
ATOM     12  C   UNL d   1      28.258 -13.141   7.436  0.00  0.00     0.079 C 
ATOM     13  C   UNL d   1      28.435 -12.184   6.325  0.00  0.00     0.135 C 
ATOM     14  O   UNL d   1      27.406 -11.748   5.822  0.00  0.00    -0.297 OA
ATOM     15  C   UNL d   1      29.997 -11.863   5.847  0.00  0.00     0.021 C 
ATOM     16  C   UNL d   1      31.263 -11.600   6.766  0.00  0.00     0.024 C 
ATOM     17  C   UNL d   1      29.885 -10.701   4.927  0.00  0.00     0.018 C 
ATOM     18  C   UNL d   1      28.976 -10.903   3.761  0.00  0.00     0.011 C 
ATOM     19  C   UNL d   1      29.521 -12.043   2.980  0.00  0.00     0.024 C 
ENDROOT
BRANCH   1  20
ATOM     20  O   UNL d   1      25.625 -13.098  -1.767  0.00  0.00    -0.318 OA
BRANCH  20  21
ATOM     21  C   UNL d   1      26.334 -13.235  -2.932  0.00  0.00     0.292 C 
ATOM     22  C   UNL d   1      26.436 -14.682  -3.642  0.00  0.00     0.171 C 
ATOM     23  C   UNL d   1      27.442 -14.413  -4.732  0.00  0.00     0.177 C 
ATOM     24  C   UNL d   1      27.029 -13.182  -5.569  0.00  0.00     0.180 C 
ATOM     25  C   UNL d   1      26.648 -11.953  -4.727  0.00  0.00     0.179 C 
ATOM     26  O   UNL d   1      25.701 -12.326  -3.777  0.00  0.00    -0.349 OA
BRANCH  22  27
ATOM     27  N   UNL d   1      26.883 -15.857  -2.721  0.00  0.00    -0.349 N 
ATOM     28  C   UNL d   1      26.073 -16.674  -1.656  0.00  0.00     0.214 C 
ATOM     29  C   UNL d   1      24.058 -16.337  -0.938  0.00  0.00     0.117 C 
ATOM     30  O   UNL d   1      27.030 -17.449  -1.268  0.00  0.00    -0.274 OA
ATOM     31  H   UNL d   1      27.856 -16.166  -2.798  0.00  0.00     0.163 HD
ENDBRANCH  22  27
BRANCH  23  32
ATOM     32  O   UNL d   1      27.586 -15.574  -5.545  0.00  0.00    -0.391 OA
ATOM     33  H   UNL d   1      27.905 -15.282  -6.417  0.00  0.00     0.210 HD
ENDBRANCH  23  32
BRANCH  24  34
ATOM     34  O   UNL d   1      28.135 -12.843  -6.392  0.00  0.00    -0.390 OA
ATOM     35  H   UNL d   1      28.758 -13.589  -6.357  0.00  0.00     0.210 HD
ENDBRANCH  24  34
BRANCH  25  36
ATOM     36  C   UNL d   1      25.981 -10.860  -5.527  0.00  0.00     0.198 C 
BRANCH  36  37
ATOM     37  O   UNL d   1      25.213 -10.018  -4.698  0.00  0.00    -0.398 OA
ATOM     38  H   UNL d   1      24.676 -10.591  -4.126  0.00  0.00     0.209 HD
ENDBRANCH  36  37
ENDBRANCH  25  36
ENDBRANCH  20  21
ENDBRANCH   1  20
TORSDOF 7
ENDMDL
