MODEL 1
REMARK VINA RESULT:    -7.788      0.000      0.000
REMARK INTER + INTRA:         -15.654
REMARK INTER:                 -11.367
REMARK INTRA:                  -4.287
REMARK CONF_INDEPENDENT:        3.580
REMARK UNBOUND:                -4.287
REMARK  12 active torsions:
REMARK  status: ('A' for Active; 'I' for Inactive)
REMARK    1  A    between atoms: C_2  and  O_3 
REMARK    2  A    between atoms: C_2  and  C_4 
REMARK    3  A    between atoms: C_4  and  N_5 
REMARK    4  A    between atoms: C_4  and  C_17 
REMARK    5  A    between atoms: N_5  and  S_6 
REMARK    6  A    between atoms: S_6  and  C_9 
REMARK    7  A    between atoms: C_17  and  O_19 
REMARK    8  A    between atoms: O_19  and  C_20 
REMARK    9  A    between atoms: C_20  and  C_21 
REMARK       I    between atoms: C_21  and  N_23 
REMARK   10  A    between atoms: N_23  and  C_24 
REMARK   11  A    between atoms: C_24  and  C_25 
REMARK   12  A    between atoms: C_25  and  C_26 
ROOT
ATOM      1  C   UNL d   1      25.808 -14.684  -4.584  0.00  0.00     0.199 C 
ENDROOT
BRANCH   1   2
ATOM      2  C   UNL d   1      26.137 -13.160  -4.503  0.00  0.00     0.142 C 
ATOM      3  C   UNL d   1      26.758 -12.726  -3.208  0.00  0.00     0.041 C 
BRANCH   2   4
ATOM      4  O   UNL d   1      27.056 -12.747  -5.514  0.00  0.00    -0.394 OA
ATOM      5  H   UNL d   1      27.528 -13.532  -5.840  0.00  0.00     0.210 HD
ENDBRANCH   2   4
ENDBRANCH   1   2
BRANCH   1   6
ATOM      6  N   UNL d   1      26.837 -15.524  -5.408  0.00  0.00    -0.199 NA
ATOM      7  H   UNL d   1      26.599 -15.359  -6.394  0.00  0.00     0.141 HD
BRANCH   6   8
ATOM      8  S   UNL d   1      28.523 -15.147  -5.243  0.00  0.00     0.242 S 
ATOM      9  O   UNL d   1      29.031 -14.899  -6.555  0.00  0.00    -0.206 OA
ATOM     10  O   UNL d   1      28.784 -14.249  -4.127  0.00  0.00    -0.206 OA
BRANCH   8  11
ATOM     11  C   UNL d   1      29.354 -16.539  -4.576  0.00  0.00     0.076 A 
ATOM     12  C   UNL d   1      30.111 -17.269  -5.516  0.00  0.00     0.026 A 
ATOM     13  C   UNL d   1      30.999 -18.241  -5.087  0.00  0.00     0.027 A 
ATOM     14  C   UNL d   1      31.125 -18.481  -3.720  0.00  0.00     0.055 A 
ATOM     15 CL   UNL d   1      32.209 -19.732  -3.238  0.00  0.00    -0.083 Cl
ATOM     16  C   UNL d   1      30.394 -17.717  -2.790  0.00  0.00     0.057 A 
ATOM     17 CL   UNL d   1      30.521 -17.962  -1.087  0.00  0.00    -0.083 Cl
ATOM     18  C   UNL d   1      29.527 -16.711  -3.216  0.00  0.00     0.050 A 
ENDBRANCH   8  11
ENDBRANCH   6   8
ENDBRANCH   1   6
BRANCH   1  19
ATOM     19  C   UNL d   1      25.692 -15.165  -3.092  0.00  0.00     0.280 C 
ATOM     20  O   UNL d   1      24.887 -14.736  -2.271  0.00  0.00    -0.263 OA
BRANCH  19  21
ATOM     21  O   UNL d   1      26.562 -16.171  -2.768  0.00  0.00    -0.311 OA
BRANCH  21  22
ATOM     22  C   UNL d   1      26.890 -16.251  -1.348  0.00  0.00     0.281 C 
BRANCH  22  23
ATOM     23  C   UNL d   1      25.877 -17.135  -0.598  0.00  0.00     0.241 C 
ATOM     24  O   UNL d   1      26.163 -17.685   0.464  0.00  0.00    -0.271 OA
ATOM     25  N   UNL d   1      24.619 -17.275  -1.176  0.00  0.00    -0.359 N 
ATOM     26  H   UNL d   1      24.381 -16.810  -2.044  0.00  0.00     0.162 HD
BRANCH  25  27
ATOM     27  C   UNL d   1      23.608 -18.086  -0.509  0.00  0.00     0.127 C 
BRANCH  27  28
ATOM     28  C   UNL d   1      22.279 -18.214  -1.270  0.00  0.00     0.053 C 
BRANCH  28  29
ATOM     29  C   UNL d   1      21.258 -18.968  -0.444  0.00  0.00    -0.082 C 
ATOM     30  C   UNL d   1      21.284 -18.950   0.903  0.00  0.00    -0.024 C 
ATOM     31  C   UNL d   1      20.235 -19.595   1.763  0.00  0.00     0.027 C 
ATOM     32  C   UNL d   1      19.367 -20.594   1.000  0.00  0.00     0.004 C 
ATOM     33  C   UNL d   1      18.951 -20.038  -0.355  0.00  0.00     0.005 C 
ATOM     34  C   UNL d   1      20.175 -19.701  -1.207  0.00  0.00     0.034 C 
ENDBRANCH  28  29
ENDBRANCH  27  28
ENDBRANCH  25  27
ENDBRANCH  22  23
ENDBRANCH  21  22
ENDBRANCH  19  21
ENDBRANCH   1  19
TORSDOF 12
ENDMDL
MODEL 2
REMARK VINA RESULT:    -7.232      2.982      5.006
REMARK INTER + INTRA:         -15.530
REMARK INTER:                 -10.811
REMARK INTRA:                  -4.718
REMARK CONF_INDEPENDENT:        3.580
REMARK UNBOUND:                -4.718
REMARK  12 active torsions:
REMARK  status: ('A' for Active; 'I' for Inactive)
REMARK    1  A    between atoms: C_2  and  O_3 
REMARK    2  A    between atoms: C_2  and  C_4 
REMARK    3  A    between atoms: C_4  and  N_5 
REMARK    4  A    between atoms: C_4  and  C_17 
REMARK    5  A    between atoms: N_5  and  S_6 
REMARK    6  A    between atoms: S_6  and  C_9 
REMARK    7  A    between atoms: C_17  and  O_19 
REMARK    8  A    between atoms: O_19  and  C_20 
REMARK    9  A    between atoms: C_20  and  C_21 
REMARK       I    between atoms: C_21  and  N_23 
REMARK   10  A    between atoms: N_23  and  C_24 
REMARK   11  A    between atoms: C_24  and  C_25 
REMARK   12  A    between atoms: C_25  and  C_26 
ROOT
ATOM      1  C   UNL d   1      28.497 -14.435  -5.267  0.00  0.00     0.199 C 
ENDROOT
BRANCH   1   2
ATOM      2  C   UNL d   1      29.340 -14.482  -6.580  0.00  0.00     0.142 C 
ATOM      3  C   UNL d   1      30.160 -15.728  -6.749  0.00  0.00     0.041 C 
BRANCH   2   4
ATOM      4  O   UNL d   1      28.527 -14.411  -7.751  0.00  0.00    -0.394 OA
ATOM      5  H   UNL d   1      29.030 -13.958  -8.449  0.00  0.00     0.210 HD
ENDBRANCH   2   4
ENDBRANCH   1   2
BRANCH   1   6
ATOM      6  N   UNL d   1      27.170 -15.259  -5.321  0.00  0.00    -0.199 NA
ATOM      7  H   UNL d   1      27.453 -16.242  -5.229  0.00  0.00     0.141 HD
BRANCH   6   8
ATOM      8  S   UNL d   1      25.978 -14.977  -4.092  0.00  0.00     0.242 S 
ATOM      9  O   UNL d   1      24.829 -14.423  -4.735  0.00  0.00    -0.206 OA
ATOM     10  O   UNL d   1      25.882 -16.083  -3.149  0.00  0.00    -0.206 OA
BRANCH   8  11
ATOM     11  C   UNL d   1      26.603 -13.800  -2.954  0.00  0.00     0.076 A 
ATOM     12  C   UNL d   1      26.638 -12.478  -3.445  0.00  0.00     0.026 A 
ATOM     13  C   UNL d   1      26.882 -11.424  -2.582  0.00  0.00     0.027 A 
ATOM     14  C   UNL d   1      27.093 -11.694  -1.231  0.00  0.00     0.055 A 
ATOM     15 CL   UNL d   1      27.437 -10.352  -0.205  0.00  0.00    -0.083 Cl
ATOM     16  C   UNL d   1      27.013 -13.014  -0.746  0.00  0.00     0.057 A 
ATOM     17 CL   UNL d   1      27.253 -13.404   0.917  0.00  0.00    -0.083 Cl
ATOM     18  C   UNL d   1      26.731 -14.075  -1.605  0.00  0.00     0.050 A 
ENDBRANCH   8  11
ENDBRANCH   6   8
ENDBRANCH   1   6
BRANCH   1  19
ATOM     19  C   UNL d   1      29.467 -14.927  -4.132  0.00  0.00     0.280 C 
ATOM     20  O   UNL d   1      30.373 -14.262  -3.638  0.00  0.00    -0.263 OA
BRANCH  19  21
ATOM     21  O   UNL d   1      29.193 -16.190  -3.681  0.00  0.00    -0.311 OA
BRANCH  21  22
ATOM     22  C   UNL d   1      30.188 -16.732  -2.761  0.00  0.00     0.281 C 
BRANCH  22  23
ATOM     23  C   UNL d   1      29.536 -17.160  -1.434  0.00  0.00     0.241 C 
ATOM     24  O   UNL d   1      30.209 -17.541  -0.478  0.00  0.00    -0.271 OA
ATOM     25  N   UNL d   1      28.148 -17.089  -1.366  0.00  0.00    -0.359 N 
ATOM     26  H   UNL d   1      27.596 -16.762  -2.150  0.00  0.00     0.162 HD
BRANCH  25  27
ATOM     27  C   UNL d   1      27.469 -17.465  -0.132  0.00  0.00     0.127 C 
BRANCH  27  28
ATOM     28  C   UNL d   1      26.259 -16.590   0.230  0.00  0.00     0.053 C 
BRANCH  28  29
ATOM     29  C   UNL d   1      24.969 -17.248  -0.216  0.00  0.00    -0.082 C 
ATOM     30  C   UNL d   1      24.792 -18.581  -0.146  0.00  0.00    -0.024 C 
ATOM     31  C   UNL d   1      23.498 -19.267  -0.477  0.00  0.00     0.027 C 
ATOM     32  C   UNL d   1      22.538 -18.381  -1.269  0.00  0.00     0.004 C 
ATOM     33  C   UNL d   1      22.483 -16.974  -0.689  0.00  0.00     0.005 C 
ATOM     34  C   UNL d   1      23.868 -16.326  -0.697  0.00  0.00     0.034 C 
ENDBRANCH  28  29
ENDBRANCH  27  28
ENDBRANCH  25  27
ENDBRANCH  22  23
ENDBRANCH  21  22
ENDBRANCH  19  21
ENDBRANCH   1  19
TORSDOF 12
ENDMDL
MODEL 3
REMARK VINA RESULT:    -7.209      3.728      7.590
REMARK INTER + INTRA:         -15.825
REMARK INTER:                 -10.788
REMARK INTRA:                  -5.037
REMARK CONF_INDEPENDENT:        3.580
REMARK UNBOUND:                -5.037
REMARK  12 active torsions:
REMARK  status: ('A' for Active; 'I' for Inactive)
REMARK    1  A    between atoms: C_2  and  O_3 
REMARK    2  A    between atoms: C_2  and  C_4 
REMARK    3  A    between atoms: C_4  and  N_5 
REMARK    4  A    between atoms: C_4  and  C_17 
REMARK    5  A    between atoms: N_5  and  S_6 
REMARK    6  A    between atoms: S_6  and  C_9 
REMARK    7  A    between atoms: C_17  and  O_19 
REMARK    8  A    between atoms: O_19  and  C_20 
REMARK    9  A    between atoms: C_20  and  C_21 
REMARK       I    between atoms: C_21  and  N_23 
REMARK   10  A    between atoms: N_23  and  C_24 
REMARK   11  A    between atoms: C_24  and  C_25 
REMARK   12  A    between atoms: C_25  and  C_26 
ROOT
ATOM      1  C   UNL d   1      27.326 -12.044  -4.509  0.00  0.00     0.199 C 
ENDROOT
BRANCH   1   2
ATOM      2  C   UNL d   1      26.534 -11.007  -3.650  0.00  0.00     0.142 C 
ATOM      3  C   UNL d   1      26.552  -9.608  -4.194  0.00  0.00     0.041 C 
BRANCH   2   4
ATOM      4  O   UNL d   1      25.152 -11.343  -3.530  0.00  0.00    -0.394 OA
ATOM      5  H   UNL d   1      24.910 -11.921  -4.273  0.00  0.00     0.210 HD
ENDBRANCH   2   4
ENDBRANCH   1   2
BRANCH   1   6
ATOM      6  N   UNL d   1      27.427 -13.467  -3.872  0.00  0.00    -0.199 NA
ATOM      7  H   UNL d   1      27.384 -13.317  -2.857  0.00  0.00     0.141 HD
BRANCH   6   8
ATOM      8  S   UNL d   1      26.189 -14.624  -4.246  0.00  0.00     0.242 S 
ATOM      9  O   UNL d   1      24.948 -13.918  -4.289  0.00  0.00    -0.206 OA
ATOM     10  O   UNL d   1      26.592 -15.548  -5.297  0.00  0.00    -0.206 OA
BRANCH   8  11
ATOM     11  C   UNL d   1      26.112 -15.810  -2.959  0.00  0.00     0.076 A 
ATOM     12  C   UNL d   1      27.350 -16.071  -2.334  0.00  0.00     0.026 A 
ATOM     13  C   UNL d   1      27.394 -16.800  -1.158  0.00  0.00     0.027 A 
ATOM     14  C   UNL d   1      26.201 -17.268  -0.611  0.00  0.00     0.055 A 
ATOM     15 CL   UNL d   1      26.312 -18.208   0.830  0.00  0.00    -0.083 Cl
ATOM     16  C   UNL d   1      24.969 -16.965  -1.221  0.00  0.00     0.057 A 
ATOM     17 CL   UNL d   1      23.461 -17.508  -0.581  0.00  0.00    -0.083 Cl
ATOM     18  C   UNL d   1      24.916 -16.200  -2.385  0.00  0.00     0.050 A 
ENDBRANCH   8  11
ENDBRANCH   6   8
ENDBRANCH   1   6
BRANCH   1  19
ATOM     19  C   UNL d   1      26.610 -12.058  -5.909  0.00  0.00     0.280 C 
ATOM     20  O   UNL d   1      25.460 -11.684  -6.120  0.00  0.00    -0.263 OA
BRANCH  19  21
ATOM     21  O   UNL d   1      27.408 -12.495  -6.932  0.00  0.00    -0.311 OA
BRANCH  21  22
ATOM     22  C   UNL d   1      28.809 -12.104  -6.812  0.00  0.00     0.281 C 
BRANCH  22  23
ATOM     23  C   UNL d   1      29.693 -13.319  -6.477  0.00  0.00     0.241 C 
ATOM     24  O   UNL d   1      30.907 -13.308  -6.675  0.00  0.00    -0.271 OA
ATOM     25  N   UNL d   1      29.053 -14.428  -5.932  0.00  0.00    -0.359 N 
ATOM     26  H   UNL d   1      28.055 -14.431  -5.758  0.00  0.00     0.162 HD
BRANCH  25  27
ATOM     27  C   UNL d   1      29.835 -15.607  -5.577  0.00  0.00     0.127 C 
BRANCH  27  28
ATOM     28  C   UNL d   1      30.552 -16.283  -6.755  0.00  0.00     0.053 C 
BRANCH  28  29
ATOM     29  C   UNL d   1      30.684 -17.774  -6.519  0.00  0.00    -0.082 C 
ATOM     30  C   UNL d   1      30.406 -18.329  -5.323  0.00  0.00    -0.024 C 
ATOM     31  C   UNL d   1      30.422 -19.809  -5.070  0.00  0.00     0.027 C 
ATOM     32  C   UNL d   1      31.155 -20.593  -6.156  0.00  0.00     0.004 C 
ATOM     33  C   UNL d   1      30.769 -20.101  -7.545  0.00  0.00     0.005 C 
ATOM     34  C   UNL d   1      31.095 -18.616  -7.708  0.00  0.00     0.034 C 
ENDBRANCH  28  29
ENDBRANCH  27  28
ENDBRANCH  25  27
ENDBRANCH  22  23
ENDBRANCH  21  22
ENDBRANCH  19  21
ENDBRANCH   1  19
TORSDOF 12
ENDMDL
MODEL 4
REMARK VINA RESULT:    -6.884      2.898      4.217
REMARK INTER + INTRA:         -15.561
REMARK INTER:                 -10.463
REMARK INTRA:                  -5.098
REMARK CONF_INDEPENDENT:        3.580
REMARK UNBOUND:                -5.098
REMARK  12 active torsions:
REMARK  status: ('A' for Active; 'I' for Inactive)
REMARK    1  A    between atoms: C_2  and  O_3 
REMARK    2  A    between atoms: C_2  and  C_4 
REMARK    3  A    between atoms: C_4  and  N_5 
REMARK    4  A    between atoms: C_4  and  C_17 
REMARK    5  A    between atoms: N_5  and  S_6 
REMARK    6  A    between atoms: S_6  and  C_9 
REMARK    7  A    between atoms: C_17  and  O_19 
REMARK    8  A    between atoms: O_19  and  C_20 
REMARK    9  A    between atoms: C_20  and  C_21 
REMARK       I    between atoms: C_21  and  N_23 
REMARK   10  A    between atoms: N_23  and  C_24 
REMARK   11  A    between atoms: C_24  and  C_25 
REMARK   12  A    between atoms: C_25  and  C_26 
ROOT
ATOM      1  C   UNL d   1      29.529 -14.894  -4.600  0.00  0.00     0.199 C 
ENDROOT
BRANCH   1   2
ATOM      2  C   UNL d   1      29.264 -13.482  -3.987  0.00  0.00     0.142 C 
ATOM      3  C   UNL d   1      28.314 -12.629  -4.776  0.00  0.00     0.041 C 
BRANCH   2   4
ATOM      4  O   UNL d   1      28.698 -13.556  -2.678  0.00  0.00    -0.394 OA
ATOM      5  H   UNL d   1      29.005 -14.375  -2.256  0.00  0.00     0.210 HD
ENDBRANCH   2   4
ENDBRANCH   1   2
BRANCH   1   6
ATOM      6  N   UNL d   1      29.483 -16.066  -3.568  0.00  0.00    -0.199 NA
ATOM      7  H   UNL d   1      28.702 -16.663  -3.866  0.00  0.00     0.141 HD
BRANCH   6   8
ATOM      8  S   UNL d   1      30.869 -17.103  -3.441  0.00  0.00     0.242 S 
ATOM      9  O   UNL d   1      31.985 -16.278  -3.104  0.00  0.00    -0.206 OA
ATOM     10  O   UNL d   1      30.573 -18.338  -2.730  0.00  0.00    -0.206 OA
BRANCH   8  11
ATOM     11  C   UNL d   1      31.171 -17.840  -5.002  0.00  0.00     0.076 A 
ATOM     12  C   UNL d   1      30.446 -19.028  -5.234  0.00  0.00     0.026 A 
ATOM     13  C   UNL d   1      30.407 -19.581  -6.503  0.00  0.00     0.027 A 
ATOM     14  C   UNL d   1      31.094 -18.945  -7.535  0.00  0.00     0.055 A 
ATOM     15 CL   UNL d   1      31.052 -19.695  -9.087  0.00  0.00    -0.083 Cl
ATOM     16  C   UNL d   1      31.779 -17.737  -7.300  0.00  0.00     0.057 A 
ATOM     17 CL   UNL d   1      32.635 -16.902  -8.543  0.00  0.00    -0.083 Cl
ATOM     18  C   UNL d   1      31.790 -17.157  -6.032  0.00  0.00     0.050 A 
ENDBRANCH   8  11
ENDBRANCH   6   8
ENDBRANCH   1   6
BRANCH   1  19
ATOM     19  C   UNL d   1      28.465 -15.055  -5.747  0.00  0.00     0.280 C 
ATOM     20  O   UNL d   1      28.577 -14.608  -6.884  0.00  0.00    -0.263 OA
BRANCH  19  21
ATOM     21  O   UNL d   1      27.375 -15.800  -5.386  0.00  0.00    -0.311 OA
BRANCH  21  22
ATOM     22  C   UNL d   1      26.132 -15.041  -5.286  0.00  0.00     0.281 C 
BRANCH  22  23
ATOM     23  C   UNL d   1      25.688 -14.901  -3.818  0.00  0.00     0.241 C 
ATOM     24  O   UNL d   1      24.541 -14.575  -3.520  0.00  0.00    -0.271 OA
ATOM     25  N   UNL d   1      26.647 -15.168  -2.846  0.00  0.00    -0.359 N 
ATOM     26  H   UNL d   1      27.588 -15.449  -3.094  0.00  0.00     0.162 HD
BRANCH  25  27
ATOM     27  C   UNL d   1      26.287 -15.069  -1.436  0.00  0.00     0.127 C 
BRANCH  27  28
ATOM     28  C   UNL d   1      26.341 -16.396  -0.663  0.00  0.00     0.053 C 
BRANCH  28  29
ATOM     29  C   UNL d   1      24.964 -17.018  -0.568  0.00  0.00    -0.082 C 
ATOM     30  C   UNL d   1      23.850 -16.325  -0.875  0.00  0.00    -0.024 C 
ATOM     31  C   UNL d   1      22.475 -16.928  -0.896  0.00  0.00     0.027 C 
ATOM     32  C   UNL d   1      22.398 -18.267  -0.165  0.00  0.00     0.004 C 
ATOM     33  C   UNL d   1      23.583 -19.155  -0.520  0.00  0.00     0.005 C 
ATOM     34  C   UNL d   1      24.903 -18.474  -0.159  0.00  0.00     0.034 C 
ENDBRANCH  28  29
ENDBRANCH  27  28
ENDBRANCH  25  27
ENDBRANCH  22  23
ENDBRANCH  21  22
ENDBRANCH  19  21
ENDBRANCH   1  19
TORSDOF 12
ENDMDL
MODEL 5
REMARK VINA RESULT:    -6.791      2.202      3.075
REMARK INTER + INTRA:         -15.453
REMARK INTER:                 -10.370
REMARK INTRA:                  -5.082
REMARK CONF_INDEPENDENT:        3.580
REMARK UNBOUND:                -5.082
REMARK  12 active torsions:
REMARK  status: ('A' for Active; 'I' for Inactive)
REMARK    1  A    between atoms: C_2  and  O_3 
REMARK    2  A    between atoms: C_2  and  C_4 
REMARK    3  A    between atoms: C_4  and  N_5 
REMARK    4  A    between atoms: C_4  and  C_17 
REMARK    5  A    between atoms: N_5  and  S_6 
REMARK    6  A    between atoms: S_6  and  C_9 
REMARK    7  A    between atoms: C_17  and  O_19 
REMARK    8  A    between atoms: O_19  and  C_20 
REMARK    9  A    between atoms: C_20  and  C_21 
REMARK       I    between atoms: C_21  and  N_23 
REMARK   10  A    between atoms: N_23  and  C_24 
REMARK   11  A    between atoms: C_24  and  C_25 
REMARK   12  A    between atoms: C_25  and  C_26 
ROOT
ATOM      1  C   UNL d   1      26.867 -14.309  -5.481  0.00  0.00     0.199 C 
ENDROOT
BRANCH   1   2
ATOM      2  C   UNL d   1      27.218 -12.793  -5.608  0.00  0.00     0.142 C 
ATOM      3  C   UNL d   1      26.233 -11.869  -4.952  0.00  0.00     0.041 C 
BRANCH   2   4
ATOM      4  O   UNL d   1      28.478 -12.475  -5.016  0.00  0.00    -0.394 OA
ATOM      5  H   UNL d   1      28.726 -13.198  -4.415  0.00  0.00     0.210 HD
ENDBRANCH   2   4
ENDBRANCH   1   2
BRANCH   1   6
ATOM      6  N   UNL d   1      28.042 -15.277  -5.832  0.00  0.00    -0.199 NA
ATOM      7  H   UNL d   1      28.569 -14.808  -6.580  0.00  0.00     0.141 HD
BRANCH   6   8
ATOM      8  S   UNL d   1      29.194 -15.655  -4.590  0.00  0.00     0.242 S 
ATOM      9  O   UNL d   1      30.053 -14.523  -4.450  0.00  0.00    -0.206 OA
ATOM     10  O   UNL d   1      28.577 -16.307  -3.443  0.00  0.00    -0.206 OA
BRANCH   8  11
ATOM     11  C   UNL d   1      30.155 -17.027  -5.105  0.00  0.00     0.076 A 
ATOM     12  C   UNL d   1      30.407 -17.974  -4.091  0.00  0.00     0.026 A 
ATOM     13  C   UNL d   1      30.944 -19.209  -4.412  0.00  0.00     0.027 A 
ATOM     14  C   UNL d   1      31.230 -19.492  -5.746  0.00  0.00     0.055 A 
ATOM     15 CL   UNL d   1      31.940 -21.024  -6.091  0.00  0.00    -0.083 Cl
ATOM     16  C   UNL d   1      30.935 -18.553  -6.755  0.00  0.00     0.057 A 
ATOM     17 CL   UNL d   1      31.257 -18.855  -8.423  0.00  0.00    -0.083 Cl
ATOM     18  C   UNL d   1      30.359 -17.324  -6.440  0.00  0.00     0.050 A 
ENDBRANCH   8  11
ENDBRANCH   6   8
ENDBRANCH   1   6
BRANCH   1  19
ATOM     19  C   UNL d   1      26.351 -14.495  -4.007  0.00  0.00     0.280 C 
ATOM     20  O   UNL d   1      25.339 -15.109  -3.684  0.00  0.00    -0.263 OA
BRANCH  19  21
ATOM     21  O   UNL d   1      27.168 -13.934  -3.063  0.00  0.00    -0.311 OA
BRANCH  21  22
ATOM     22  C   UNL d   1      26.545 -13.755  -1.756  0.00  0.00     0.281 C 
BRANCH  22  23
ATOM     23  C   UNL d   1      26.775 -14.988  -0.863  0.00  0.00     0.241 C 
ATOM     24  O   UNL d   1      26.891 -14.888   0.358  0.00  0.00    -0.271 OA
ATOM     25  N   UNL d   1      26.839 -16.222  -1.502  0.00  0.00    -0.359 N 
ATOM     26  H   UNL d   1      26.731 -16.304  -2.506  0.00  0.00     0.162 HD
BRANCH  25  27
ATOM     27  C   UNL d   1      27.040 -17.431  -0.712  0.00  0.00     0.127 C 
BRANCH  27  28
ATOM     28  C   UNL d   1      26.065 -17.603   0.462  0.00  0.00     0.053 C 
BRANCH  28  29
ATOM     29  C   UNL d   1      24.643 -17.754  -0.038  0.00  0.00    -0.082 C 
ATOM     30  C   UNL d   1      24.015 -18.946  -0.035  0.00  0.00    -0.024 C 
ATOM     31  C   UNL d   1      22.575 -19.127  -0.423  0.00  0.00     0.027 C 
ATOM     32  C   UNL d   1      22.007 -17.934  -1.188  0.00  0.00     0.004 C 
ATOM     33  C   UNL d   1      22.422 -16.619  -0.542  0.00  0.00     0.005 C 
ATOM     34  C   UNL d   1      23.945 -16.491  -0.494  0.00  0.00     0.034 C 
ENDBRANCH  28  29
ENDBRANCH  27  28
ENDBRANCH  25  27
ENDBRANCH  22  23
ENDBRANCH  21  22
ENDBRANCH  19  21
ENDBRANCH   1  19
TORSDOF 12
ENDMDL
MODEL 6
REMARK VINA RESULT:    -6.363      3.584      6.465
REMARK INTER + INTRA:         -15.476
REMARK INTER:                  -9.943
REMARK INTRA:                  -5.534
REMARK CONF_INDEPENDENT:        3.580
REMARK UNBOUND:                -5.534
REMARK  12 active torsions:
REMARK  status: ('A' for Active; 'I' for Inactive)
REMARK    1  A    between atoms: C_2  and  O_3 
REMARK    2  A    between atoms: C_2  and  C_4 
REMARK    3  A    between atoms: C_4  and  N_5 
REMARK    4  A    between atoms: C_4  and  C_17 
REMARK    5  A    between atoms: N_5  and  S_6 
REMARK    6  A    between atoms: S_6  and  C_9 
REMARK    7  A    between atoms: C_17  and  O_19 
REMARK    8  A    between atoms: O_19  and  C_20 
REMARK    9  A    between atoms: C_20  and  C_21 
REMARK       I    between atoms: C_21  and  N_23 
REMARK   10  A    between atoms: N_23  and  C_24 
REMARK   11  A    between atoms: C_24  and  C_25 
REMARK   12  A    between atoms: C_25  and  C_26 
ROOT
ATOM      1  C   UNL d   1      27.180 -13.093  -5.114  0.00  0.00     0.199 C 
ENDROOT
BRANCH   1   2
ATOM      2  C   UNL d   1      26.944 -11.694  -5.768  0.00  0.00     0.142 C 
ATOM      3  C   UNL d   1      27.144 -11.661  -7.255  0.00  0.00     0.041 C 
BRANCH   2   4
ATOM      4  O   UNL d   1      25.617 -11.214  -5.559  0.00  0.00    -0.394 OA
ATOM      5  H   UNL d   1      25.157 -11.828  -4.963  0.00  0.00     0.210 HD
ENDBRANCH   2   4
ENDBRANCH   1   2
BRANCH   1   6
ATOM      6  N   UNL d   1      25.899 -13.983  -5.015  0.00  0.00    -0.199 NA
ATOM      7  H   UNL d   1      26.239 -14.954  -5.017  0.00  0.00     0.141 HD
BRANCH   6   8
ATOM      8  S   UNL d   1      24.894 -13.822  -3.609  0.00  0.00     0.242 S 
ATOM      9  O   UNL d   1      25.329 -12.654  -2.910  0.00  0.00    -0.206 OA
ATOM     10  O   UNL d   1      23.490 -14.075  -3.900  0.00  0.00    -0.206 OA
BRANCH   8  11
ATOM     11  C   UNL d   1      25.137 -15.215  -2.575  0.00  0.00     0.076 A 
ATOM     12  C   UNL d   1      26.482 -15.450  -2.222  0.00  0.00     0.026 A 
ATOM     13  C   UNL d   1      26.791 -16.364  -1.229  0.00  0.00     0.027 A 
ATOM     14  C   UNL d   1      25.752 -17.041  -0.592  0.00  0.00     0.055 A 
ATOM     15 CL   UNL d   1      26.188 -18.201   0.606  0.00  0.00    -0.083 Cl
ATOM     16  C   UNL d   1      24.411 -16.767  -0.923  0.00  0.00     0.057 A 
ATOM     17 CL   UNL d   1      23.087 -17.566  -0.159  0.00  0.00    -0.083 Cl
ATOM     18  C   UNL d   1      24.095 -15.820  -1.897  0.00  0.00     0.050 A 
ENDBRANCH   8  11
ENDBRANCH   6   8
ENDBRANCH   1   6
BRANCH   1  19
ATOM     19  C   UNL d   1      28.318 -13.764  -5.966  0.00  0.00     0.280 C 
ATOM     20  O   UNL d   1      29.304 -13.185  -6.412  0.00  0.00    -0.263 OA
BRANCH  19  21
ATOM     21  O   UNL d   1      28.148 -15.110  -6.150  0.00  0.00    -0.311 OA
BRANCH  21  22
ATOM     22  C   UNL d   1      29.185 -15.937  -5.540  0.00  0.00     0.281 C 
BRANCH  22  23
ATOM     23  C   UNL d   1      29.258 -15.697  -4.021  0.00  0.00     0.241 C 
ATOM     24  O   UNL d   1      29.085 -16.610  -3.215  0.00  0.00    -0.271 OA
ATOM     25  N   UNL d   1      29.536 -14.400  -3.604  0.00  0.00    -0.359 N 
ATOM     26  H   UNL d   1      29.692 -13.652  -4.270  0.00  0.00     0.162 HD
BRANCH  25  27
ATOM     27  C   UNL d   1      29.635 -14.108  -2.179  0.00  0.00     0.127 C 
BRANCH  27  28
ATOM     28  C   UNL d   1      28.714 -12.981  -1.687  0.00  0.00     0.053 C 
BRANCH  28  29
ATOM     29  C   UNL d   1      28.188 -13.286  -0.299  0.00  0.00    -0.082 C 
ATOM     30  C   UNL d   1      27.159 -12.601   0.234  0.00  0.00    -0.024 C 
ATOM     31  C   UNL d   1      26.536 -12.934   1.560  0.00  0.00     0.027 C 
ATOM     32  C   UNL d   1      27.410 -13.846   2.418  0.00  0.00     0.004 C 
ATOM     33  C   UNL d   1      27.999 -14.981   1.590  0.00  0.00     0.005 C 
ATOM     34  C   UNL d   1      28.844 -14.434   0.439  0.00  0.00     0.034 C 
ENDBRANCH  28  29
ENDBRANCH  27  28
ENDBRANCH  25  27
ENDBRANCH  22  23
ENDBRANCH  21  22
ENDBRANCH  19  21
ENDBRANCH   1  19
TORSDOF 12
ENDMDL
MODEL 7
REMARK VINA RESULT:    -6.292      4.004      5.625
REMARK INTER + INTRA:         -15.547
REMARK INTER:                  -9.871
REMARK INTRA:                  -5.676
REMARK CONF_INDEPENDENT:        3.580
REMARK UNBOUND:                -5.676
REMARK  12 active torsions:
REMARK  status: ('A' for Active; 'I' for Inactive)
REMARK    1  A    between atoms: C_2  and  O_3 
REMARK    2  A    between atoms: C_2  and  C_4 
REMARK    3  A    between atoms: C_4  and  N_5 
REMARK    4  A    between atoms: C_4  and  C_17 
REMARK    5  A    between atoms: N_5  and  S_6 
REMARK    6  A    between atoms: S_6  and  C_9 
REMARK    7  A    between atoms: C_17  and  O_19 
REMARK    8  A    between atoms: O_19  and  C_20 
REMARK    9  A    between atoms: C_20  and  C_21 
REMARK       I    between atoms: C_21  and  N_23 
REMARK   10  A    between atoms: N_23  and  C_24 
REMARK   11  A    between atoms: C_24  and  C_25 
REMARK   12  A    between atoms: C_25  and  C_26 
ROOT
ATOM      1  C   UNL d   1      28.411 -14.164  -2.760  0.00  0.00     0.199 C 
ENDROOT
BRANCH   1   2
ATOM      2  C   UNL d   1      29.510 -15.016  -2.049  0.00  0.00     0.142 C 
ATOM      3  C   UNL d   1      30.099 -14.375  -0.826  0.00  0.00     0.041 C 
BRANCH   2   4
ATOM      4  O   UNL d   1      29.016 -16.279  -1.605  0.00  0.00    -0.394 OA
ATOM      5  H   UNL d   1      28.239 -16.512  -2.141  0.00  0.00     0.210 HD
ENDBRANCH   2   4
ENDBRANCH   1   2
BRANCH   1   6
ATOM      6  N   UNL d   1      27.095 -14.944  -3.079  0.00  0.00    -0.199 NA
ATOM      7  H   UNL d   1      26.468 -14.762  -2.284  0.00  0.00     0.141 HD
BRANCH   6   8
ATOM      8  S   UNL d   1      26.208 -14.510  -4.507  0.00  0.00     0.242 S 
ATOM      9  O   UNL d   1      26.738 -15.283  -5.585  0.00  0.00    -0.206 OA
ATOM     10  O   UNL d   1      24.778 -14.399  -4.259  0.00  0.00    -0.206 OA
BRANCH   8  11
ATOM     11  C   UNL d   1      26.482 -12.813  -4.850  0.00  0.00     0.076 A 
ATOM     12  C   UNL d   1      27.030 -12.559  -6.125  0.00  0.00     0.026 A 
ATOM     13  C   UNL d   1      27.075 -11.265  -6.616  0.00  0.00     0.027 A 
ATOM     14  C   UNL d   1      26.574 -10.229  -5.830  0.00  0.00     0.055 A 
ATOM     15 CL   UNL d   1      26.693  -8.631  -6.466  0.00  0.00    -0.083 Cl
ATOM     16  C   UNL d   1      25.991 -10.501  -4.577  0.00  0.00     0.057 A 
ATOM     17 CL   UNL d   1      25.344  -9.259  -3.569  0.00  0.00    -0.083 Cl
ATOM     18  C   UNL d   1      25.909 -11.807  -4.095  0.00  0.00     0.050 A 
ENDBRANCH   8  11
ENDBRANCH   6   8
ENDBRANCH   1   6
BRANCH   1  19
ATOM     19  C   UNL d   1      28.168 -12.928  -1.819  0.00  0.00     0.280 C 
ATOM     20  O   UNL d   1      28.924 -11.968  -1.703  0.00  0.00    -0.263 OA
BRANCH  19  21
ATOM     21  O   UNL d   1      26.981 -12.978  -1.139  0.00  0.00    -0.311 OA
BRANCH  21  22
ATOM     22  C   UNL d   1      27.113 -12.880   0.311  0.00  0.00     0.281 C 
BRANCH  22  23
ATOM     23  C   UNL d   1      27.187 -14.278   0.953  0.00  0.00     0.241 C 
ATOM     24  O   UNL d   1      27.201 -14.427   2.174  0.00  0.00    -0.271 OA
ATOM     25  N   UNL d   1      27.230 -15.364   0.086  0.00  0.00    -0.359 N 
ATOM     26  H   UNL d   1      27.204 -15.240  -0.920  0.00  0.00     0.162 HD
BRANCH  25  27
ATOM     27  C   UNL d   1      27.284 -16.716   0.629  0.00  0.00     0.127 C 
BRANCH  27  28
ATOM     28  C   UNL d   1      26.749 -17.809  -0.308  0.00  0.00     0.053 C 
BRANCH  28  29
ATOM     29  C   UNL d   1      25.241 -17.721  -0.430  0.00  0.00    -0.082 C 
ATOM     30  C   UNL d   1      24.427 -18.575   0.218  0.00  0.00    -0.024 C 
ATOM     31  C   UNL d   1      22.929 -18.463   0.212  0.00  0.00     0.027 C 
ATOM     32  C   UNL d   1      22.403 -17.554  -0.897  0.00  0.00     0.004 C 
ATOM     33  C   UNL d   1      23.224 -16.276  -0.996  0.00  0.00     0.005 C 
ATOM     34  C   UNL d   1      24.694 -16.591  -1.277  0.00  0.00     0.034 C 
ENDBRANCH  28  29
ENDBRANCH  27  28
ENDBRANCH  25  27
ENDBRANCH  22  23
ENDBRANCH  21  22
ENDBRANCH  19  21
ENDBRANCH   1  19
TORSDOF 12
ENDMDL
MODEL 8
REMARK VINA RESULT:    -5.818      3.747      7.706
REMARK INTER + INTRA:         -15.488
REMARK INTER:                  -9.397
REMARK INTRA:                  -6.091
REMARK CONF_INDEPENDENT:        3.580
REMARK UNBOUND:                -6.091
REMARK  12 active torsions:
REMARK  status: ('A' for Active; 'I' for Inactive)
REMARK    1  A    between atoms: C_2  and  O_3 
REMARK    2  A    between atoms: C_2  and  C_4 
REMARK    3  A    between atoms: C_4  and  N_5 
REMARK    4  A    between atoms: C_4  and  C_17 
REMARK    5  A    between atoms: N_5  and  S_6 
REMARK    6  A    between atoms: S_6  and  C_9 
REMARK    7  A    between atoms: C_17  and  O_19 
REMARK    8  A    between atoms: O_19  and  C_20 
REMARK    9  A    between atoms: C_20  and  C_21 
REMARK       I    between atoms: C_21  and  N_23 
REMARK   10  A    between atoms: N_23  and  C_24 
REMARK   11  A    between atoms: C_24  and  C_25 
REMARK   12  A    between atoms: C_25  and  C_26 
ROOT
ATOM      1  C   UNL d   1      26.730 -12.586  -2.654  0.00  0.00     0.199 C 
ENDROOT
BRANCH   1   2
ATOM      2  C   UNL d   1      26.130 -11.161  -2.877  0.00  0.00     0.142 C 
ATOM      3  C   UNL d   1      27.137 -10.116  -3.261  0.00  0.00     0.041 C 
BRANCH   2   4
ATOM      4  O   UNL d   1      25.155 -11.138  -3.918  0.00  0.00    -0.394 OA
ATOM      5  H   UNL d   1      24.986 -12.052  -4.202  0.00  0.00     0.210 HD
ENDBRANCH   2   4
ENDBRANCH   1   2
BRANCH   1   6
ATOM      6  N   UNL d   1      26.730 -13.492  -3.926  0.00  0.00    -0.199 NA
ATOM      7  H   UNL d   1      27.631 -13.986  -3.912  0.00  0.00     0.141 HD
BRANCH   6   8
ATOM      8  S   UNL d   1      25.507 -14.716  -4.063  0.00  0.00     0.242 S 
ATOM      9  O   UNL d   1      24.244 -14.075  -3.876  0.00  0.00    -0.206 OA
ATOM     10  O   UNL d   1      25.758 -15.630  -5.168  0.00  0.00    -0.206 OA
BRANCH   8  11
ATOM     11  C   UNL d   1      25.732 -15.889  -2.781  0.00  0.00     0.076 A 
ATOM     12  C   UNL d   1      27.051 -15.963  -2.285  0.00  0.00     0.026 A 
ATOM     13  C   UNL d   1      27.317 -16.667  -1.124  0.00  0.00     0.027 A 
ATOM     14  C   UNL d   1      26.265 -17.298  -0.462  0.00  0.00     0.055 A 
ATOM     15 CL   UNL d   1      26.654 -18.200   0.954  0.00  0.00    -0.083 Cl
ATOM     16  C   UNL d   1      24.947 -17.182  -0.945  0.00  0.00     0.057 A 
ATOM     17 CL   UNL d   1      23.606 -17.932  -0.160  0.00  0.00    -0.083 Cl
ATOM     18  C   UNL d   1      24.669 -16.443  -2.093  0.00  0.00     0.050 A 
ENDBRANCH   8  11
ENDBRANCH   6   8
ENDBRANCH   1   6
BRANCH   1  19
ATOM     19  C   UNL d   1      28.174 -12.345  -2.082  0.00  0.00     0.280 C 
ATOM     20  O   UNL d   1      28.438 -11.693  -1.077  0.00  0.00    -0.263 OA
BRANCH  19  21
ATOM     21  O   UNL d   1      29.160 -12.976  -2.793  0.00  0.00    -0.311 OA
BRANCH  21  22
ATOM     22  C   UNL d   1      30.234 -12.098  -3.246  0.00  0.00     0.281 C 
BRANCH  22  23
ATOM     23  C   UNL d   1      29.968 -11.598  -4.678  0.00  0.00     0.241 C 
ATOM     24  O   UNL d   1      30.789 -10.912  -5.284  0.00  0.00    -0.271 OA
ATOM     25  N   UNL d   1      28.756 -11.965  -5.255  0.00  0.00    -0.359 N 
ATOM     26  H   UNL d   1      28.087 -12.541  -4.759  0.00  0.00     0.162 HD
BRANCH  25  27
ATOM     27  C   UNL d   1      28.449 -11.537  -6.615  0.00  0.00     0.127 C 
BRANCH  27  28
ATOM     28  C   UNL d   1      28.483 -12.657  -7.666  0.00  0.00     0.053 C 
BRANCH  28  29
ATOM     29  C   UNL d   1      29.130 -13.904  -7.101  0.00  0.00    -0.082 C 
ATOM     30  C   UNL d   1      30.442 -14.160  -7.269  0.00  0.00    -0.024 C 
ATOM     31  C   UNL d   1      31.150 -15.327  -6.642  0.00  0.00     0.027 C 
ATOM     32  C   UNL d   1      30.192 -16.402  -6.132  0.00  0.00     0.004 C 
ATOM     33  C   UNL d   1      29.016 -15.783  -5.388  0.00  0.00     0.005 C 
ATOM     34  C   UNL d   1      28.241 -14.825  -6.293  0.00  0.00     0.034 C 
ENDBRANCH  28  29
ENDBRANCH  27  28
ENDBRANCH  25  27
ENDBRANCH  22  23
ENDBRANCH  21  22
ENDBRANCH  19  21
ENDBRANCH   1  19
TORSDOF 12
ENDMDL
MODEL 9
REMARK VINA RESULT:    -5.283      3.608      6.939
REMARK INTER + INTRA:         -15.720
REMARK INTER:                  -8.863
REMARK INTRA:                  -6.857
REMARK CONF_INDEPENDENT:        3.580
REMARK UNBOUND:                -6.857
REMARK  12 active torsions:
REMARK  status: ('A' for Active; 'I' for Inactive)
REMARK    1  A    between atoms: C_2  and  O_3 
REMARK    2  A    between atoms: C_2  and  C_4 
REMARK    3  A    between atoms: C_4  and  N_5 
REMARK    4  A    between atoms: C_4  and  C_17 
REMARK    5  A    between atoms: N_5  and  S_6 
REMARK    6  A    between atoms: S_6  and  C_9 
REMARK    7  A    between atoms: C_17  and  O_19 
REMARK    8  A    between atoms: O_19  and  C_20 
REMARK    9  A    between atoms: C_20  and  C_21 
REMARK       I    between atoms: C_21  and  N_23 
REMARK   10  A    between atoms: N_23  and  C_24 
REMARK   11  A    between atoms: C_24  and  C_25 
REMARK   12  A    between atoms: C_25  and  C_26 
ROOT
ATOM      1  C   UNL d   1      25.182 -12.409  -3.928  0.00  0.00     0.199 C 
ENDROOT
BRANCH   1   2
ATOM      2  C   UNL d   1      26.014 -11.691  -5.039  0.00  0.00     0.142 C 
ATOM      3  C   UNL d   1      25.751 -10.218  -5.158  0.00  0.00     0.041 C 
BRANCH   2   4
ATOM      4  O   UNL d   1      27.420 -11.803  -4.822  0.00  0.00    -0.394 OA
ATOM      5  H   UNL d   1      27.566 -12.239  -3.966  0.00  0.00     0.210 HD
ENDBRANCH   2   4
ENDBRANCH   1   2
BRANCH   1   6
ATOM      6  N   UNL d   1      24.844 -13.902  -4.237  0.00  0.00    -0.199 NA
ATOM      7  H   UNL d   1      24.348 -13.891  -5.137  0.00  0.00     0.141 HD
BRANCH   6   8
ATOM      8  S   UNL d   1      26.158 -15.021  -4.419  0.00  0.00     0.242 S 
ATOM      9  O   UNL d   1      25.884 -15.811  -5.577  0.00  0.00    -0.206 OA
ATOM     10  O   UNL d   1      27.454 -14.395  -4.195  0.00  0.00    -0.206 OA
BRANCH   8  11
ATOM     11  C   UNL d   1      26.203 -16.076  -3.021  0.00  0.00     0.076 A 
ATOM     12  C   UNL d   1      27.465 -16.158  -2.394  0.00  0.00     0.026 A 
ATOM     13  C   UNL d   1      27.586 -16.760  -1.154  0.00  0.00     0.027 A 
ATOM     14  C   UNL d   1      26.446 -17.280  -0.544  0.00  0.00     0.055 A 
ATOM     15 CL   UNL d   1      26.655 -18.060   0.980  0.00  0.00    -0.083 Cl
ATOM     16  C   UNL d   1      25.186 -17.155  -1.160  0.00  0.00     0.057 A 
ATOM     17 CL   UNL d   1      23.741 -17.768  -0.444  0.00  0.00    -0.083 Cl
ATOM     18  C   UNL d   1      25.054 -16.516  -2.392  0.00  0.00     0.050 A 
ENDBRANCH   8  11
ENDBRANCH   6   8
ENDBRANCH   1   6
BRANCH   1  19
ATOM     19  C   UNL d   1      26.018 -12.238  -2.607  0.00  0.00     0.280 C 
ATOM     20  O   UNL d   1      26.582 -11.207  -2.254  0.00  0.00    -0.263 OA
BRANCH  19  21
ATOM     21  O   UNL d   1      26.040 -13.359  -1.821  0.00  0.00    -0.311 OA
BRANCH  21  22
ATOM     22  C   UNL d   1      26.758 -13.197  -0.561  0.00  0.00     0.281 C 
BRANCH  22  23
ATOM     23  C   UNL d   1      28.278 -13.143  -0.797  0.00  0.00     0.241 C 
ATOM     24  O   UNL d   1      29.080 -13.317   0.120  0.00  0.00    -0.271 OA
ATOM     25  N   UNL d   1      28.702 -12.895  -2.098  0.00  0.00    -0.359 N 
ATOM     26  H   UNL d   1      28.041 -12.766  -2.855  0.00  0.00     0.162 HD
BRANCH  25  27
ATOM     27  C   UNL d   1      30.129 -12.847  -2.393  0.00  0.00     0.127 C 
BRANCH  27  28
ATOM     28  C   UNL d   1      30.475 -12.696  -3.882  0.00  0.00     0.053 C 
BRANCH  28  29
ATOM     29  C   UNL d   1      30.270 -14.004  -4.616  0.00  0.00    -0.082 C 
ATOM     30  C   UNL d   1      30.426 -15.193  -4.003  0.00  0.00    -0.024 C 
ATOM     31  C   UNL d   1      30.133 -16.512  -4.658  0.00  0.00     0.027 C 
ATOM     32  C   UNL d   1      30.028 -16.413  -6.179  0.00  0.00     0.004 C 
ATOM     33  C   UNL d   1      29.207 -15.200  -6.595  0.00  0.00     0.005 C 
ATOM     34  C   UNL d   1      29.830 -13.910  -6.062  0.00  0.00     0.034 C 
ENDBRANCH  28  29
ENDBRANCH  27  28
ENDBRANCH  25  27
ENDBRANCH  22  23
ENDBRANCH  21  22
ENDBRANCH  19  21
ENDBRANCH   1  19
TORSDOF 12
ENDMDL
