MODEL 1
REMARK VINA RESULT:   -10.063      0.000      0.000
REMARK INTER + INTRA:         -13.051
REMARK INTER:                 -11.853
REMARK INTRA:                  -1.198
REMARK CONF_INDEPENDENT:        1.790
REMARK UNBOUND:                -1.198
REMARK  6 active torsions:
REMARK  status: ('A' for Active; 'I' for Inactive)
REMARK    1  A    between atoms: C_12  and  N_13 
REMARK       I    between atoms: N_13  and  C_14 
REMARK    2  A    between atoms: C_14  and  C_16 
REMARK    3  A    between atoms: C_16  and  O_17 
REMARK    4  A    between atoms: O_17  and  C_18 
REMARK    5  A    between atoms: C_18  and  C_20 
REMARK    6  A    between atoms: C_25  and  C_26 
ROOT
ATOM      1  C   UNL d   1      24.612 -14.131  -3.118  0.00  0.00     0.281 C 
ENDROOT
BRANCH   1   2
ATOM      2  C   UNL d   1      25.968 -13.500  -3.460  0.00  0.00     0.244 C 
ATOM      3  N   UNL d   1      25.978 -12.532  -4.446  0.00  0.00    -0.329 N 
ATOM      4  H   UNL d   1      25.133 -12.222  -4.905  0.00  0.00     0.165 HD
ATOM      5  O   UNL d   1      27.005 -13.855  -2.900  0.00  0.00    -0.271 OA
BRANCH   3   6
ATOM      6  C   UNL d   1      27.239 -11.958  -4.840  0.00  0.00     0.264 A 
ATOM      7  O   UNL d   1      27.036 -10.540  -5.026  0.00  0.00    -0.353 OA
ATOM      8  C   UNL d   1      27.430 -10.167  -6.369  0.00  0.00     0.152 A 
ATOM      9  C   UNL d   1      27.830 -11.441  -7.021  0.00  0.00    -0.017 A 
ATOM     10  C   UNL d   1      26.230  -9.486  -7.008  0.00  0.00     0.044 C 
ATOM     11  C   UNL d   1      27.694 -12.438  -6.149  0.00  0.00     0.066 A 
ATOM     12  C   UNL d   1      28.339 -11.606  -8.407  0.00  0.00     0.105 A 
ATOM     13  C   UNL d   1      28.056 -13.801  -6.494  0.00  0.00     0.266 A 
ATOM     14  N   UNL d   1      28.529 -13.990  -7.772  0.00  0.00    -0.287 N 
ATOM     15  O   UNL d   1      27.933 -14.731  -5.698  0.00  0.00    -0.266 OA
ATOM     16  N   UNL d   1      28.724 -12.987  -8.749  0.00  0.00    -0.229 NA
ATOM     17  H   UNL d   1      28.719 -14.957  -8.024  0.00  0.00     0.184 HD
ATOM     18  H   UNL d   1      29.706 -12.995  -9.032  0.00  0.00     0.147 HD
ATOM     19  C   UNL d   1      27.286 -11.204  -9.434  0.00  0.00     0.033 C 
ENDBRANCH   3   6
ENDBRANCH   1   2
BRANCH   1  20
ATOM     20  O   UNL d   1      24.779 -15.559  -2.942  0.00  0.00    -0.307 OA
BRANCH  20  21
ATOM     21  C   UNL d   1      24.369 -16.030  -1.738  0.00  0.00     0.315 C 
ATOM     22  O   UNL d   1      23.227 -15.915  -1.315  0.00  0.00    -0.257 OA
BRANCH  21  23
ATOM     23  C   UNL d   1      25.428 -16.801  -1.012  0.00  0.00     0.163 A 
ATOM     24  N   UNL d   1      26.709 -16.320  -1.004  0.00  0.00    -0.251 NA
ATOM     25  C   UNL d   1      27.569 -16.965  -0.168  0.00  0.00     0.137 A 
ATOM     26  C   UNL d   1      27.193 -18.044   0.617  0.00  0.00     0.136 A 
ATOM     27  N   UNL d   1      25.941 -18.545   0.589  0.00  0.00    -0.254 NA
ATOM     28  C   UNL d   1      25.056 -17.903  -0.239  0.00  0.00     0.127 A 
BRANCH  28  29
ATOM     29  C   UNL d   1      23.695 -18.426  -0.204  0.00  0.00     0.130 A 
ATOM     30  N   UNL d   1      22.985 -18.575   0.893  0.00  0.00    -0.238 NA
ATOM     31  C   UNL d   1      21.698 -18.949   0.567  0.00  0.00     0.075 A 
ATOM     32  C   UNL d   1      20.656 -19.160   1.488  0.00  0.00     0.033 A 
ATOM     33  C   UNL d   1      21.445 -19.126  -0.794  0.00  0.00     0.035 A 
ATOM     34  C   UNL d   1      19.395 -19.543   1.029  0.00  0.00     0.002 A 
ATOM     35  C   UNL d   1      19.158 -19.700  -0.334  0.00  0.00     0.002 A 
ATOM     36  C   UNL d   1      20.175 -19.487  -1.271  0.00  0.00     0.021 A 
ATOM     37  S   UNL d   1      22.899 -18.853  -1.671  0.00  0.00    -0.066 SA
ENDBRANCH  28  29
ENDBRANCH  21  23
ENDBRANCH  20  21
ENDBRANCH   1  20
TORSDOF 6
ENDMDL
MODEL 2
REMARK VINA RESULT:    -8.583      2.468      3.338
REMARK INTER + INTRA:         -12.361
REMARK INTER:                 -10.373
REMARK INTRA:                  -1.988
REMARK CONF_INDEPENDENT:        1.790
REMARK UNBOUND:                -1.988
REMARK  6 active torsions:
REMARK  status: ('A' for Active; 'I' for Inactive)
REMARK    1  A    between atoms: C_12  and  N_13 
REMARK       I    between atoms: N_13  and  C_14 
REMARK    2  A    between atoms: C_14  and  C_16 
REMARK    3  A    between atoms: C_16  and  O_17 
REMARK    4  A    between atoms: O_17  and  C_18 
REMARK    5  A    between atoms: C_18  and  C_20 
REMARK    6  A    between atoms: C_25  and  C_26 
ROOT
ATOM      1  C   UNL d   1      25.589 -14.875  -4.075  0.00  0.00     0.281 C 
ENDROOT
BRANCH   1   2
ATOM      2  C   UNL d   1      27.102 -14.917  -4.331  0.00  0.00     0.244 C 
ATOM      3  N   UNL d   1      27.927 -14.585  -3.273  0.00  0.00    -0.329 N 
ATOM      4  H   UNL d   1      27.563 -14.355  -2.359  0.00  0.00     0.165 HD
ATOM      5  O   UNL d   1      27.561 -15.211  -5.435  0.00  0.00    -0.271 OA
BRANCH   3   6
ATOM      6  C   UNL d   1      29.350 -14.554  -3.489  0.00  0.00     0.264 A 
ATOM      7  O   UNL d   1      29.612 -13.603  -4.544  0.00  0.00    -0.353 OA
ATOM      8  C   UNL d   1      30.335 -14.256  -5.616  0.00  0.00     0.152 A 
ATOM      9  C   UNL d   1      30.452 -15.675  -5.192  0.00  0.00    -0.017 A 
ATOM     10  C   UNL d   1      29.526 -14.045  -6.886  0.00  0.00     0.044 C 
ATOM     11  C   UNL d   1      29.872 -15.824  -4.004  0.00  0.00     0.066 A 
ATOM     12  C   UNL d   1      31.131 -16.768  -5.934  0.00  0.00     0.105 A 
ATOM     13  C   UNL d   1      29.871 -17.103  -3.316  0.00  0.00     0.266 A 
ATOM     14  N   UNL d   1      30.490 -18.139  -3.976  0.00  0.00    -0.287 N 
ATOM     15  O   UNL d   1      29.337 -17.254  -2.218  0.00  0.00    -0.266 OA
ATOM     16  N   UNL d   1      31.145 -18.061  -5.225  0.00  0.00    -0.229 NA
ATOM     17  H   UNL d   1      30.428 -19.044  -3.515  0.00  0.00     0.184 HD
ATOM     18  H   UNL d   1      32.116 -18.359  -5.103  0.00  0.00     0.147 HD
ATOM     19  C   UNL d   1      30.448 -17.038  -7.270  0.00  0.00     0.033 C 
ENDBRANCH   3   6
ENDBRANCH   1   2
BRANCH   1  20
ATOM     20  O   UNL d   1      25.171 -16.122  -3.468  0.00  0.00    -0.307 OA
BRANCH  20  21
ATOM     21  C   UNL d   1      24.777 -16.015  -2.175  0.00  0.00     0.315 C 
ATOM     22  O   UNL d   1      23.695 -15.561  -1.828  0.00  0.00    -0.257 OA
BRANCH  21  23
ATOM     23  C   UNL d   1      25.757 -16.604  -1.207  0.00  0.00     0.163 A 
ATOM     24  N   UNL d   1      27.008 -16.057  -1.117  0.00  0.00    -0.251 NA
ATOM     25  C   UNL d   1      27.772 -16.516  -0.087  0.00  0.00     0.137 A 
ATOM     26  C   UNL d   1      27.333 -17.478   0.809  0.00  0.00     0.136 A 
ATOM     27  N   UNL d   1      26.114 -18.045   0.706  0.00  0.00    -0.254 NA
ATOM     28  C   UNL d   1      25.325 -17.590  -0.318  0.00  0.00     0.127 A 
BRANCH  28  29
ATOM     29  C   UNL d   1      23.989 -18.176  -0.369  0.00  0.00     0.130 A 
ATOM     30  N   UNL d   1      23.239 -18.407   0.685  0.00  0.00    -0.238 NA
ATOM     31  C   UNL d   1      21.987 -18.823   0.284  0.00  0.00     0.075 A 
ATOM     32  C   UNL d   1      20.916 -19.123   1.145  0.00  0.00     0.033 A 
ATOM     33  C   UNL d   1      21.804 -18.950  -1.094  0.00  0.00     0.035 A 
ATOM     34  C   UNL d   1      19.696 -19.542   0.612  0.00  0.00     0.002 A 
ATOM     35  C   UNL d   1      19.529 -19.648  -0.767  0.00  0.00     0.002 A 
ATOM     36  C   UNL d   1      20.575 -19.347  -1.645  0.00  0.00     0.021 A 
ATOM     37  S   UNL d   1      23.281 -18.572  -1.890  0.00  0.00    -0.066 SA
ENDBRANCH  28  29
ENDBRANCH  21  23
ENDBRANCH  20  21
ENDBRANCH   1  20
TORSDOF 6
ENDMDL
MODEL 3
REMARK VINA RESULT:    -8.287      3.191      5.453
REMARK INTER + INTRA:         -12.805
REMARK INTER:                 -10.077
REMARK INTRA:                  -2.728
REMARK CONF_INDEPENDENT:        1.790
REMARK UNBOUND:                -2.728
REMARK  6 active torsions:
REMARK  status: ('A' for Active; 'I' for Inactive)
REMARK    1  A    between atoms: C_12  and  N_13 
REMARK       I    between atoms: N_13  and  C_14 
REMARK    2  A    between atoms: C_14  and  C_16 
REMARK    3  A    between atoms: C_16  and  O_17 
REMARK    4  A    between atoms: O_17  and  C_18 
REMARK    5  A    between atoms: C_18  and  C_20 
REMARK    6  A    between atoms: C_25  and  C_26 
ROOT
ATOM      1  C   UNL d   1      26.223 -15.283  -5.389  0.00  0.00     0.281 C 
ENDROOT
BRANCH   1   2
ATOM      2  C   UNL d   1      27.748 -15.371  -5.248  0.00  0.00     0.244 C 
ATOM      3  N   UNL d   1      28.239 -15.911  -4.073  0.00  0.00    -0.329 N 
ATOM      4  H   UNL d   1      27.631 -16.264  -3.349  0.00  0.00     0.165 HD
ATOM      5  O   UNL d   1      28.503 -14.959  -6.128  0.00  0.00    -0.271 OA
BRANCH   3   6
ATOM      6  C   UNL d   1      29.664 -15.955  -3.875  0.00  0.00     0.264 A 
ATOM      7  O   UNL d   1      30.275 -16.256  -5.149  0.00  0.00    -0.353 OA
ATOM      8  C   UNL d   1      31.090 -17.447  -5.027  0.00  0.00     0.152 A 
ATOM      9  C   UNL d   1      30.902 -17.899  -3.624  0.00  0.00    -0.017 A 
ATOM     10  C   UNL d   1      30.594 -18.430  -6.075  0.00  0.00     0.044 C 
ATOM     11  C   UNL d   1      30.079 -17.058  -3.002  0.00  0.00     0.066 A 
ATOM     12  C   UNL d   1      31.541 -19.074  -2.979  0.00  0.00     0.105 A 
ATOM     13  C   UNL d   1      29.745 -17.223  -1.598  0.00  0.00     0.266 A 
ATOM     14  N   UNL d   1      30.319 -18.304  -0.969  0.00  0.00    -0.287 N 
ATOM     15  O   UNL d   1      28.985 -16.454  -1.012  0.00  0.00    -0.266 OA
ATOM     16  N   UNL d   1      31.216 -19.230  -1.549  0.00  0.00    -0.229 NA
ATOM     17  H   UNL d   1      30.029 -18.448  -0.005  0.00  0.00     0.184 HD
ATOM     18  H   UNL d   1      32.086 -19.222  -1.011  0.00  0.00     0.147 HD
ATOM     19  C   UNL d   1      31.107 -20.376  -3.644  0.00  0.00     0.033 C 
ENDBRANCH   3   6
ENDBRANCH   1   2
BRANCH   1  20
ATOM     20  O   UNL d   1      25.602 -15.699  -4.148  0.00  0.00    -0.307 OA
BRANCH  20  21
ATOM     21  C   UNL d   1      25.269 -14.681  -3.317  0.00  0.00     0.315 C 
ATOM     22  O   UNL d   1      24.220 -14.055  -3.393  0.00  0.00    -0.257 OA
BRANCH  21  23
ATOM     23  C   UNL d   1      26.268 -14.458  -2.224  0.00  0.00     0.163 A 
ATOM     24  N   UNL d   1      27.218 -13.486  -2.384  0.00  0.00    -0.251 NA
ATOM     25  C   UNL d   1      27.963 -13.212  -1.278  0.00  0.00     0.137 A 
ATOM     26  C   UNL d   1      27.793 -13.869  -0.069  0.00  0.00     0.136 A 
ATOM     27  N   UNL d   1      26.880 -14.850   0.087  0.00  0.00    -0.254 NA
ATOM     28  C   UNL d   1      26.113 -15.136  -1.013  0.00  0.00     0.127 A 
BRANCH  28  29
ATOM     29  C   UNL d   1      25.093 -16.158  -0.800  0.00  0.00     0.130 A 
ATOM     30  N   UNL d   1      23.800 -15.950  -0.909  0.00  0.00    -0.238 NA
ATOM     31  C   UNL d   1      23.125 -17.147  -0.791  0.00  0.00     0.075 A 
ATOM     32  C   UNL d   1      21.731 -17.306  -0.895  0.00  0.00     0.033 A 
ATOM     33  C   UNL d   1      23.919 -18.268  -0.546  0.00  0.00     0.035 A 
ATOM     34  C   UNL d   1      21.168 -18.575  -0.749  0.00  0.00     0.002 A 
ATOM     35  C   UNL d   1      21.978 -19.684  -0.520  0.00  0.00     0.002 A 
ATOM     36  C   UNL d   1      23.367 -19.554  -0.422  0.00  0.00     0.021 A 
ATOM     37  S   UNL d   1      25.560 -17.772  -0.418  0.00  0.00    -0.066 SA
ENDBRANCH  28  29
ENDBRANCH  21  23
ENDBRANCH  20  21
ENDBRANCH   1  20
TORSDOF 6
ENDMDL
MODEL 4
REMARK VINA RESULT:    -7.436      2.680      4.205
REMARK INTER + INTRA:         -12.302
REMARK INTER:                  -9.226
REMARK INTRA:                  -3.076
REMARK CONF_INDEPENDENT:        1.790
REMARK UNBOUND:                -3.076
REMARK  6 active torsions:
REMARK  status: ('A' for Active; 'I' for Inactive)
REMARK    1  A    between atoms: C_12  and  N_13 
REMARK       I    between atoms: N_13  and  C_14 
REMARK    2  A    between atoms: C_14  and  C_16 
REMARK    3  A    between atoms: C_16  and  O_17 
REMARK    4  A    between atoms: O_17  and  C_18 
REMARK    5  A    between atoms: C_18  and  C_20 
REMARK    6  A    between atoms: C_25  and  C_26 
ROOT
ATOM      1  C   UNL d   1      24.904 -13.951  -3.056  0.00  0.00     0.281 C 
ENDROOT
BRANCH   1   2
ATOM      2  C   UNL d   1      26.357 -13.568  -3.368  0.00  0.00     0.244 C 
ATOM      3  N   UNL d   1      27.286 -14.591  -3.379  0.00  0.00    -0.329 N 
ATOM      4  H   UNL d   1      27.027 -15.555  -3.222  0.00  0.00     0.165 HD
ATOM      5  O   UNL d   1      26.686 -12.401  -3.577  0.00  0.00    -0.271 OA
BRANCH   3   6
ATOM      6  C   UNL d   1      28.670 -14.267  -3.608  0.00  0.00     0.264 A 
ATOM      7  O   UNL d   1      29.080 -14.927  -4.825  0.00  0.00    -0.353 OA
ATOM      8  C   UNL d   1      30.220 -15.778  -4.554  0.00  0.00     0.152 A 
ATOM      9  C   UNL d   1      30.454 -15.654  -3.092  0.00  0.00    -0.017 A 
ATOM     10  C   UNL d   1      29.844 -17.178  -5.013  0.00  0.00     0.044 C 
ATOM     11  C   UNL d   1      29.557 -14.816  -2.577  0.00  0.00     0.066 A 
ATOM     12  C   UNL d   1      31.528 -16.315  -2.308  0.00  0.00     0.105 A 
ATOM     13  C   UNL d   1      29.570 -14.464  -1.169  0.00  0.00     0.266 A 
ATOM     14  N   UNL d   1      30.552 -15.061  -0.411  0.00  0.00    -0.287 N 
ATOM     15  O   UNL d   1      28.746 -13.693  -0.680  0.00  0.00    -0.266 OA
ATOM     16  N   UNL d   1      31.552 -15.942  -0.882  0.00  0.00    -0.229 NA
ATOM     17  H   UNL d   1      30.513 -14.858   0.585  0.00  0.00     0.184 HD
ATOM     18  H   UNL d   1      32.467 -15.544  -0.661  0.00  0.00     0.147 HD
ATOM     19  C   UNL d   1      31.380 -17.832  -2.335  0.00  0.00     0.033 C 
ENDBRANCH   3   6
ENDBRANCH   1   2
BRANCH   1  20
ATOM     20  O   UNL d   1      24.781 -15.395  -3.043  0.00  0.00    -0.307 OA
BRANCH  20  21
ATOM     21  C   UNL d   1      24.423 -15.918  -1.845  0.00  0.00     0.315 C 
ATOM     22  O   UNL d   1      23.305 -15.809  -1.360  0.00  0.00    -0.257 OA
BRANCH  21  23
ATOM     23  C   UNL d   1      25.504 -16.739  -1.211  0.00  0.00     0.163 A 
ATOM     24  N   UNL d   1      26.785 -16.257  -1.209  0.00  0.00    -0.251 NA
ATOM     25  C   UNL d   1      27.671 -16.960  -0.450  0.00  0.00     0.137 A 
ATOM     26  C   UNL d   1      27.320 -18.094   0.266  0.00  0.00     0.136 A 
ATOM     27  N   UNL d   1      26.067 -18.594   0.241  0.00  0.00    -0.254 NA
ATOM     28  C   UNL d   1      25.157 -17.895  -0.509  0.00  0.00     0.127 A 
BRANCH  28  29
ATOM     29  C   UNL d   1      23.796 -18.421  -0.469  0.00  0.00     0.130 A 
ATOM     30  N   UNL d   1      23.092 -18.574   0.630  0.00  0.00    -0.238 NA
ATOM     31  C   UNL d   1      21.805 -18.951   0.309  0.00  0.00     0.075 A 
ATOM     32  C   UNL d   1      20.767 -19.166   1.234  0.00  0.00     0.033 A 
ATOM     33  C   UNL d   1      21.547 -19.126  -1.052  0.00  0.00     0.035 A 
ATOM     34  C   UNL d   1      19.505 -19.552   0.780  0.00  0.00     0.002 A 
ATOM     35  C   UNL d   1      19.263 -19.707  -0.583  0.00  0.00     0.002 A 
ATOM     36  C   UNL d   1      20.275 -19.490  -1.523  0.00  0.00     0.021 A 
ATOM     37  S   UNL d   1      22.996 -18.848  -1.934  0.00  0.00    -0.066 SA
ENDBRANCH  28  29
ENDBRANCH  21  23
ENDBRANCH  20  21
ENDBRANCH   1  20
TORSDOF 6
ENDMDL
MODEL 5
REMARK VINA RESULT:    -7.166      3.286      6.975
REMARK INTER + INTRA:         -12.295
REMARK INTER:                  -8.956
REMARK INTRA:                  -3.339
REMARK CONF_INDEPENDENT:        1.790
REMARK UNBOUND:                -3.339
REMARK  6 active torsions:
REMARK  status: ('A' for Active; 'I' for Inactive)
REMARK    1  A    between atoms: C_12  and  N_13 
REMARK       I    between atoms: N_13  and  C_14 
REMARK    2  A    between atoms: C_14  and  C_16 
REMARK    3  A    between atoms: C_16  and  O_17 
REMARK    4  A    between atoms: O_17  and  C_18 
REMARK    5  A    between atoms: C_18  and  C_20 
REMARK    6  A    between atoms: C_25  and  C_26 
ROOT
ATOM      1  C   UNL d   1      28.177 -11.731  -2.562  0.00  0.00     0.281 C 
ENDROOT
BRANCH   1   2
ATOM      2  C   UNL d   1      27.912 -12.294  -1.159  0.00  0.00     0.244 C 
ATOM      3  N   UNL d   1      26.965 -13.296  -1.054  0.00  0.00    -0.329 N 
ATOM      4  H   UNL d   1      26.487 -13.670  -1.861  0.00  0.00     0.165 HD
ATOM      5  O   UNL d   1      28.498 -11.859  -0.168  0.00  0.00    -0.271 OA
BRANCH   3   6
ATOM      6  C   UNL d   1      26.644 -13.809   0.252  0.00  0.00     0.264 A 
ATOM      7  O   UNL d   1      25.952 -12.767   0.975  0.00  0.00    -0.353 OA
ATOM      8  C   UNL d   1      26.657 -12.484   2.208  0.00  0.00     0.152 A 
ATOM      9  C   UNL d   1      27.853 -13.365   2.180  0.00  0.00    -0.017 A 
ATOM     10  C   UNL d   1      26.972 -10.997   2.205  0.00  0.00     0.044 C 
ATOM     11  C   UNL d   1      27.836 -14.085   1.060  0.00  0.00     0.066 A 
ATOM     12  C   UNL d   1      28.897 -13.475   3.229  0.00  0.00     0.105 A 
ATOM     13  C   UNL d   1      28.863 -15.072   0.779  0.00  0.00     0.266 A 
ATOM     14  N   UNL d   1      29.849 -15.200   1.731  0.00  0.00    -0.287 N 
ATOM     15  O   UNL d   1      28.860 -15.743  -0.252  0.00  0.00    -0.266 OA
ATOM     16  N   UNL d   1      29.929 -14.492   2.952  0.00  0.00    -0.229 NA
ATOM     17  H   UNL d   1      30.597 -15.847   1.495  0.00  0.00     0.184 HD
ATOM     18  H   UNL d   1      29.941 -15.167   3.719  0.00  0.00     0.147 HD
ATOM     19  C   UNL d   1      29.650 -12.161   3.402  0.00  0.00     0.033 C 
ENDBRANCH   3   6
ENDBRANCH   1   2
BRANCH   1  20
ATOM     20  O   UNL d   1      26.920 -11.333  -3.163  0.00  0.00    -0.307 OA
BRANCH  20  21
ATOM     21  C   UNL d   1      26.143 -12.364  -3.577  0.00  0.00     0.315 C 
ATOM     22  O   UNL d   1      25.012 -12.576  -3.160  0.00  0.00    -0.257 OA
BRANCH  21  23
ATOM     23  C   UNL d   1      26.764 -13.169  -4.677  0.00  0.00     0.163 A 
ATOM     24  N   UNL d   1      27.291 -12.516  -5.758  0.00  0.00    -0.251 NA
ATOM     25  C   UNL d   1      28.006 -13.293  -6.618  0.00  0.00     0.137 A 
ATOM     26  C   UNL d   1      28.186 -14.655  -6.433  0.00  0.00     0.136 A 
ATOM     27  N   UNL d   1      27.642 -15.312  -5.388  0.00  0.00    -0.254 NA
ATOM     28  C   UNL d   1      26.927 -14.545  -4.505  0.00  0.00     0.127 A 
BRANCH  28  29
ATOM     29  C   UNL d   1      26.401 -15.268  -3.351  0.00  0.00     0.130 A 
ATOM     30  N   UNL d   1      25.155 -15.203  -2.939  0.00  0.00    -0.238 NA
ATOM     31  C   UNL d   1      24.952 -16.114  -1.924  0.00  0.00     0.075 A 
ATOM     32  C   UNL d   1      23.727 -16.344  -1.272  0.00  0.00     0.033 A 
ATOM     33  C   UNL d   1      26.075 -16.847  -1.535  0.00  0.00     0.035 A 
ATOM     34  C   UNL d   1      23.655 -17.293  -0.251  0.00  0.00     0.002 A 
ATOM     35  C   UNL d   1      24.782 -18.025   0.112  0.00  0.00     0.002 A 
ATOM     36  C   UNL d   1      26.009 -17.823  -0.527  0.00  0.00     0.021 A 
ATOM     37  S   UNL d   1      27.428 -16.326  -2.458  0.00  0.00    -0.066 SA
ENDBRANCH  28  29
ENDBRANCH  21  23
ENDBRANCH  20  21
ENDBRANCH   1  20
TORSDOF 6
ENDMDL
