MODEL 1
REMARK VINA RESULT:    -9.606      0.000      0.000
REMARK INTER + INTRA:         -13.222
REMARK INTER:                 -11.694
REMARK INTRA:                  -1.528
REMARK CONF_INDEPENDENT:        2.088
REMARK UNBOUND:                -1.528
REMARK  7 active torsions:
REMARK  status: ('A' for Active; 'I' for Inactive)
REMARK    1  A    between atoms: C_8  and  N_9 
REMARK       I    between atoms: N_9  and  C_10 
REMARK    2  A    between atoms: C_10  and  C_12 
REMARK    3  A    between atoms: C_12  and  N_13 
REMARK    4  A    between atoms: N_13  and  C_14 
REMARK    5  A    between atoms: C_17  and  C_18 
REMARK       I    between atoms: C_18  and  N_20 
REMARK    6  A    between atoms: N_20  and  C_21 
REMARK    7  A    between atoms: C_21  and  C_22 
ROOT
ATOM      1  C   UNL d   1      25.920 -16.725  -0.499  0.00  0.00     0.028 A 
ATOM      2  C   UNL d   1      25.008 -15.967  -1.241  0.00  0.00     0.030 A 
ATOM      3  C   UNL d   1      23.659 -16.336  -1.312  0.00  0.00     0.019 A 
ATOM      4  C   UNL d   1      23.206 -17.487  -0.655  0.00  0.00     0.032 A 
ATOM      5  C   UNL d   1      24.110 -18.197   0.147  0.00  0.00     0.019 A 
ATOM      6  C   UNL d   1      25.446 -17.809   0.224  0.00  0.00     0.030 A 
ENDROOT
BRANCH   1   7
ATOM      7  N   UNL d   1      27.249 -16.403  -0.541  0.00  0.00    -0.381 N 
ATOM      8  H   UNL d   1      27.501 -15.669  -1.223  0.00  0.00     0.160 HD
BRANCH   7   9
ATOM      9  C   UNL d   1      28.186 -16.440   0.607  0.00  0.00     0.223 C 
BRANCH   9  10
ATOM     10  C   UNL d   1      28.033 -15.091   1.294  0.00  0.00     0.239 C 
ATOM     11  N   UNL d   1      28.128 -14.975   2.672  0.00  0.00    -0.325 N 
ATOM     12  H   UNL d   1      28.272 -15.838   3.189  0.00  0.00     0.169 HD
ATOM     13  O   UNL d   1      27.800 -14.190   0.479  0.00  0.00    -0.271 OA
BRANCH  11  14
ATOM     14  C   UNL d   1      28.041 -13.773   3.483  0.00  0.00     0.042 A 
ATOM     15  C   UNL d   1      27.626 -12.586   2.832  0.00  0.00     0.030 A 
ATOM     16  C   UNL d   1      27.502 -11.367   3.528  0.00  0.00     0.004 A 
ATOM     17  C   UNL d   1      27.780 -11.302   4.886  0.00  0.00     0.024 A 
ATOM     18  C   UNL d   1      28.183 -12.444   5.554  0.00  0.00     0.042 A 
ATOM     19  C   UNL d   1      28.324 -13.675   4.877  0.00  0.00    -0.013 A 
ATOM     20 CL   UNL d   1      28.495 -12.273   7.253  0.00  0.00    -0.084 Cl
ATOM     21  C   UNL d   1      28.779 -14.831   5.702  0.00  0.00     0.052 C 
ENDBRANCH  11  14
ENDBRANCH   9  10
ENDBRANCH   7   9
ENDBRANCH   1   7
BRANCH   4  22
ATOM     22  C   UNL d   1      21.793 -17.940  -0.889  0.00  0.00     0.251 C 
ATOM     23  O   UNL d   1      20.939 -17.147  -1.270  0.00  0.00    -0.268 OA
ATOM     24  N   UNL d   1      21.525 -19.275  -0.692  0.00  0.00    -0.351 N 
ATOM     25  H   UNL d   1      22.254 -19.883  -0.372  0.00  0.00     0.163 HD
BRANCH  24  26
ATOM     26  C   UNL d   1      20.221 -19.870  -0.927  0.00  0.00     0.187 C 
BRANCH  26  27
ATOM     27  C   UNL d   1      19.591 -20.198   0.390  0.00  0.00     0.070 A 
ATOM     28  C   UNL d   1      19.863 -19.817   1.691  0.00  0.00     0.036 A 
ATOM     29  C   UNL d   1      18.914 -20.450   2.519  0.00  0.00     0.027 A 
ATOM     30  C   UNL d   1      18.126 -21.204   1.683  0.00  0.00     0.142 A 
ATOM     31  O   UNL d   1      18.524 -21.058   0.389  0.00  0.00    -0.325 OA
ENDBRANCH  26  27
ENDBRANCH  24  26
ENDBRANCH   4  22
TORSDOF 7
ENDMDL
MODEL 2
REMARK VINA RESULT:    -9.574      1.371      2.233
REMARK INTER + INTRA:         -13.125
REMARK INTER:                 -11.662
REMARK INTRA:                  -1.463
REMARK CONF_INDEPENDENT:        2.088
REMARK UNBOUND:                -1.463
REMARK  7 active torsions:
REMARK  status: ('A' for Active; 'I' for Inactive)
REMARK    1  A    between atoms: C_8  and  N_9 
REMARK       I    between atoms: N_9  and  C_10 
REMARK    2  A    between atoms: C_10  and  C_12 
REMARK    3  A    between atoms: C_12  and  N_13 
REMARK    4  A    between atoms: N_13  and  C_14 
REMARK    5  A    between atoms: C_17  and  C_18 
REMARK       I    between atoms: C_18  and  N_20 
REMARK    6  A    between atoms: N_20  and  C_21 
REMARK    7  A    between atoms: C_21  and  C_22 
ROOT
ATOM      1  C   UNL d   1      26.423 -16.805   0.310  0.00  0.00     0.028 A 
ATOM      2  C   UNL d   1      26.091 -18.132   0.603  0.00  0.00     0.030 A 
ATOM      3  C   UNL d   1      24.980 -18.741   0.007  0.00  0.00     0.019 A 
ATOM      4  C   UNL d   1      24.169 -18.020  -0.877  0.00  0.00     0.032 A 
ATOM      5  C   UNL d   1      24.552 -16.717  -1.223  0.00  0.00     0.019 A 
ATOM      6  C   UNL d   1      25.671 -16.128  -0.638  0.00  0.00     0.030 A 
ENDROOT
BRANCH   1   7
ATOM      7  N   UNL d   1      27.446 -16.204   0.992  0.00  0.00    -0.381 N 
ATOM      8  H   UNL d   1      28.195 -16.842   1.310  0.00  0.00     0.160 HD
BRANCH   7   9
ATOM      9  C   UNL d   1      27.947 -14.827   0.766  0.00  0.00     0.223 C 
BRANCH   9  10
ATOM     10  C   UNL d   1      27.856 -14.140   2.121  0.00  0.00     0.239 C 
ATOM     11  N   UNL d   1      28.693 -14.504   3.164  0.00  0.00    -0.325 N 
ATOM     12  H   UNL d   1      29.339 -15.268   2.981  0.00  0.00     0.169 HD
ATOM     13  O   UNL d   1      26.960 -13.289   2.139  0.00  0.00    -0.271 OA
BRANCH  11  14
ATOM     14  C   UNL d   1      28.766 -13.938   4.501  0.00  0.00     0.042 A 
ATOM     15  C   UNL d   1      28.830 -14.849   5.583  0.00  0.00     0.030 A 
ATOM     16  C   UNL d   1      28.910 -14.405   6.917  0.00  0.00     0.004 A 
ATOM     17  C   UNL d   1      28.934 -13.048   7.206  0.00  0.00     0.024 A 
ATOM     18  C   UNL d   1      28.878 -12.131   6.172  0.00  0.00     0.042 A 
ATOM     19  C   UNL d   1      28.788 -12.550   4.827  0.00  0.00    -0.013 A 
ATOM     20 CL   UNL d   1      28.928 -10.456   6.625  0.00  0.00    -0.084 Cl
ATOM     21  C   UNL d   1      28.718 -11.468   3.803  0.00  0.00     0.052 C 
ENDBRANCH  11  14
ENDBRANCH   9  10
ENDBRANCH   7   9
ENDBRANCH   1   7
BRANCH   4  22
ATOM     22  C   UNL d   1      22.897 -18.653  -1.367  0.00  0.00     0.251 C 
ATOM     23  O   UNL d   1      22.889 -19.326  -2.392  0.00  0.00    -0.268 OA
ATOM     24  N   UNL d   1      21.773 -18.472  -0.594  0.00  0.00    -0.351 N 
ATOM     25  H   UNL d   1      21.826 -17.907   0.232  0.00  0.00     0.163 HD
BRANCH  24  26
ATOM     26  C   UNL d   1      20.484 -19.064  -0.909  0.00  0.00     0.187 C 
BRANCH  26  27
ATOM     27  C   UNL d   1      19.915 -19.681   0.329  0.00  0.00     0.070 A 
ATOM     28  C   UNL d   1      18.839 -20.517   0.563  0.00  0.00     0.036 A 
ATOM     29  C   UNL d   1      18.801 -20.771   1.949  0.00  0.00     0.027 A 
ATOM     30  C   UNL d   1      19.841 -20.058   2.494  0.00  0.00     0.142 A 
ATOM     31  O   UNL d   1      20.527 -19.394   1.522  0.00  0.00    -0.325 OA
ENDBRANCH  26  27
ENDBRANCH  24  26
ENDBRANCH   4  22
TORSDOF 7
ENDMDL
MODEL 3
REMARK VINA RESULT:    -8.676      4.040      5.940
REMARK INTER + INTRA:         -11.990
REMARK INTER:                 -10.764
REMARK INTRA:                  -1.226
REMARK CONF_INDEPENDENT:        2.088
REMARK UNBOUND:                -1.226
REMARK  7 active torsions:
REMARK  status: ('A' for Active; 'I' for Inactive)
REMARK    1  A    between atoms: C_8  and  N_9 
REMARK       I    between atoms: N_9  and  C_10 
REMARK    2  A    between atoms: C_10  and  C_12 
REMARK    3  A    between atoms: C_12  and  N_13 
REMARK    4  A    between atoms: N_13  and  C_14 
REMARK    5  A    between atoms: C_17  and  C_18 
REMARK       I    between atoms: C_18  and  N_20 
REMARK    6  A    between atoms: N_20  and  C_21 
REMARK    7  A    between atoms: C_21  and  C_22 
ROOT
ATOM      1  C   UNL d   1      26.582 -17.269  -0.057  0.00  0.00     0.028 A 
ATOM      2  C   UNL d   1      25.884 -18.402   0.374  0.00  0.00     0.030 A 
ATOM      3  C   UNL d   1      24.532 -18.575   0.055  0.00  0.00     0.019 A 
ATOM      4  C   UNL d   1      23.850 -17.601  -0.685  0.00  0.00     0.032 A 
ATOM      5  C   UNL d   1      24.576 -16.507  -1.177  0.00  0.00     0.019 A 
ATOM      6  C   UNL d   1      25.926 -16.355  -0.868  0.00  0.00     0.030 A 
ENDROOT
BRANCH   1   7
ATOM      7  N   UNL d   1      27.869 -17.074   0.365  0.00  0.00    -0.381 N 
ATOM      8  H   UNL d   1      28.518 -17.854   0.167  0.00  0.00     0.160 HD
BRANCH   7   9
ATOM      9  C   UNL d   1      28.572 -15.770   0.431  0.00  0.00     0.223 C 
BRANCH   9  10
ATOM     10  C   UNL d   1      28.843 -15.386  -1.016  0.00  0.00     0.239 C 
ATOM     11  N   UNL d   1      28.802 -16.334  -2.026  0.00  0.00    -0.325 N 
ATOM     12  H   UNL d   1      28.614 -17.292  -1.742  0.00  0.00     0.169 HD
ATOM     13  O   UNL d   1      29.112 -14.184  -1.124  0.00  0.00    -0.271 OA
BRANCH  11  14
ATOM     14  C   UNL d   1      29.001 -16.139  -3.453  0.00  0.00     0.042 A 
ATOM     15  C   UNL d   1      28.205 -15.153  -4.085  0.00  0.00     0.030 A 
ATOM     16  C   UNL d   1      28.324 -14.880  -5.462  0.00  0.00     0.004 A 
ATOM     17  C   UNL d   1      29.239 -15.575  -6.240  0.00  0.00     0.024 A 
ATOM     18  C   UNL d   1      30.035 -16.542  -5.653  0.00  0.00     0.042 A 
ATOM     19  C   UNL d   1      29.929 -16.840  -4.277  0.00  0.00    -0.013 A 
ATOM     20 CL   UNL d   1      31.161 -17.350  -6.699  0.00  0.00    -0.084 Cl
ATOM     21  C   UNL d   1      30.830 -17.912  -3.765  0.00  0.00     0.052 C 
ENDBRANCH  11  14
ENDBRANCH   9  10
ENDBRANCH   7   9
ENDBRANCH   1   7
BRANCH   4  22
ATOM     22  C   UNL d   1      22.365 -17.743  -0.866  0.00  0.00     0.251 C 
ATOM     23  O   UNL d   1      21.643 -16.753  -0.894  0.00  0.00    -0.268 OA
ATOM     24  N   UNL d   1      21.877 -19.018  -1.034  0.00  0.00    -0.351 N 
ATOM     25  H   UNL d   1      22.506 -19.797  -0.995  0.00  0.00     0.163 HD
BRANCH  24  26
ATOM     26  C   UNL d   1      20.473 -19.310  -1.270  0.00  0.00     0.187 C 
BRANCH  26  27
ATOM     27  C   UNL d   1      19.867 -19.841  -0.010  0.00  0.00     0.070 A 
ATOM     28  C   UNL d   1      20.191 -19.703   1.328  0.00  0.00     0.036 A 
ATOM     29  C   UNL d   1      19.239 -20.438   2.065  0.00  0.00     0.027 A 
ATOM     30  C   UNL d   1      18.398 -21.005   1.138  0.00  0.00     0.142 A 
ATOM     31  O   UNL d   1      18.766 -20.649  -0.124  0.00  0.00    -0.325 OA
ENDBRANCH  26  27
ENDBRANCH  24  26
ENDBRANCH   4  22
TORSDOF 7
ENDMDL
MODEL 4
REMARK VINA RESULT:    -8.514      5.064      7.192
REMARK INTER + INTRA:         -12.387
REMARK INTER:                 -10.602
REMARK INTRA:                  -1.785
REMARK CONF_INDEPENDENT:        2.088
REMARK UNBOUND:                -1.785
REMARK  7 active torsions:
REMARK  status: ('A' for Active; 'I' for Inactive)
REMARK    1  A    between atoms: C_8  and  N_9 
REMARK       I    between atoms: N_9  and  C_10 
REMARK    2  A    between atoms: C_10  and  C_12 
REMARK    3  A    between atoms: C_12  and  N_13 
REMARK    4  A    between atoms: N_13  and  C_14 
REMARK    5  A    between atoms: C_17  and  C_18 
REMARK       I    between atoms: C_18  and  N_20 
REMARK    6  A    between atoms: N_20  and  C_21 
REMARK    7  A    between atoms: C_21  and  C_22 
ROOT
ATOM      1  C   UNL d   1      26.954 -17.304  -0.060  0.00  0.00     0.028 A 
ATOM      2  C   UNL d   1      26.221 -16.176  -0.443  0.00  0.00     0.030 A 
ATOM      3  C   UNL d   1      24.827 -16.233  -0.561  0.00  0.00     0.019 A 
ATOM      4  C   UNL d   1      24.146 -17.432  -0.318  0.00  0.00     0.032 A 
ATOM      5  C   UNL d   1      24.880 -18.536   0.139  0.00  0.00     0.019 A 
ATOM      6  C   UNL d   1      26.265 -18.461   0.270  0.00  0.00     0.030 A 
ENDROOT
BRANCH   1   7
ATOM      7  N   UNL d   1      28.321 -17.247  -0.063  0.00  0.00    -0.381 N 
ATOM      8  H   UNL d   1      28.796 -18.118   0.226  0.00  0.00     0.160 HD
BRANCH   7   9
ATOM      9  C   UNL d   1      29.154 -16.440  -0.986  0.00  0.00     0.223 C 
BRANCH   9  10
ATOM     10  C   UNL d   1      29.817 -17.448  -1.914  0.00  0.00     0.239 C 
ATOM     11  N   UNL d   1      29.801 -17.272  -3.288  0.00  0.00    -0.325 N 
ATOM     12  H   UNL d   1      29.300 -16.458  -3.635  0.00  0.00     0.169 HD
ATOM     13  O   UNL d   1      30.308 -18.391  -1.283  0.00  0.00    -0.271 OA
BRANCH  11  14
ATOM     14  C   UNL d   1      30.406 -18.109  -4.311  0.00  0.00     0.042 A 
ATOM     15  C   UNL d   1      30.781 -19.420  -3.930  0.00  0.00     0.030 A 
ATOM     16  C   UNL d   1      31.369 -20.315  -4.846  0.00  0.00     0.004 A 
ATOM     17  C   UNL d   1      31.591 -19.931  -6.160  0.00  0.00     0.024 A 
ATOM     18  C   UNL d   1      31.231 -18.659  -6.567  0.00  0.00     0.042 A 
ATOM     19  C   UNL d   1      30.649 -17.740  -5.667  0.00  0.00    -0.013 A 
ATOM     20 CL   UNL d   1      31.531 -18.269  -8.232  0.00  0.00    -0.084 Cl
ATOM     21  C   UNL d   1      30.319 -16.395  -6.219  0.00  0.00     0.052 C 
ENDBRANCH  11  14
ENDBRANCH   9  10
ENDBRANCH   7   9
ENDBRANCH   1   7
BRANCH   4  22
ATOM     22  C   UNL d   1      22.674 -17.497  -0.613  0.00  0.00     0.251 C 
ATOM     23  O   UNL d   1      22.049 -16.481  -0.894  0.00  0.00    -0.268 OA
ATOM     24  N   UNL d   1      22.088 -18.741  -0.590  0.00  0.00    -0.351 N 
ATOM     25  H   UNL d   1      22.638 -19.543  -0.347  0.00  0.00     0.163 HD
BRANCH  24  26
ATOM     26  C   UNL d   1      20.688 -18.970  -0.904  0.00  0.00     0.187 C 
BRANCH  26  27
ATOM     27  C   UNL d   1      20.030 -19.639   0.261  0.00  0.00     0.070 A 
ATOM     28  C   UNL d   1      18.882 -20.400   0.392  0.00  0.00     0.036 A 
ATOM     29  C   UNL d   1      18.777 -20.765   1.750  0.00  0.00     0.027 A 
ATOM     30  C   UNL d   1      19.852 -20.188   2.382  0.00  0.00     0.142 A 
ATOM     31  O   UNL d   1      20.621 -19.505   1.489  0.00  0.00    -0.325 OA
ENDBRANCH  26  27
ENDBRANCH  24  26
ENDBRANCH   4  22
TORSDOF 7
ENDMDL
MODEL 5
REMARK VINA RESULT:    -8.431      4.357      5.710
REMARK INTER + INTRA:         -12.322
REMARK INTER:                 -10.519
REMARK INTRA:                  -1.803
REMARK CONF_INDEPENDENT:        2.088
REMARK UNBOUND:                -1.803
REMARK  7 active torsions:
REMARK  status: ('A' for Active; 'I' for Inactive)
REMARK    1  A    between atoms: C_8  and  N_9 
REMARK       I    between atoms: N_9  and  C_10 
REMARK    2  A    between atoms: C_10  and  C_12 
REMARK    3  A    between atoms: C_12  and  N_13 
REMARK    4  A    between atoms: N_13  and  C_14 
REMARK    5  A    between atoms: C_17  and  C_18 
REMARK       I    between atoms: C_18  and  N_20 
REMARK    6  A    between atoms: N_20  and  C_21 
REMARK    7  A    between atoms: C_21  and  C_22 
ROOT
ATOM      1  C   UNL d   1      26.645 -16.811   0.161  0.00  0.00     0.028 A 
ATOM      2  C   UNL d   1      25.777 -16.058  -0.636  0.00  0.00     0.030 A 
ATOM      3  C   UNL d   1      24.537 -16.574  -1.032  0.00  0.00     0.019 A 
ATOM      4  C   UNL d   1      24.157 -17.867  -0.651  0.00  0.00     0.032 A 
ATOM      5  C   UNL d   1      24.998 -18.584   0.210  0.00  0.00     0.019 A 
ATOM      6  C   UNL d   1      26.222 -18.052   0.612  0.00  0.00     0.030 A 
ENDROOT
BRANCH   1   7
ATOM      7  N   UNL d   1      27.894 -16.325   0.437  0.00  0.00    -0.381 N 
ATOM      8  H   UNL d   1      28.168 -16.361   1.433  0.00  0.00     0.160 HD
BRANCH   7   9
ATOM      9  C   UNL d   1      29.068 -16.388  -0.466  0.00  0.00     0.223 C 
BRANCH   9  10
ATOM     10  C   UNL d   1      28.824 -15.315  -1.517  0.00  0.00     0.239 C 
ATOM     11  N   UNL d   1      27.932 -15.524  -2.557  0.00  0.00    -0.325 N 
ATOM     12  H   UNL d   1      27.482 -16.435  -2.592  0.00  0.00     0.169 HD
ATOM     13  O   UNL d   1      29.523 -14.315  -1.317  0.00  0.00    -0.271 OA
BRANCH  11  14
ATOM     14  C   UNL d   1      27.556 -14.606  -3.620  0.00  0.00     0.042 A 
ATOM     15  C   UNL d   1      26.435 -13.774  -3.385  0.00  0.00     0.030 A 
ATOM     16  C   UNL d   1      25.991 -12.845  -4.346  0.00  0.00     0.004 A 
ATOM     17  C   UNL d   1      26.654 -12.716  -5.558  0.00  0.00     0.024 A 
ATOM     18  C   UNL d   1      27.757 -13.510  -5.818  0.00  0.00     0.042 A 
ATOM     19  C   UNL d   1      28.216 -14.456  -4.875  0.00  0.00    -0.013 A 
ATOM     20 CL   UNL d   1      28.533 -13.272  -7.353  0.00  0.00    -0.084 Cl
ATOM     21  C   UNL d   1      29.404 -15.263  -5.276  0.00  0.00     0.052 C 
ENDBRANCH  11  14
ENDBRANCH   9  10
ENDBRANCH   7   9
ENDBRANCH   1   7
BRANCH   4  22
ATOM     22  C   UNL d   1      22.896 -18.446  -1.230  0.00  0.00     0.251 C 
ATOM     23  O   UNL d   1      22.903 -18.977  -2.334  0.00  0.00    -0.268 OA
ATOM     24  N   UNL d   1      21.765 -18.381  -0.449  0.00  0.00    -0.351 N 
ATOM     25  H   UNL d   1      21.806 -17.929   0.445  0.00  0.00     0.163 HD
BRANCH  24  26
ATOM     26  C   UNL d   1      20.486 -18.942  -0.849  0.00  0.00     0.187 C 
BRANCH  26  27
ATOM     27  C   UNL d   1      19.859 -19.617   0.330  0.00  0.00     0.070 A 
ATOM     28  C   UNL d   1      18.787 -20.480   0.468  0.00  0.00     0.036 A 
ATOM     29  C   UNL d   1      18.675 -20.789   1.839  0.00  0.00     0.027 A 
ATOM     30  C   UNL d   1      19.669 -20.081   2.470  0.00  0.00     0.142 A 
ATOM     31  O   UNL d   1      20.396 -19.367   1.566  0.00  0.00    -0.325 OA
ENDBRANCH  26  27
ENDBRANCH  24  26
ENDBRANCH   4  22
TORSDOF 7
ENDMDL
MODEL 6
REMARK VINA RESULT:    -7.992      3.907      4.447
REMARK INTER + INTRA:         -11.450
REMARK INTER:                 -10.080
REMARK INTRA:                  -1.370
REMARK CONF_INDEPENDENT:        2.088
REMARK UNBOUND:                -1.370
REMARK  7 active torsions:
REMARK  status: ('A' for Active; 'I' for Inactive)
REMARK    1  A    between atoms: C_8  and  N_9 
REMARK       I    between atoms: N_9  and  C_10 
REMARK    2  A    between atoms: C_10  and  C_12 
REMARK    3  A    between atoms: C_12  and  N_13 
REMARK    4  A    between atoms: N_13  and  C_14 
REMARK    5  A    between atoms: C_17  and  C_18 
REMARK       I    between atoms: C_18  and  N_20 
REMARK    6  A    between atoms: N_20  and  C_21 
REMARK    7  A    between atoms: C_21  and  C_22 
ROOT
ATOM      1  C   UNL d   1      26.765 -17.028  -0.172  0.00  0.00     0.028 A 
ATOM      2  C   UNL d   1      26.006 -16.435  -1.186  0.00  0.00     0.030 A 
ATOM      3  C   UNL d   1      24.735 -16.926  -1.510  0.00  0.00     0.019 A 
ATOM      4  C   UNL d   1      24.213 -18.036  -0.835  0.00  0.00     0.032 A 
ATOM      5  C   UNL d   1      24.947 -18.575   0.230  0.00  0.00     0.019 A 
ATOM      6  C   UNL d   1      26.203 -18.066   0.556  0.00  0.00     0.030 A 
ENDROOT
BRANCH   1   7
ATOM      7  N   UNL d   1      28.045 -16.598   0.046  0.00  0.00    -0.381 N 
ATOM      8  H   UNL d   1      28.392 -16.722   1.011  0.00  0.00     0.160 HD
BRANCH   7   9
ATOM      9  C   UNL d   1      29.147 -16.617  -0.946  0.00  0.00     0.223 C 
BRANCH   9  10
ATOM     10  C   UNL d   1      30.385 -16.178  -0.179  0.00  0.00     0.239 C 
ATOM     11  N   UNL d   1      31.110 -17.079   0.584  0.00  0.00    -0.325 N 
ATOM     12  H   UNL d   1      30.752 -18.029   0.625  0.00  0.00     0.169 HD
ATOM     13  O   UNL d   1      30.601 -14.968  -0.320  0.00  0.00    -0.271 OA
BRANCH  11  14
ATOM     14  C   UNL d   1      32.325 -16.842   1.347  0.00  0.00     0.042 A 
ATOM     15  C   UNL d   1      32.690 -15.492   1.571  0.00  0.00     0.030 A 
ATOM     16  C   UNL d   1      33.843 -15.153   2.305  0.00  0.00     0.004 A 
ATOM     17  C   UNL d   1      34.656 -16.144   2.836  0.00  0.00     0.024 A 
ATOM     18  C   UNL d   1      34.326 -17.473   2.640  0.00  0.00     0.042 A 
ATOM     19  C   UNL d   1      33.179 -17.839   1.901  0.00  0.00    -0.013 A 
ATOM     20 CL   UNL d   1      35.390 -18.644   3.352  0.00  0.00    -0.084 Cl
ATOM     21  C   UNL d   1      32.937 -19.303   1.745  0.00  0.00     0.052 C 
ENDBRANCH  11  14
ENDBRANCH   9  10
ENDBRANCH   7   9
ENDBRANCH   1   7
BRANCH   4  22
ATOM     22  C   UNL d   1      22.922 -18.632  -1.321  0.00  0.00     0.251 C 
ATOM     23  O   UNL d   1      22.896 -19.325  -2.332  0.00  0.00    -0.268 OA
ATOM     24  N   UNL d   1      21.801 -18.394  -0.560  0.00  0.00    -0.351 N 
ATOM     25  H   UNL d   1      21.869 -17.815   0.254  0.00  0.00     0.163 HD
BRANCH  24  26
ATOM     26  C   UNL d   1      20.493 -18.945  -0.873  0.00  0.00     0.187 C 
BRANCH  26  27
ATOM     27  C   UNL d   1      19.947 -19.624   0.343  0.00  0.00     0.070 A 
ATOM     28  C   UNL d   1      18.902 -20.507   0.547  0.00  0.00     0.036 A 
ATOM     29  C   UNL d   1      18.872 -20.807   1.924  0.00  0.00     0.027 A 
ATOM     30  C   UNL d   1      19.884 -20.075   2.494  0.00  0.00     0.142 A 
ATOM     31  O   UNL d   1      20.545 -19.354   1.546  0.00  0.00    -0.325 OA
ENDBRANCH  26  27
ENDBRANCH  24  26
ENDBRANCH   4  22
TORSDOF 7
ENDMDL
MODEL 7
REMARK VINA RESULT:    -7.861      4.963      7.082
REMARK INTER + INTRA:         -11.922
REMARK INTER:                  -9.949
REMARK INTRA:                  -1.973
REMARK CONF_INDEPENDENT:        2.088
REMARK UNBOUND:                -1.973
REMARK  7 active torsions:
REMARK  status: ('A' for Active; 'I' for Inactive)
REMARK    1  A    between atoms: C_8  and  N_9 
REMARK       I    between atoms: N_9  and  C_10 
REMARK    2  A    between atoms: C_10  and  C_12 
REMARK    3  A    between atoms: C_12  and  N_13 
REMARK    4  A    between atoms: N_13  and  C_14 
REMARK    5  A    between atoms: C_17  and  C_18 
REMARK       I    between atoms: C_18  and  N_20 
REMARK    6  A    between atoms: N_20  and  C_21 
REMARK    7  A    between atoms: C_21  and  C_22 
ROOT
ATOM      1  C   UNL d   1      26.072 -14.278  -2.534  0.00  0.00     0.028 A 
ATOM      2  C   UNL d   1      24.822 -14.857  -2.776  0.00  0.00     0.030 A 
ATOM      3  C   UNL d   1      24.383 -15.956  -2.026  0.00  0.00     0.019 A 
ATOM      4  C   UNL d   1      25.203 -16.507  -1.035  0.00  0.00     0.032 A 
ATOM      5  C   UNL d   1      26.420 -15.875  -0.748  0.00  0.00     0.019 A 
ATOM      6  C   UNL d   1      26.838 -14.770  -1.488  0.00  0.00     0.030 A 
ENDROOT
BRANCH   1   7
ATOM      7  N   UNL d   1      26.518 -13.279  -3.355  0.00  0.00    -0.381 N 
ATOM      8  H   UNL d   1      27.255 -12.677  -2.952  0.00  0.00     0.160 HD
BRANCH   7   9
ATOM      9  C   UNL d   1      26.603 -13.345  -4.833  0.00  0.00     0.223 C 
BRANCH   9  10
ATOM     10  C   UNL d   1      27.440 -14.580  -5.133  0.00  0.00     0.239 C 
ATOM     11  N   UNL d   1      28.543 -14.900  -4.359  0.00  0.00    -0.325 N 
ATOM     12  H   UNL d   1      28.775 -14.253  -3.610  0.00  0.00     0.169 HD
ATOM     13  O   UNL d   1      27.017 -15.185  -6.125  0.00  0.00    -0.271 OA
BRANCH  11  14
ATOM     14  C   UNL d   1      29.428 -16.047  -4.482  0.00  0.00     0.042 A 
ATOM     15  C   UNL d   1      29.603 -16.851  -3.329  0.00  0.00     0.030 A 
ATOM     16  C   UNL d   1      30.432 -17.989  -3.343  0.00  0.00     0.004 A 
ATOM     17  C   UNL d   1      31.101 -18.359  -4.501  0.00  0.00     0.024 A 
ATOM     18  C   UNL d   1      30.948 -17.598  -5.647  0.00  0.00     0.042 A 
ATOM     19  C   UNL d   1      30.129 -16.448  -5.657  0.00  0.00    -0.013 A 
ATOM     20 CL   UNL d   1      31.809 -18.142  -7.052  0.00  0.00    -0.084 Cl
ATOM     21  C   UNL d   1      30.057 -15.703  -6.947  0.00  0.00     0.052 C 
ENDBRANCH  11  14
ENDBRANCH   9  10
ENDBRANCH   7   9
ENDBRANCH   1   7
BRANCH   4  22
ATOM     22  C   UNL d   1      24.768 -17.781  -0.368  0.00  0.00     0.251 C 
ATOM     23  O   UNL d   1      25.461 -18.299   0.501  0.00  0.00    -0.268 OA
ATOM     24  N   UNL d   1      23.555 -18.303  -0.752  0.00  0.00    -0.351 N 
ATOM     25  H   UNL d   1      23.027 -17.849  -1.473  0.00  0.00     0.163 HD
BRANCH  24  26
ATOM     26  C   UNL d   1      22.978 -19.499  -0.163  0.00  0.00     0.187 C 
BRANCH  26  27
ATOM     27  C   UNL d   1      21.489 -19.354  -0.124  0.00  0.00     0.070 A 
ATOM     28  C   UNL d   1      20.516 -19.801   0.752  0.00  0.00     0.036 A 
ATOM     29  C   UNL d   1      19.275 -19.341   0.266  0.00  0.00     0.027 A 
ATOM     30  C   UNL d   1      19.551 -18.658  -0.893  0.00  0.00     0.142 A 
ATOM     31  O   UNL d   1      20.891 -18.656  -1.140  0.00  0.00    -0.325 OA
ENDBRANCH  26  27
ENDBRANCH  24  26
ENDBRANCH   4  22
TORSDOF 7
ENDMDL
MODEL 8
REMARK VINA RESULT:    -7.232      2.948      3.964
REMARK INTER + INTRA:         -11.301
REMARK INTER:                  -9.320
REMARK INTRA:                  -1.981
REMARK CONF_INDEPENDENT:        2.088
REMARK UNBOUND:                -1.981
REMARK  7 active torsions:
REMARK  status: ('A' for Active; 'I' for Inactive)
REMARK    1  A    between atoms: C_8  and  N_9 
REMARK       I    between atoms: N_9  and  C_10 
REMARK    2  A    between atoms: C_10  and  C_12 
REMARK    3  A    between atoms: C_12  and  N_13 
REMARK    4  A    between atoms: N_13  and  C_14 
REMARK    5  A    between atoms: C_17  and  C_18 
REMARK       I    between atoms: C_18  and  N_20 
REMARK    6  A    between atoms: N_20  and  C_21 
REMARK    7  A    between atoms: C_21  and  C_22 
ROOT
ATOM      1  C   UNL d   1      25.649 -13.888  -3.633  0.00  0.00     0.028 A 
ATOM      2  C   UNL d   1      26.614 -14.868  -3.379  0.00  0.00     0.030 A 
ATOM      3  C   UNL d   1      26.313 -15.983  -2.588  0.00  0.00     0.019 A 
ATOM      4  C   UNL d   1      25.042 -16.123  -2.019  0.00  0.00     0.032 A 
ATOM      5  C   UNL d   1      24.059 -15.177  -2.341  0.00  0.00     0.019 A 
ATOM      6  C   UNL d   1      24.365 -14.081  -3.145  0.00  0.00     0.030 A 
ENDROOT
BRANCH   1   7
ATOM      7  N   UNL d   1      26.004 -12.757  -4.315  0.00  0.00    -0.381 N 
ATOM      8  H   UNL d   1      25.215 -12.200  -4.682  0.00  0.00     0.160 HD
BRANCH   7   9
ATOM      9  C   UNL d   1      27.197 -11.919  -4.043  0.00  0.00     0.223 C 
BRANCH   9  10
ATOM     10  C   UNL d   1      27.058 -11.484  -2.591  0.00  0.00     0.239 C 
ATOM     11  N   UNL d   1      27.444 -12.320  -1.555  0.00  0.00    -0.325 N 
ATOM     12  H   UNL d   1      27.790 -13.239  -1.819  0.00  0.00     0.169 HD
ATOM     13  O   UNL d   1      26.556 -10.358  -2.500  0.00  0.00    -0.271 OA
BRANCH  11  14
ATOM     14  C   UNL d   1      27.413 -12.057  -0.126  0.00  0.00     0.042 A 
ATOM     15  C   UNL d   1      27.337 -10.702   0.277  0.00  0.00     0.030 A 
ATOM     16  C   UNL d   1      27.294 -10.338   1.638  0.00  0.00     0.004 A 
ATOM     17  C   UNL d   1      27.320 -11.311   2.627  0.00  0.00     0.024 A 
ATOM     18  C   UNL d   1      27.389 -12.645   2.268  0.00  0.00     0.042 A 
ATOM     19  C   UNL d   1      27.441 -13.035   0.911  0.00  0.00    -0.013 A 
ATOM     20 CL   UNL d   1      27.401 -13.794   3.569  0.00  0.00    -0.084 Cl
ATOM     21  C   UNL d   1      27.529 -14.501   0.651  0.00  0.00     0.052 C 
ENDBRANCH  11  14
ENDBRANCH   9  10
ENDBRANCH   7   9
ENDBRANCH   1   7
BRANCH   4  22
ATOM     22  C   UNL d   1      24.808 -17.244  -1.045  0.00  0.00     0.251 C 
ATOM     23  O   UNL d   1      25.550 -17.398  -0.082  0.00  0.00    -0.268 OA
ATOM     24  N   UNL d   1      23.714 -18.046  -1.270  0.00  0.00    -0.351 N 
ATOM     25  H   UNL d   1      23.140 -17.887  -2.076  0.00  0.00     0.163 HD
BRANCH  24  26
ATOM     26  C   UNL d   1      23.329 -19.137  -0.390  0.00  0.00     0.187 C 
BRANCH  26  27
ATOM     27  C   UNL d   1      21.837 -19.228  -0.351  0.00  0.00     0.070 A 
ATOM     28  C   UNL d   1      20.920 -19.327   0.680  0.00  0.00     0.036 A 
ATOM     29  C   UNL d   1      19.638 -19.374   0.095  0.00  0.00     0.027 A 
ATOM     30  C   UNL d   1      19.839 -19.325  -1.263  0.00  0.00     0.142 A 
ATOM     31  O   UNL d   1      21.168 -19.234  -1.547  0.00  0.00    -0.325 OA
ENDBRANCH  26  27
ENDBRANCH  24  26
ENDBRANCH   4  22
TORSDOF 7
ENDMDL
MODEL 9
REMARK VINA RESULT:    -7.217      7.010      9.689
REMARK INTER + INTRA:         -11.251
REMARK INTER:                  -9.305
REMARK INTRA:                  -1.946
REMARK CONF_INDEPENDENT:        2.088
REMARK UNBOUND:                -1.946
REMARK  7 active torsions:
REMARK  status: ('A' for Active; 'I' for Inactive)
REMARK    1  A    between atoms: C_8  and  N_9 
REMARK       I    between atoms: N_9  and  C_10 
REMARK    2  A    between atoms: C_10  and  C_12 
REMARK    3  A    between atoms: C_12  and  N_13 
REMARK    4  A    between atoms: N_13  and  C_14 
REMARK    5  A    between atoms: C_17  and  C_18 
REMARK       I    between atoms: C_18  and  N_20 
REMARK    6  A    between atoms: N_20  and  C_21 
REMARK    7  A    between atoms: C_21  and  C_22 
ROOT
ATOM      1  C   UNL d   1      29.041 -14.277  -6.630  0.00  0.00     0.028 A 
ATOM      2  C   UNL d   1      28.115 -13.233  -6.527  0.00  0.00     0.030 A 
ATOM      3  C   UNL d   1      27.035 -13.317  -5.640  0.00  0.00     0.019 A 
ATOM      4  C   UNL d   1      26.854 -14.462  -4.855  0.00  0.00     0.032 A 
ATOM      5  C   UNL d   1      27.827 -15.469  -4.909  0.00  0.00     0.019 A 
ATOM      6  C   UNL d   1      28.908 -15.366  -5.782  0.00  0.00     0.030 A 
ENDROOT
BRANCH   1   7
ATOM      7  N   UNL d   1      30.019 -14.213  -7.584  0.00  0.00    -0.381 N 
ATOM      8  H   UNL d   1      29.796 -13.623  -8.402  0.00  0.00     0.160 HD
BRANCH   7   9
ATOM      9  C   UNL d   1      31.479 -14.290  -7.336  0.00  0.00     0.223 C 
BRANCH   9  10
ATOM     10  C   UNL d   1      31.757 -15.753  -7.025  0.00  0.00     0.239 C 
ATOM     11  N   UNL d   1      30.908 -16.753  -7.474  0.00  0.00    -0.325 N 
ATOM     12  H   UNL d   1      30.085 -16.451  -7.987  0.00  0.00     0.169 HD
ATOM     13  O   UNL d   1      32.774 -15.885  -6.334  0.00  0.00    -0.271 OA
BRANCH  11  14
ATOM     14  C   UNL d   1      31.037 -18.190  -7.299  0.00  0.00     0.042 A 
ATOM     15  C   UNL d   1      31.417 -18.945  -8.435  0.00  0.00     0.030 A 
ATOM     16  C   UNL d   1      31.578 -20.343  -8.371  0.00  0.00     0.004 A 
ATOM     17  C   UNL d   1      31.370 -21.021  -7.179  0.00  0.00     0.024 A 
ATOM     18  C   UNL d   1      31.003 -20.313  -6.048  0.00  0.00     0.042 A 
ATOM     19  C   UNL d   1      30.827 -18.913  -6.088  0.00  0.00    -0.013 A 
ATOM     20 CL   UNL d   1      30.780 -21.241  -4.598  0.00  0.00    -0.084 Cl
ATOM     21  C   UNL d   1      30.416 -18.265  -4.809  0.00  0.00     0.052 C 
ENDBRANCH  11  14
ENDBRANCH   9  10
ENDBRANCH   7   9
ENDBRANCH   1   7
BRANCH   4  22
ATOM     22  C   UNL d   1      25.598 -14.584  -4.040  0.00  0.00     0.251 C 
ATOM     23  O   UNL d   1      24.554 -14.067  -4.421  0.00  0.00    -0.268 OA
ATOM     24  N   UNL d   1      25.674 -15.326  -2.884  0.00  0.00    -0.351 N 
ATOM     25  H   UNL d   1      26.552 -15.723  -2.608  0.00  0.00     0.163 HD
BRANCH  24  26
ATOM     26  C   UNL d   1      24.534 -15.576  -2.019  0.00  0.00     0.187 C 
BRANCH  26  27
ATOM     27  C   UNL d   1      24.831 -16.757  -1.149  0.00  0.00     0.070 A 
ATOM     28  C   UNL d   1      24.032 -17.678  -0.497  0.00  0.00     0.036 A 
ATOM     29  C   UNL d   1      24.890 -18.575   0.172  0.00  0.00     0.027 A 
ATOM     30  C   UNL d   1      26.168 -18.141  -0.087  0.00  0.00     0.142 A 
ATOM     31  O   UNL d   1      26.146 -17.040  -0.889  0.00  0.00    -0.325 OA
ENDBRANCH  26  27
ENDBRANCH  24  26
ENDBRANCH   4  22
TORSDOF 7
ENDMDL
