MODEL 1
REMARK VINA RESULT:   -27.865      0.000      0.000
REMARK INTER + INTRA:         -30.240
REMARK INTER:                 -29.357
REMARK INTRA:                  -0.883
REMARK CONF_INDEPENDENT:        1.492
REMARK UNBOUND:                -0.883
REMARK  5 active torsions:
REMARK  status: ('A' for Active; 'I' for Inactive)
REMARK    1  A    between atoms: C_7  and  C_8 
REMARK       I    between atoms: C_8  and  N_10 
REMARK    2  A    between atoms: N_10  and  C_11 
REMARK    3  A    between atoms: C_11  and  C_12 
REMARK       I    between atoms: C_12  and  N_14 
REMARK    4  A    between atoms: N_14  and  C_15 
REMARK    5  A    between atoms: C_19  and  C_20 
ROOT
ATOM      1  C   UNL d   1      24.488 -17.386  -1.062  0.00  0.00     0.035 A 
ATOM      2  C   UNL d   1      24.287 -16.111  -1.575  0.00  0.00     0.029 A 
ATOM      3  C   UNL d   1      22.977 -15.595  -1.659  0.00  0.00     0.003 A 
ATOM      4  C   UNL d   1      21.840 -16.352  -1.264  0.00  0.00     0.015 A 
ATOM      5  C   UNL d   1      22.005 -17.637  -0.754  0.00  0.00     0.012 A 
ATOM      6  C   UNL d   1      23.354 -18.110  -0.667  0.00  0.00     0.044 A 
ENDROOT
BRANCH   1   7
ATOM      7  N   UNL d   1      25.804 -17.908  -0.888  0.00  0.00    -0.326 N 
ATOM      8  C   UNL d   1      26.818 -17.224  -0.222  0.00  0.00     0.239 C 
ATOM      9  O   UNL d   1      26.655 -16.148   0.362  0.00  0.00    -0.271 OA
ATOM     10  H   UNL d   1      25.963 -18.875  -1.145  0.00  0.00     0.169 HD
BRANCH   8  11
ATOM     11  C   UNL d   1      28.207 -17.920  -0.179  0.00  0.00     0.226 C 
BRANCH  11  12
ATOM     12  N   UNL d   1      28.896 -17.605  -1.428  0.00  0.00    -0.348 N 
ATOM     13  C   UNL d   1      28.812 -16.420  -2.140  0.00  0.00     0.252 C 
ATOM     14  O   UNL d   1      28.108 -15.509  -1.747  0.00  0.00    -0.268 OA
ATOM     15  H   UNL d   1      29.467 -18.373  -1.715  0.00  0.00     0.163 HD
BRANCH  13  16
ATOM     16  C   UNL d   1      29.616 -16.264  -3.437  0.00  0.00     0.037 A 
ATOM     17  C   UNL d   1      30.735 -17.119  -3.590  0.00  0.00     0.017 A 
ATOM     18  C   UNL d   1      31.550 -17.081  -4.735  0.00  0.00     0.001 A 
ATOM     19  C   UNL d   1      31.273 -16.182  -5.754  0.00  0.00     0.001 A 
ATOM     20  C   UNL d   1      30.182 -15.329  -5.630  0.00  0.00     0.007 A 
ATOM     21  C   UNL d   1      29.348 -15.358  -4.491  0.00  0.00    -0.046 A 
ATOM     22  C   UNL d   1      28.200 -14.397  -4.498  0.00  0.00     0.049 C 
ENDBRANCH  13  16
ENDBRANCH  11  12
ENDBRANCH   8  11
ENDBRANCH   1   7
BRANCH   5  23
ATOM     23  C   UNL d   1      20.980 -18.556  -0.166  0.00  0.00     0.139 C 
ATOM     24  N   UNL d   1      19.905 -18.763  -0.895  0.00  0.00    -0.228 NA
ATOM     25  C   UNL d   1      19.192 -19.737  -0.313  0.00  0.00     0.086 C 
ATOM     26  C   UNL d   1      18.171 -20.462  -0.913  0.00  0.00     0.034 C 
ATOM     27  C   UNL d   1      19.604 -19.985   0.984  0.00  0.00     0.062 C 
ATOM     28  C   UNL d   1      17.411 -21.334  -0.157  0.00  0.00     0.002 C 
ATOM     29  C   UNL d   1      17.663 -21.442   1.209  0.00  0.00     0.002 C 
ATOM     30  C   UNL d   1      18.766 -20.774   1.825  0.00  0.00     0.032 C 
ATOM     31  N   UNL d   1      20.887 -19.387   0.971  0.00  0.00    -0.338 N 
ATOM     32  H   UNL d   1      21.687 -19.726   1.489  0.00  0.00     0.167 HD
ENDBRANCH   5  23
TORSDOF 5
ENDMDL
MODEL 2
REMARK VINA RESULT:   -27.590      2.698      3.654
REMARK INTER + INTRA:         -30.532
REMARK INTER:                 -29.081
REMARK INTRA:                  -1.451
REMARK CONF_INDEPENDENT:        1.492
REMARK UNBOUND:                -1.451
REMARK  5 active torsions:
REMARK  status: ('A' for Active; 'I' for Inactive)
REMARK    1  A    between atoms: C_7  and  C_8 
REMARK       I    between atoms: C_8  and  N_10 
REMARK    2  A    between atoms: N_10  and  C_11 
REMARK    3  A    between atoms: C_11  and  C_12 
REMARK       I    between atoms: C_12  and  N_14 
REMARK    4  A    between atoms: N_14  and  C_15 
REMARK    5  A    between atoms: C_19  and  C_20 
ROOT
ATOM      1  C   UNL d   1      24.463 -17.305  -1.180  0.00  0.00     0.035 A 
ATOM      2  C   UNL d   1      24.237 -16.012  -1.633  0.00  0.00     0.029 A 
ATOM      3  C   UNL d   1      22.922 -15.501  -1.645  0.00  0.00     0.003 A 
ATOM      4  C   UNL d   1      21.805 -16.279  -1.235  0.00  0.00     0.015 A 
ATOM      5  C   UNL d   1      21.996 -17.582  -0.784  0.00  0.00     0.012 A 
ATOM      6  C   UNL d   1      23.349 -18.050  -0.769  0.00  0.00     0.044 A 
ENDROOT
BRANCH   1   7
ATOM      7  N   UNL d   1      25.787 -17.826  -1.079  0.00  0.00    -0.326 N 
ATOM      8  C   UNL d   1      26.840 -17.133  -0.486  0.00  0.00     0.239 C 
ATOM      9  O   UNL d   1      26.713 -16.049   0.093  0.00  0.00    -0.271 OA
ATOM     10  H   UNL d   1      25.931 -18.796  -1.333  0.00  0.00     0.169 HD
BRANCH   8  11
ATOM     11  C   UNL d   1      28.229 -17.829  -0.518  0.00  0.00     0.226 C 
BRANCH  11  12
ATOM     12  N   UNL d   1      29.164 -16.982   0.219  0.00  0.00    -0.348 N 
ATOM     13  C   UNL d   1      30.488 -16.738  -0.106  0.00  0.00     0.252 C 
ATOM     14  O   UNL d   1      30.989 -17.251  -1.088  0.00  0.00    -0.268 OA
ATOM     15  H   UNL d   1      28.714 -16.576   1.013  0.00  0.00     0.163 HD
BRANCH  13  16
ATOM     16  C   UNL d   1      31.322 -15.811   0.787  0.00  0.00     0.037 A 
ATOM     17  C   UNL d   1      31.088 -14.422   0.644  0.00  0.00     0.017 A 
ATOM     18  C   UNL d   1      31.781 -13.467   1.408  0.00  0.00     0.001 A 
ATOM     19  C   UNL d   1      32.734 -13.875   2.329  0.00  0.00     0.001 A 
ATOM     20  C   UNL d   1      32.987 -15.233   2.488  0.00  0.00     0.007 A 
ATOM     21  C   UNL d   1      32.295 -16.207   1.735  0.00  0.00    -0.046 A 
ATOM     22  C   UNL d   1      32.655 -17.631   2.021  0.00  0.00     0.049 C 
ENDBRANCH  13  16
ENDBRANCH  11  12
ENDBRANCH   8  11
ENDBRANCH   1   7
BRANCH   5  23
ATOM     23  C   UNL d   1      20.999 -18.530  -0.193  0.00  0.00     0.139 C 
ATOM     24  N   UNL d   1      19.905 -18.729  -0.895  0.00  0.00    -0.228 NA
ATOM     25  C   UNL d   1      19.220 -19.727  -0.320  0.00  0.00     0.086 C 
ATOM     26  C   UNL d   1      18.190 -20.447  -0.911  0.00  0.00     0.034 C 
ATOM     27  C   UNL d   1      19.674 -20.008   0.956  0.00  0.00     0.062 C 
ATOM     28  C   UNL d   1      17.463 -21.349  -0.158  0.00  0.00     0.002 C 
ATOM     29  C   UNL d   1      17.757 -21.493   1.195  0.00  0.00     0.002 C 
ATOM     30  C   UNL d   1      18.870 -20.830   1.798  0.00  0.00     0.032 C 
ATOM     31  N   UNL d   1      20.950 -19.394   0.922  0.00  0.00    -0.338 N 
ATOM     32  H   UNL d   1      21.768 -19.738   1.407  0.00  0.00     0.167 HD
ENDBRANCH   5  23
TORSDOF 5
ENDMDL
MODEL 3
REMARK VINA RESULT:   -27.088      1.917      2.053
REMARK INTER + INTRA:         -30.409
REMARK INTER:                 -28.580
REMARK INTRA:                  -1.829
REMARK CONF_INDEPENDENT:        1.492
REMARK UNBOUND:                -1.829
REMARK  5 active torsions:
REMARK  status: ('A' for Active; 'I' for Inactive)
REMARK    1  A    between atoms: C_7  and  C_8 
REMARK       I    between atoms: C_8  and  N_10 
REMARK    2  A    between atoms: N_10  and  C_11 
REMARK    3  A    between atoms: C_11  and  C_12 
REMARK       I    between atoms: C_12  and  N_14 
REMARK    4  A    between atoms: N_14  and  C_15 
REMARK    5  A    between atoms: C_19  and  C_20 
ROOT
ATOM      1  C   UNL d   1      24.465 -17.389  -1.108  0.00  0.00     0.035 A 
ATOM      2  C   UNL d   1      24.261 -16.104  -1.593  0.00  0.00     0.029 A 
ATOM      3  C   UNL d   1      22.952 -15.581  -1.642  0.00  0.00     0.003 A 
ATOM      4  C   UNL d   1      21.819 -16.339  -1.238  0.00  0.00     0.015 A 
ATOM      5  C   UNL d   1      21.988 -17.633  -0.754  0.00  0.00     0.012 A 
ATOM      6  C   UNL d   1      23.336 -18.114  -0.703  0.00  0.00     0.044 A 
ENDROOT
BRANCH   1   7
ATOM      7  N   UNL d   1      25.782 -17.921  -0.970  0.00  0.00    -0.326 N 
ATOM      8  C   UNL d   1      26.350 -18.251   0.258  0.00  0.00     0.239 C 
ATOM      9  O   UNL d   1      25.742 -18.207   1.333  0.00  0.00    -0.271 OA
ATOM     10  H   UNL d   1      26.270 -18.192  -1.815  0.00  0.00     0.169 HD
BRANCH   8  11
ATOM     11  C   UNL d   1      27.817 -18.761   0.225  0.00  0.00     0.226 C 
BRANCH  11  12
ATOM     12  N   UNL d   1      28.683 -17.602   0.025  0.00  0.00    -0.348 N 
ATOM     13  C   UNL d   1      28.724 -16.787  -1.094  0.00  0.00     0.252 C 
ATOM     14  O   UNL d   1      27.996 -17.003  -2.045  0.00  0.00    -0.268 OA
ATOM     15  H   UNL d   1      29.260 -17.455   0.827  0.00  0.00     0.163 HD
BRANCH  13  16
ATOM     16  C   UNL d   1      29.700 -15.604  -1.127  0.00  0.00     0.037 A 
ATOM     17  C   UNL d   1      31.075 -15.926  -1.231  0.00  0.00     0.017 A 
ATOM     18  C   UNL d   1      32.070 -14.935  -1.278  0.00  0.00     0.001 A 
ATOM     19  C   UNL d   1      31.719 -13.595  -1.214  0.00  0.00     0.001 A 
ATOM     20  C   UNL d   1      30.376 -13.249  -1.108  0.00  0.00     0.007 A 
ATOM     21  C   UNL d   1      29.362 -14.231  -1.067  0.00  0.00    -0.046 A 
ATOM     22  C   UNL d   1      27.959 -13.717  -0.971  0.00  0.00     0.049 C 
ENDBRANCH  13  16
ENDBRANCH  11  12
ENDBRANCH   8  11
ENDBRANCH   1   7
BRANCH   5  23
ATOM     23  C   UNL d   1      20.970 -18.558  -0.163  0.00  0.00     0.139 C 
ATOM     24  N   UNL d   1      19.902 -18.785  -0.895  0.00  0.00    -0.228 NA
ATOM     25  C   UNL d   1      19.196 -19.761  -0.306  0.00  0.00     0.086 C 
ATOM     26  C   UNL d   1      18.188 -20.504  -0.905  0.00  0.00     0.034 C 
ATOM     27  C   UNL d   1      19.603 -19.990   0.995  0.00  0.00     0.062 C 
ATOM     28  C   UNL d   1      17.434 -21.377  -0.143  0.00  0.00     0.002 C 
ATOM     29  C   UNL d   1      17.678 -21.467   1.224  0.00  0.00     0.002 C 
ATOM     30  C   UNL d   1      18.769 -20.779   1.840  0.00  0.00     0.032 C 
ATOM     31  N   UNL d   1      20.880 -19.377   0.983  0.00  0.00    -0.338 N 
ATOM     32  H   UNL d   1      21.681 -19.701   1.510  0.00  0.00     0.167 HD
ENDBRANCH   5  23
TORSDOF 5
ENDMDL
