MODEL 1
REMARK VINA RESULT:    -7.760      0.000      0.000
REMARK INTER + INTRA:          -9.965
REMARK INTER:                  -9.252
REMARK INTRA:                  -0.713
REMARK CONF_INDEPENDENT:        1.492
REMARK UNBOUND:                -0.713
REMARK  5 active torsions:
REMARK  status: ('A' for Active; 'I' for Inactive)
REMARK    1  A    between atoms: C_2  and  C_3 
REMARK       I    between atoms: C_2  and  N_14 
REMARK    2  A    between atoms: C_3  and  C_4 
REMARK    3  A    between atoms: C_4  and  C_5 
REMARK    4  A    between atoms: N_14  and  N_15 
REMARK    5  A    between atoms: C_16  and  C_17 
ROOT
ATOM      1  O   UNL d   1      24.410 -14.200  -3.432  0.00  0.00    -0.272 OA
ATOM      2  C   UNL d   1      25.522 -14.645  -3.732  0.00  0.00     0.237 C 
ATOM      3  N   UNL d   1      25.777 -15.055  -5.024  0.00  0.00    -0.247 N 
ATOM      4  H   UNL d   1      25.014 -14.967  -5.687  0.00  0.00     0.192 HD
ENDROOT
BRANCH   2   5
ATOM      5  C   UNL d   1      26.663 -14.770  -2.741  0.00  0.00     0.109 C 
BRANCH   5   6
ATOM      6  C   UNL d   1      26.152 -14.831  -1.305  0.00  0.00     0.050 C 
BRANCH   6   7
ATOM      7  C   UNL d   1      25.863 -16.223  -0.832  0.00  0.00    -0.030 A 
ATOM      8  C   UNL d   1      26.769 -17.205  -0.479  0.00  0.00     0.096 A 
ATOM      9  N   UNL d   1      26.071 -18.335  -0.134  0.00  0.00    -0.365 N 
ATOM     10  C   UNL d   1      24.721 -18.131  -0.309  0.00  0.00     0.042 A 
ATOM     11  H   UNL d   1      26.487 -19.205   0.169  0.00  0.00     0.165 HD
ATOM     12  C   UNL d   1      23.636 -19.002  -0.147  0.00  0.00     0.030 A 
ATOM     13  C   UNL d   1      24.564 -16.809  -0.725  0.00  0.00    -0.002 A 
ATOM     14  C   UNL d   1      22.359 -18.507  -0.439  0.00  0.00     0.002 A 
ATOM     15  C   UNL d   1      22.173 -17.188  -0.843  0.00  0.00     0.001 A 
ATOM     16  C   UNL d   1      23.264 -16.329  -0.978  0.00  0.00     0.014 A 
ENDBRANCH   6   7
ENDBRANCH   5   6
ENDBRANCH   2   5
BRANCH   3  17
ATOM     17  N   UNL d   1      26.980 -15.573  -5.399  0.00  0.00    -0.184 NA
ATOM     18  C   UNL d   1      27.924 -14.722  -5.648  0.00  0.00     0.150 C 
BRANCH  18  19
ATOM     19  C   UNL d   1      29.260 -15.182  -6.090  0.00  0.00    -0.017 A 
ATOM     20  C   UNL d   1      30.051 -14.385  -6.925  0.00  0.00     0.013 A 
ATOM     21  C   UNL d   1      31.271 -14.880  -7.401  0.00  0.00     0.001 A 
ATOM     22  C   UNL d   1      31.717 -16.145  -7.010  0.00  0.00     0.000 A 
ATOM     23  C   UNL d   1      30.931 -16.929  -6.167  0.00  0.00     0.001 A 
ATOM     24  C   UNL d   1      29.703 -16.451  -5.708  0.00  0.00     0.013 A 
ENDBRANCH  18  19
ENDBRANCH   3  17
TORSDOF 5
ENDMDL
MODEL 2
REMARK VINA RESULT:    -7.248      1.818      7.511
REMARK INTER + INTRA:          -9.381
REMARK INTER:                  -8.740
REMARK INTRA:                  -0.641
REMARK CONF_INDEPENDENT:        1.492
REMARK UNBOUND:                -0.641
REMARK  5 active torsions:
REMARK  status: ('A' for Active; 'I' for Inactive)
REMARK    1  A    between atoms: C_2  and  C_3 
REMARK       I    between atoms: C_2  and  N_14 
REMARK    2  A    between atoms: C_3  and  C_4 
REMARK    3  A    between atoms: C_4  and  C_5 
REMARK    4  A    between atoms: N_14  and  N_15 
REMARK    5  A    between atoms: C_16  and  C_17 
ROOT
ATOM      1  O   UNL d   1      26.224 -12.069  -5.508  0.00  0.00    -0.272 OA
ATOM      2  C   UNL d   1      26.153 -13.106  -4.841  0.00  0.00     0.237 C 
ATOM      3  N   UNL d   1      24.930 -13.698  -4.611  0.00  0.00    -0.247 N 
ATOM      4  H   UNL d   1      24.121 -13.240  -5.016  0.00  0.00     0.192 HD
ENDROOT
BRANCH   2   5
ATOM      5  C   UNL d   1      27.365 -13.793  -4.241  0.00  0.00     0.109 C 
BRANCH   5   6
ATOM      6  C   UNL d   1      27.630 -15.139  -4.909  0.00  0.00     0.050 C 
BRANCH   6   7
ATOM      7  C   UNL d   1      28.750 -15.104  -5.904  0.00  0.00    -0.030 A 
ATOM      8  C   UNL d   1      28.982 -14.163  -6.890  0.00  0.00     0.096 A 
ATOM      9  N   UNL d   1      30.101 -14.536  -7.590  0.00  0.00    -0.365 N 
ATOM     10  C   UNL d   1      30.579 -15.737  -7.117  0.00  0.00     0.042 A 
ATOM     11  H   UNL d   1      30.498 -14.023  -8.365  0.00  0.00     0.165 HD
ATOM     12  C   UNL d   1      31.649 -16.530  -7.552  0.00  0.00     0.030 A 
ATOM     13  C   UNL d   1      29.763 -16.103  -6.048  0.00  0.00    -0.002 A 
ATOM     14  C   UNL d   1      31.873 -17.739  -6.881  0.00  0.00     0.002 A 
ATOM     15  C   UNL d   1      31.081 -18.121  -5.802  0.00  0.00     0.001 A 
ATOM     16  C   UNL d   1      30.033 -17.308  -5.370  0.00  0.00     0.014 A 
ENDBRANCH   6   7
ENDBRANCH   5   6
ENDBRANCH   2   5
BRANCH   3  17
ATOM     17  N   UNL d   1      24.797 -14.830  -3.863  0.00  0.00    -0.184 NA
ATOM     18  C   UNL d   1      24.891 -14.687  -2.579  0.00  0.00     0.150 C 
BRANCH  18  19
ATOM     19  C   UNL d   1      24.789 -15.858  -1.679  0.00  0.00    -0.017 A 
ATOM     20  C   UNL d   1      25.934 -16.556  -1.281  0.00  0.00     0.013 A 
ATOM     21  C   UNL d   1      25.804 -17.713  -0.504  0.00  0.00     0.001 A 
ATOM     22  C   UNL d   1      24.541 -18.143  -0.090  0.00  0.00     0.000 A 
ATOM     23  C   UNL d   1      23.404 -17.435  -0.477  0.00  0.00     0.001 A 
ATOM     24  C   UNL d   1      23.526 -16.295  -1.272  0.00  0.00     0.013 A 
ENDBRANCH  18  19
ENDBRANCH   3  17
TORSDOF 5
ENDMDL
MODEL 3
REMARK VINA RESULT:    -7.160      5.787      8.335
REMARK INTER + INTRA:          -9.439
REMARK INTER:                  -8.651
REMARK INTRA:                  -0.787
REMARK CONF_INDEPENDENT:        1.492
REMARK UNBOUND:                -0.787
REMARK  5 active torsions:
REMARK  status: ('A' for Active; 'I' for Inactive)
REMARK    1  A    between atoms: C_2  and  C_3 
REMARK       I    between atoms: C_2  and  N_14 
REMARK    2  A    between atoms: C_3  and  C_4 
REMARK    3  A    between atoms: C_4  and  C_5 
REMARK    4  A    between atoms: N_14  and  N_15 
REMARK    5  A    between atoms: C_16  and  C_17 
ROOT
ATOM      1  O   UNL d   1      30.240 -13.805   2.305  0.00  0.00    -0.272 OA
ATOM      2  C   UNL d   1      29.087 -13.979   1.897  0.00  0.00     0.237 C 
ATOM      3  N   UNL d   1      28.715 -15.200   1.377  0.00  0.00    -0.247 N 
ATOM      4  H   UNL d   1      29.429 -15.921   1.355  0.00  0.00     0.192 HD
ENDROOT
BRANCH   2   5
ATOM      5  C   UNL d   1      28.019 -12.903   1.936  0.00  0.00     0.109 C 
BRANCH   5   6
ATOM      6  C   UNL d   1      27.031 -13.137   3.074  0.00  0.00     0.050 C 
BRANCH   6   7
ATOM      7  C   UNL d   1      27.664 -13.703   4.309  0.00  0.00    -0.030 A 
ATOM      8  C   UNL d   1      27.888 -15.032   4.617  0.00  0.00     0.096 A 
ATOM      9  N   UNL d   1      28.463 -15.097   5.860  0.00  0.00    -0.365 N 
ATOM     10  C   UNL d   1      28.570 -13.836   6.402  0.00  0.00     0.042 A 
ATOM     11  H   UNL d   1      28.736 -15.950   6.330  0.00  0.00     0.165 HD
ATOM     12  C   UNL d   1      29.032 -13.416   7.656  0.00  0.00     0.030 A 
ATOM     13  C   UNL d   1      28.096 -12.944   5.441  0.00  0.00    -0.002 A 
ATOM     14  C   UNL d   1      28.986 -12.044   7.935  0.00  0.00     0.002 A 
ATOM     15  C   UNL d   1      28.530 -11.131   6.989  0.00  0.00     0.001 A 
ATOM     16  C   UNL d   1      28.094 -11.567   5.738  0.00  0.00     0.014 A 
ENDBRANCH   6   7
ENDBRANCH   5   6
ENDBRANCH   2   5
BRANCH   3  17
ATOM     17  N   UNL d   1      27.463 -15.435   0.893  0.00  0.00    -0.184 NA
ATOM     18  C   UNL d   1      27.199 -16.654   0.540  0.00  0.00     0.150 C 
BRANCH  18  19
ATOM     19  C   UNL d   1      25.876 -17.008  -0.024  0.00  0.00    -0.017 A 
ATOM     20  C   UNL d   1      25.174 -16.100  -0.823  0.00  0.00     0.013 A 
ATOM     21  C   UNL d   1      23.887 -16.424  -1.270  0.00  0.00     0.001 A 
ATOM     22  C   UNL d   1      23.325 -17.663  -0.956  0.00  0.00     0.000 A 
ATOM     23  C   UNL d   1      24.035 -18.569  -0.170  0.00  0.00     0.001 A 
ATOM     24  C   UNL d   1      25.309 -18.243   0.298  0.00  0.00     0.013 A 
ENDBRANCH  18  19
ENDBRANCH   3  17
TORSDOF 5
ENDMDL
MODEL 4
REMARK VINA RESULT:    -7.070      1.890      6.866
REMARK INTER + INTRA:          -9.583
REMARK INTER:                  -8.562
REMARK INTRA:                  -1.021
REMARK CONF_INDEPENDENT:        1.492
REMARK UNBOUND:                -1.021
REMARK  5 active torsions:
REMARK  status: ('A' for Active; 'I' for Inactive)
REMARK    1  A    between atoms: C_2  and  C_3 
REMARK       I    between atoms: C_2  and  N_14 
REMARK    2  A    between atoms: C_3  and  C_4 
REMARK    3  A    between atoms: C_4  and  C_5 
REMARK    4  A    between atoms: N_14  and  N_15 
REMARK    5  A    between atoms: C_16  and  C_17 
ROOT
ATOM      1  O   UNL d   1      25.531 -11.602  -5.094  0.00  0.00    -0.272 OA
ATOM      2  C   UNL d   1      25.769 -12.639  -4.466  0.00  0.00     0.237 C 
ATOM      3  N   UNL d   1      24.885 -13.696  -4.518  0.00  0.00    -0.247 N 
ATOM      4  H   UNL d   1      24.057 -13.567  -5.089  0.00  0.00     0.192 HD
ENDROOT
BRANCH   2   5
ATOM      5  C   UNL d   1      27.011 -12.832  -3.619  0.00  0.00     0.109 C 
BRANCH   5   6
ATOM      6  C   UNL d   1      28.271 -12.417  -4.372  0.00  0.00     0.050 C 
BRANCH   6   7
ATOM      7  C   UNL d   1      28.733 -13.434  -5.371  0.00  0.00    -0.030 A 
ATOM      8  C   UNL d   1      28.662 -13.364  -6.750  0.00  0.00     0.096 A 
ATOM      9  N   UNL d   1      29.173 -14.526  -7.269  0.00  0.00    -0.365 N 
ATOM     10  C   UNL d   1      29.528 -15.385  -6.255  0.00  0.00     0.042 A 
ATOM     11  H   UNL d   1      29.245 -14.738  -8.255  0.00  0.00     0.165 HD
ATOM     12  C   UNL d   1      30.030 -16.692  -6.297  0.00  0.00     0.030 A 
ATOM     13  C   UNL d   1      29.282 -14.716  -5.056  0.00  0.00    -0.002 A 
ATOM     14  C   UNL d   1      30.267 -17.334  -5.075  0.00  0.00     0.002 A 
ATOM     15  C   UNL d   1      30.043 -16.684  -3.865  0.00  0.00     0.001 A 
ATOM     16  C   UNL d   1      29.562 -15.374  -3.843  0.00  0.00     0.014 A 
ENDBRANCH   6   7
ENDBRANCH   5   6
ENDBRANCH   2   5
BRANCH   3  17
ATOM     17  N   UNL d   1      25.091 -14.852  -3.826  0.00  0.00    -0.184 NA
ATOM     18  C   UNL d   1      24.780 -14.836  -2.568  0.00  0.00     0.150 C 
BRANCH  18  19
ATOM     19  C   UNL d   1      24.991 -16.031  -1.722  0.00  0.00    -0.017 A 
ATOM     20  C   UNL d   1      23.904 -16.786  -1.266  0.00  0.00     0.013 A 
ATOM     21  C   UNL d   1      24.124 -17.858  -0.394  0.00  0.00     0.001 A 
ATOM     22  C   UNL d   1      25.424 -18.200  -0.015  0.00  0.00     0.000 A 
ATOM     23  C   UNL d   1      26.504 -17.454  -0.483  0.00  0.00     0.001 A 
ATOM     24  C   UNL d   1      26.290 -16.369  -1.334  0.00  0.00     0.013 A 
ENDBRANCH  18  19
ENDBRANCH   3  17
TORSDOF 5
ENDMDL
MODEL 5
REMARK VINA RESULT:    -7.005      3.117      4.781
REMARK INTER + INTRA:          -9.318
REMARK INTER:                  -8.497
REMARK INTRA:                  -0.821
REMARK CONF_INDEPENDENT:        1.492
REMARK UNBOUND:                -0.821
REMARK  5 active torsions:
REMARK  status: ('A' for Active; 'I' for Inactive)
REMARK    1  A    between atoms: C_2  and  C_3 
REMARK       I    between atoms: C_2  and  N_14 
REMARK    2  A    between atoms: C_3  and  C_4 
REMARK    3  A    between atoms: C_4  and  C_5 
REMARK    4  A    between atoms: N_14  and  N_15 
REMARK    5  A    between atoms: C_16  and  C_17 
ROOT
ATOM      1  O   UNL d   1      25.530 -15.950  -4.846  0.00  0.00    -0.272 OA
ATOM      2  C   UNL d   1      25.682 -14.931  -4.166  0.00  0.00     0.237 C 
ATOM      3  N   UNL d   1      24.830 -13.859  -4.328  0.00  0.00    -0.247 N 
ATOM      4  H   UNL d   1      24.096 -13.964  -5.020  0.00  0.00     0.192 HD
ENDROOT
BRANCH   2   5
ATOM      5  C   UNL d   1      26.777 -14.779  -3.128  0.00  0.00     0.109 C 
BRANCH   5   6
ATOM      6  C   UNL d   1      26.206 -14.757  -1.713  0.00  0.00     0.050 C 
BRANCH   6   7
ATOM      7  C   UNL d   1      25.994 -16.122  -1.132  0.00  0.00    -0.030 A 
ATOM      8  C   UNL d   1      26.952 -17.046  -0.762  0.00  0.00     0.096 A 
ATOM      9  N   UNL d   1      26.315 -18.172  -0.306  0.00  0.00    -0.365 N 
ATOM     10  C   UNL d   1      24.951 -18.026  -0.423  0.00  0.00     0.042 A 
ATOM     11  H   UNL d   1      26.778 -19.004   0.033  0.00  0.00     0.165 HD
ATOM     12  C   UNL d   1      23.910 -18.921  -0.145  0.00  0.00     0.030 A 
ATOM     13  C   UNL d   1      24.724 -16.743  -0.918  0.00  0.00    -0.002 A 
ATOM     14  C   UNL d   1      22.602 -18.490  -0.403  0.00  0.00     0.002 A 
ATOM     15  C   UNL d   1      22.346 -17.210  -0.884  0.00  0.00     0.001 A 
ATOM     16  C   UNL d   1      23.396 -16.326  -1.135  0.00  0.00     0.014 A 
ENDBRANCH   6   7
ENDBRANCH   5   6
ENDBRANCH   2   5
BRANCH   3  17
ATOM     17  N   UNL d   1      24.969 -12.704  -3.618  0.00  0.00    -0.184 NA
ATOM     18  C   UNL d   1      25.627 -11.748  -4.193  0.00  0.00     0.150 C 
BRANCH  18  19
ATOM     19  C   UNL d   1      25.858 -10.463  -3.495  0.00  0.00    -0.017 A 
ATOM     20  C   UNL d   1      25.266  -9.282  -3.956  0.00  0.00     0.013 A 
ATOM     21  C   UNL d   1      25.572  -8.066  -3.334  0.00  0.00     0.001 A 
ATOM     22  C   UNL d   1      26.429  -8.037  -2.231  0.00  0.00     0.000 A 
ATOM     23  C   UNL d   1      27.006  -9.218  -1.768  0.00  0.00     0.001 A 
ATOM     24  C   UNL d   1      26.724 -10.430  -2.399  0.00  0.00     0.013 A 
ENDBRANCH  18  19
ENDBRANCH   3  17
TORSDOF 5
ENDMDL
MODEL 6
REMARK VINA RESULT:    -6.842      4.688      7.649
REMARK INTER + INTRA:          -9.141
REMARK INTER:                  -8.334
REMARK INTRA:                  -0.807
REMARK CONF_INDEPENDENT:        1.492
REMARK UNBOUND:                -0.807
REMARK  5 active torsions:
REMARK  status: ('A' for Active; 'I' for Inactive)
REMARK    1  A    between atoms: C_2  and  C_3 
REMARK       I    between atoms: C_2  and  N_14 
REMARK    2  A    between atoms: C_3  and  C_4 
REMARK    3  A    between atoms: C_4  and  C_5 
REMARK    4  A    between atoms: N_14  and  N_15 
REMARK    5  A    between atoms: C_16  and  C_17 
ROOT
ATOM      1  O   UNL d   1      31.340 -16.664   0.137  0.00  0.00    -0.272 OA
ATOM      2  C   UNL d   1      30.171 -16.389  -0.146  0.00  0.00     0.237 C 
ATOM      3  N   UNL d   1      29.218 -17.385  -0.196  0.00  0.00    -0.247 N 
ATOM      4  H   UNL d   1      29.535 -18.326   0.010  0.00  0.00     0.192 HD
ENDROOT
BRANCH   2   5
ATOM      5  C   UNL d   1      29.697 -14.980  -0.449  0.00  0.00     0.109 C 
BRANCH   5   6
ATOM      6  C   UNL d   1      28.834 -14.426   0.681  0.00  0.00     0.050 C 
BRANCH   6   7
ATOM      7  C   UNL d   1      29.565 -14.295   1.983  0.00  0.00    -0.030 A 
ATOM      8  C   UNL d   1      30.929 -14.329   2.199  0.00  0.00     0.096 A 
ATOM      9  N   UNL d   1      31.158 -14.200   3.545  0.00  0.00    -0.365 N 
ATOM     10  C   UNL d   1      29.964 -14.138   4.226  0.00  0.00     0.042 A 
ATOM     11  H   UNL d   1      32.071 -14.189   3.980  0.00  0.00     0.165 HD
ATOM     12  C   UNL d   1      29.699 -14.066   5.600  0.00  0.00     0.030 A 
ATOM     13  C   UNL d   1      28.952 -14.174   3.269  0.00  0.00    -0.002 A 
ATOM     14  C   UNL d   1      28.356 -14.051   5.999  0.00  0.00     0.002 A 
ATOM     15  C   UNL d   1      27.326 -14.073   5.063  0.00  0.00     0.001 A 
ATOM     16  C   UNL d   1      27.611 -14.123   3.698  0.00  0.00     0.014 A 
ENDBRANCH   6   7
ENDBRANCH   5   6
ENDBRANCH   2   5
BRANCH   3  17
ATOM     17  N   UNL d   1      27.920 -17.136  -0.526  0.00  0.00    -0.184 NA
ATOM     18  C   UNL d   1      27.019 -17.793   0.134  0.00  0.00     0.150 C 
BRANCH  18  19
ATOM     19  C   UNL d   1      25.581 -17.615  -0.167  0.00  0.00    -0.017 A 
ATOM     20  C   UNL d   1      24.643 -18.575   0.230  0.00  0.00     0.013 A 
ATOM     21  C   UNL d   1      23.303 -18.428  -0.145  0.00  0.00     0.001 A 
ATOM     22  C   UNL d   1      22.895 -17.308  -0.873  0.00  0.00     0.000 A 
ATOM     23  C   UNL d   1      23.831 -16.348  -1.254  0.00  0.00     0.001 A 
ATOM     24  C   UNL d   1      25.173 -16.501  -0.904  0.00  0.00     0.013 A 
ENDBRANCH  18  19
ENDBRANCH   3  17
TORSDOF 5
ENDMDL
MODEL 7
REMARK VINA RESULT:    -6.478      2.538      5.989
REMARK INTER + INTRA:          -9.509
REMARK INTER:                  -7.969
REMARK INTRA:                  -1.540
REMARK CONF_INDEPENDENT:        1.492
REMARK UNBOUND:                -1.540
REMARK  5 active torsions:
REMARK  status: ('A' for Active; 'I' for Inactive)
REMARK    1  A    between atoms: C_2  and  C_3 
REMARK       I    between atoms: C_2  and  N_14 
REMARK    2  A    between atoms: C_3  and  C_4 
REMARK    3  A    between atoms: C_4  and  C_5 
REMARK    4  A    between atoms: N_14  and  N_15 
REMARK    5  A    between atoms: C_16  and  C_17 
ROOT
ATOM      1  O   UNL d   1      26.770 -12.843  -4.835  0.00  0.00    -0.272 OA
ATOM      2  C   UNL d   1      26.253 -13.833  -4.307  0.00  0.00     0.237 C 
ATOM      3  N   UNL d   1      25.003 -13.735  -3.731  0.00  0.00    -0.247 N 
ATOM      4  H   UNL d   1      24.555 -12.826  -3.772  0.00  0.00     0.192 HD
ENDROOT
BRANCH   2   5
ATOM      5  C   UNL d   1      26.921 -15.193  -4.253  0.00  0.00     0.109 C 
BRANCH   5   6
ATOM      6  C   UNL d   1      28.322 -15.103  -3.656  0.00  0.00     0.050 C 
BRANCH   6   7
ATOM      7  C   UNL d   1      28.401 -15.583  -2.238  0.00  0.00    -0.030 A 
ATOM      8  C   UNL d   1      28.834 -16.813  -1.781  0.00  0.00     0.096 A 
ATOM      9  N   UNL d   1      28.709 -16.835  -0.415  0.00  0.00    -0.365 N 
ATOM     10  C   UNL d   1      28.148 -15.660   0.031  0.00  0.00     0.042 A 
ATOM     11  H   UNL d   1      28.959 -17.615   0.178  0.00  0.00     0.165 HD
ATOM     12  C   UNL d   1      27.779 -15.255   1.320  0.00  0.00     0.030 A 
ATOM     13  C   UNL d   1      27.965 -14.851  -1.090  0.00  0.00    -0.002 A 
ATOM     14  C   UNL d   1      27.188 -13.992   1.456  0.00  0.00     0.002 A 
ATOM     15  C   UNL d   1      27.006 -13.159   0.356  0.00  0.00     0.001 A 
ATOM     16  C   UNL d   1      27.400 -13.572  -0.918  0.00  0.00     0.014 A 
ENDBRANCH   6   7
ENDBRANCH   5   6
ENDBRANCH   2   5
BRANCH   3  17
ATOM     17  N   UNL d   1      24.400 -14.791  -3.117  0.00  0.00    -0.184 NA
ATOM     18  C   UNL d   1      24.931 -15.195  -2.006  0.00  0.00     0.150 C 
BRANCH  18  19
ATOM     19  C   UNL d   1      24.368 -16.352  -1.275  0.00  0.00    -0.017 A 
ATOM     20  C   UNL d   1      23.018 -16.379  -0.911  0.00  0.00     0.013 A 
ATOM     21  C   UNL d   1      22.530 -17.442  -0.141  0.00  0.00     0.001 A 
ATOM     22  C   UNL d   1      23.376 -18.492   0.222  0.00  0.00     0.000 A 
ATOM     23  C   UNL d   1      24.718 -18.467  -0.155  0.00  0.00     0.001 A 
ATOM     24  C   UNL d   1      25.215 -17.398  -0.902  0.00  0.00     0.013 A 
ENDBRANCH  18  19
ENDBRANCH   3  17
TORSDOF 5
ENDMDL
MODEL 8
REMARK VINA RESULT:    -6.334      2.200      6.120
REMARK INTER + INTRA:          -9.144
REMARK INTER:                  -7.826
REMARK INTRA:                  -1.318
REMARK CONF_INDEPENDENT:        1.492
REMARK UNBOUND:                -1.318
REMARK  5 active torsions:
REMARK  status: ('A' for Active; 'I' for Inactive)
REMARK    1  A    between atoms: C_2  and  C_3 
REMARK       I    between atoms: C_2  and  N_14 
REMARK    2  A    between atoms: C_3  and  C_4 
REMARK    3  A    between atoms: C_4  and  C_5 
REMARK    4  A    between atoms: N_14  and  N_15 
REMARK    5  A    between atoms: C_16  and  C_17 
ROOT
ATOM      1  O   UNL d   1      26.522 -12.551  -5.560  0.00  0.00    -0.272 OA
ATOM      2  C   UNL d   1      26.101 -13.561  -4.989  0.00  0.00     0.237 C 
ATOM      3  N   UNL d   1      24.980 -13.486  -4.188  0.00  0.00    -0.247 N 
ATOM      4  H   UNL d   1      24.542 -12.575  -4.106  0.00  0.00     0.192 HD
ENDROOT
BRANCH   2   5
ATOM      5  C   UNL d   1      26.754 -14.924  -5.117  0.00  0.00     0.109 C 
BRANCH   5   6
ATOM      6  C   UNL d   1      28.275 -14.815  -5.128  0.00  0.00     0.050 C 
BRANCH   6   7
ATOM      7  C   UNL d   1      28.955 -15.844  -4.277  0.00  0.00    -0.030 A 
ATOM      8  C   UNL d   1      29.677 -16.947  -4.691  0.00  0.00     0.096 A 
ATOM      9  N   UNL d   1      30.096 -17.633  -3.579  0.00  0.00    -0.365 N 
ATOM     10  C   UNL d   1      29.614 -17.031  -2.440  0.00  0.00     0.042 A 
ATOM     11  H   UNL d   1      30.649 -18.479  -3.593  0.00  0.00     0.165 HD
ATOM     12  C   UNL d   1      29.728 -17.399  -1.093  0.00  0.00     0.030 A 
ATOM     13  C   UNL d   1      28.914 -15.896  -2.849  0.00  0.00    -0.002 A 
ATOM     14  C   UNL d   1      29.088 -16.591  -0.145  0.00  0.00     0.002 A 
ATOM     15  C   UNL d   1      28.394 -15.446  -0.525  0.00  0.00     0.001 A 
ATOM     16  C   UNL d   1      28.310 -15.083  -1.870  0.00  0.00     0.014 A 
ENDBRANCH   6   7
ENDBRANCH   5   6
ENDBRANCH   2   5
BRANCH   3  17
ATOM     17  N   UNL d   1      24.490 -14.567  -3.519  0.00  0.00    -0.184 NA
ATOM     18  C   UNL d   1      25.114 -14.908  -2.436  0.00  0.00     0.150 C 
BRANCH  18  19
ATOM     19  C   UNL d   1      24.678 -16.085  -1.651  0.00  0.00    -0.017 A 
ATOM     20  C   UNL d   1      23.340 -16.234  -1.270  0.00  0.00     0.013 A 
ATOM     21  C   UNL d   1      22.969 -17.307  -0.451  0.00  0.00     0.001 A 
ATOM     22  C   UNL d   1      23.921 -18.249  -0.053  0.00  0.00     0.000 A 
ATOM     23  C   UNL d   1      25.250 -18.103  -0.447  0.00  0.00     0.001 A 
ATOM     24  C   UNL d   1      25.630 -17.022  -1.243  0.00  0.00     0.013 A 
ENDBRANCH  18  19
ENDBRANCH   3  17
TORSDOF 5
ENDMDL
MODEL 9
REMARK VINA RESULT:    -6.077      3.082      5.788
REMARK INTER + INTRA:          -9.185
REMARK INTER:                  -7.568
REMARK INTRA:                  -1.617
REMARK CONF_INDEPENDENT:        1.492
REMARK UNBOUND:                -1.617
REMARK  5 active torsions:
REMARK  status: ('A' for Active; 'I' for Inactive)
REMARK    1  A    between atoms: C_2  and  C_3 
REMARK       I    between atoms: C_2  and  N_14 
REMARK    2  A    between atoms: C_3  and  C_4 
REMARK    3  A    between atoms: C_4  and  C_5 
REMARK    4  A    between atoms: N_14  and  N_15 
REMARK    5  A    between atoms: C_16  and  C_17 
ROOT
ATOM      1  O   UNL d   1      25.835 -11.730  -5.177  0.00  0.00    -0.272 OA
ATOM      2  C   UNL d   1      25.880 -12.794  -4.552  0.00  0.00     0.237 C 
ATOM      3  N   UNL d   1      24.794 -13.645  -4.557  0.00  0.00    -0.247 N 
ATOM      4  H   UNL d   1      23.986 -13.345  -5.092  0.00  0.00     0.192 HD
ENDROOT
BRANCH   2   5
ATOM      5  C   UNL d   1      27.091 -13.243  -3.758  0.00  0.00     0.109 C 
BRANCH   5   6
ATOM      6  C   UNL d   1      27.224 -12.463  -2.454  0.00  0.00     0.050 C 
BRANCH   6   7
ATOM      7  C   UNL d   1      27.227 -13.333  -1.233  0.00  0.00    -0.030 A 
ATOM      8  C   UNL d   1      26.735 -13.035   0.024  0.00  0.00     0.096 A 
ATOM      9  N   UNL d   1      26.973 -14.106   0.846  0.00  0.00    -0.365 N 
ATOM     10  C   UNL d   1      27.664 -15.083   0.167  0.00  0.00     0.042 A 
ATOM     11  H   UNL d   1      26.712 -14.158   1.822  0.00  0.00     0.165 HD
ATOM     12  C   UNL d   1      28.174 -16.313   0.603  0.00  0.00     0.030 A 
ATOM     13  C   UNL d   1      27.817 -14.631  -1.143  0.00  0.00    -0.002 A 
ATOM     14  C   UNL d   1      28.876 -17.089  -0.328  0.00  0.00     0.002 A 
ATOM     15  C   UNL d   1      29.031 -16.668  -1.646  0.00  0.00     0.001 A 
ATOM     16  C   UNL d   1      28.498 -15.449  -2.066  0.00  0.00     0.014 A 
ENDBRANCH   6   7
ENDBRANCH   5   6
ENDBRANCH   2   5
BRANCH   3  17
ATOM     17  N   UNL d   1      24.785 -14.819  -3.865  0.00  0.00    -0.184 NA
ATOM     18  C   UNL d   1      24.410 -14.757  -2.627  0.00  0.00     0.150 C 
BRANCH  18  19
ATOM     19  C   UNL d   1      24.392 -15.972  -1.781  0.00  0.00    -0.017 A 
ATOM     20  C   UNL d   1      23.250 -16.318  -1.051  0.00  0.00     0.013 A 
ATOM     21  C   UNL d   1      23.288 -17.421  -0.189  0.00  0.00     0.001 A 
ATOM     22  C   UNL d   1      24.445 -18.197  -0.091  0.00  0.00     0.000 A 
ATOM     23  C   UNL d   1      25.576 -17.855  -0.831  0.00  0.00     0.001 A 
ATOM     24  C   UNL d   1      25.552 -16.744  -1.674  0.00  0.00     0.013 A 
ENDBRANCH  18  19
ENDBRANCH   3  17
TORSDOF 5
ENDMDL
