MODEL 1
REMARK VINA RESULT:   -10.555      0.000      0.000
REMARK INTER + INTRA:         -16.602
REMARK INTER:                 -15.030
REMARK INTRA:                  -1.573
REMARK CONF_INDEPENDENT:        4.474
REMARK UNBOUND:                -1.573
REMARK  15 active torsions:
REMARK  status: ('A' for Active; 'I' for Inactive)
REMARK    1  A    between atoms: C_2  and  C_3 
REMARK    2  A    between atoms: C_3  and  C_4 
REMARK    3  A    between atoms: C_4  and  O_5 
REMARK    4  A    between atoms: O_5  and  C_6 
REMARK    5  A    between atoms: C_9  and  C_10 
REMARK       I    between atoms: C_10  and  N_12 
REMARK    6  A    between atoms: N_12  and  N_13 
REMARK    7  A    between atoms: C_14  and  C_15 
REMARK    8  A    between atoms: C_18  and  O_19 
REMARK    9  A    between atoms: O_19  and  C_20 
REMARK   10  A    between atoms: C_20  and  C_22 
REMARK   11  A    between atoms: C_25  and  O_26 
REMARK   12  A    between atoms: O_26  and  C_27 
REMARK   13  A    between atoms: C_27  and  C_28 
REMARK   14  A    between atoms: C_28  and  C_29 
REMARK   15  A    between atoms: C_33  and  O_34 
ROOT
ATOM      1  C   UNL d   1      25.835 -13.673  -3.345  0.00  0.00    -0.014 A 
ATOM      2  C   UNL d   1      25.828 -15.037  -3.662  0.00  0.00     0.016 A 
ATOM      3  C   UNL d   1      26.168 -15.996  -2.676  0.00  0.00     0.041 A 
ATOM      4  C   UNL d   1      26.527 -15.579  -1.381  0.00  0.00     0.112 A 
ATOM      5  C   UNL d   1      26.459 -14.212  -1.071  0.00  0.00     0.102 A 
ATOM      6  C   UNL d   1      26.168 -13.272  -2.057  0.00  0.00     0.052 A 
ENDROOT
BRANCH   1   7
ATOM      7  C   UNL d   1      25.385 -12.607  -4.279  0.00  0.00     0.150 C 
ATOM      8  N   UNL d   1      25.625 -11.358  -4.016  0.00  0.00    -0.183 NA
BRANCH   8   9
ATOM      9  N   UNL d   1      25.155 -10.406  -4.891  0.00  0.00    -0.243 N 
ATOM     10  C   UNL d   1      25.043  -9.076  -4.460  0.00  0.00     0.271 C 
ATOM     11  O   UNL d   1      25.349  -8.699  -3.330  0.00  0.00    -0.266 OA
ATOM     12  H   UNL d   1      24.882 -10.702  -5.817  0.00  0.00     0.192 HD
BRANCH  10  13
ATOM     13  C   UNL d   1      24.487  -8.054  -5.425  0.00  0.00     0.033 A 
ATOM     14  C   UNL d   1      23.201  -7.528  -5.192  0.00  0.00     0.020 A 
ATOM     15  C   UNL d   1      22.584  -6.674  -6.123  0.00  0.00     0.038 A 
ATOM     16  C   UNL d   1      23.264  -6.271  -7.271  0.00  0.00     0.068 A 
ATOM     17  C   UNL d   1      24.560  -6.740  -7.480  0.00  0.00     0.038 A 
ATOM     18  C   UNL d   1      25.166  -7.626  -6.570  0.00  0.00     0.020 A 
BRANCH  16  19
ATOM     19  O   UNL d   1      22.637  -5.346  -8.064  0.00  0.00    -0.351 OA
BRANCH  19  20
ATOM     20  C   UNL d   1      21.611  -5.854  -8.924  0.00  0.00     0.175 C 
BRANCH  20  21
ATOM     21  C   UNL d   1      20.287  -5.878  -8.160  0.00  0.00     0.026 C 
BRANCH  21  22
ATOM     22  C   UNL d   1      19.344  -6.939  -8.722  0.00  0.00    -0.002 C 
ATOM     23  C   UNL d   1      18.405  -7.468  -7.651  0.00  0.00     0.005 C 
ENDBRANCH  21  22
ENDBRANCH  20  21
ENDBRANCH  19  20
ENDBRANCH  16  19
ENDBRANCH  10  13
ENDBRANCH   8   9
ENDBRANCH   1   7
BRANCH   5  24
ATOM     24  O   UNL d   1      26.530 -13.857   0.230  0.00  0.00    -0.353 OA
ATOM     25  C   UNL d   1      27.684 -14.136   0.994  0.00  0.00     0.210 C 
ENDBRANCH   5  24
BRANCH   4  26
ATOM     26  O   UNL d   1      26.932 -16.595  -0.429  0.00  0.00    -0.272 OA
BRANCH  26  27
ATOM     27  C   UNL d   1      26.082 -17.521   0.191  0.00  0.00     0.298 C 
ATOM     28  O   UNL d   1      26.292 -18.289   1.130  0.00  0.00    -0.259 OA
BRANCH  27  29
ATOM     29  C   UNL d   1      24.751 -17.681  -0.387  0.00  0.00     0.040 A 
ATOM     30  C   UNL d   1      23.920 -16.544  -0.383  0.00  0.00     0.020 A 
ATOM     31  C   UNL d   1      22.541 -16.680  -0.518  0.00  0.00     0.038 A 
ATOM     32  C   UNL d   1      21.990 -17.944  -0.730  0.00  0.00     0.068 A 
ATOM     33  C   UNL d   1      22.820 -19.073  -0.703  0.00  0.00     0.038 A 
ATOM     34  C   UNL d   1      24.200 -18.950  -0.520  0.00  0.00     0.020 A 
BRANCH  32  35
ATOM     35  O   UNL d   1      20.638 -17.961  -0.958  0.00  0.00    -0.351 OA
BRANCH  35  36
ATOM     36  C   UNL d   1      20.017 -19.242  -0.845  0.00  0.00     0.175 C 
BRANCH  36  37
ATOM     37  C   UNL d   1      20.151 -19.746   0.586  0.00  0.00     0.026 C 
BRANCH  37  38
ATOM     38  C   UNL d   1      18.781 -20.072   1.177  0.00  0.00    -0.002 C 
ATOM     39  C   UNL d   1      18.030 -21.058   0.300  0.00  0.00     0.005 C 
ENDBRANCH  37  38
ENDBRANCH  36  37
ENDBRANCH  35  36
ENDBRANCH  32  35
ENDBRANCH  27  29
ENDBRANCH  26  27
ENDBRANCH   4  26
TORSDOF 15
ENDMDL
MODEL 2
REMARK VINA RESULT:    -8.912      6.195     11.936
REMARK INTER + INTRA:         -15.312
REMARK INTER:                 -13.386
REMARK INTRA:                  -1.926
REMARK CONF_INDEPENDENT:        4.474
REMARK UNBOUND:                -1.926
REMARK  15 active torsions:
REMARK  status: ('A' for Active; 'I' for Inactive)
REMARK    1  A    between atoms: C_2  and  C_3 
REMARK    2  A    between atoms: C_3  and  C_4 
REMARK    3  A    between atoms: C_4  and  O_5 
REMARK    4  A    between atoms: O_5  and  C_6 
REMARK    5  A    between atoms: C_9  and  C_10 
REMARK       I    between atoms: C_10  and  N_12 
REMARK    6  A    between atoms: N_12  and  N_13 
REMARK    7  A    between atoms: C_14  and  C_15 
REMARK    8  A    between atoms: C_18  and  O_19 
REMARK    9  A    between atoms: O_19  and  C_20 
REMARK   10  A    between atoms: C_20  and  C_22 
REMARK   11  A    between atoms: C_25  and  O_26 
REMARK   12  A    between atoms: O_26  and  C_27 
REMARK   13  A    between atoms: C_27  and  C_28 
REMARK   14  A    between atoms: C_28  and  C_29 
REMARK   15  A    between atoms: C_33  and  O_34 
ROOT
ATOM      1  C   UNL d   1      27.965 -14.361   1.709  0.00  0.00    -0.014 A 
ATOM      2  C   UNL d   1      27.371 -13.272   1.058  0.00  0.00     0.016 A 
ATOM      3  C   UNL d   1      26.728 -13.457  -0.191  0.00  0.00     0.041 A 
ATOM      4  C   UNL d   1      26.697 -14.732  -0.786  0.00  0.00     0.112 A 
ATOM      5  C   UNL d   1      27.239 -15.818  -0.081  0.00  0.00     0.102 A 
ATOM      6  C   UNL d   1      27.909 -15.620   1.125  0.00  0.00     0.052 A 
ENDROOT
BRANCH   1   7
ATOM      7  C   UNL d   1      28.561 -14.283   3.070  0.00  0.00     0.150 C 
ATOM      8  N   UNL d   1      27.947 -14.807   4.086  0.00  0.00    -0.183 NA
BRANCH   8   9
ATOM      9  N   UNL d   1      28.519 -14.676   5.331  0.00  0.00    -0.243 N 
ATOM     10  C   UNL d   1      28.253 -13.527   6.090  0.00  0.00     0.271 C 
ATOM     11  O   UNL d   1      27.522 -12.614   5.708  0.00  0.00    -0.266 OA
ATOM     12  H   UNL d   1      29.136 -15.408   5.651  0.00  0.00     0.192 HD
BRANCH  10  13
ATOM     13  C   UNL d   1      28.923 -13.386   7.436  0.00  0.00     0.033 A 
ATOM     14  C   UNL d   1      28.159 -12.941   8.533  0.00  0.00     0.020 A 
ATOM     15  C   UNL d   1      28.757 -12.669   9.776  0.00  0.00     0.038 A 
ATOM     16  C   UNL d   1      30.117 -12.901   9.971  0.00  0.00     0.068 A 
ATOM     17  C   UNL d   1      30.870 -13.397   8.908  0.00  0.00     0.038 A 
ATOM     18  C   UNL d   1      30.282 -13.633   7.652  0.00  0.00     0.020 A 
BRANCH  16  19
ATOM     19  O   UNL d   1      30.594 -12.723  11.243  0.00  0.00    -0.351 OA
BRANCH  19  20
ATOM     20  C   UNL d   1      30.373 -13.807  12.151  0.00  0.00     0.175 C 
BRANCH  20  21
ATOM     21  C   UNL d   1      29.822 -15.003  11.373  0.00  0.00     0.026 C 
BRANCH  21  22
ATOM     22  C   UNL d   1      30.782 -16.189  11.431  0.00  0.00    -0.002 C 
ATOM     23  C   UNL d   1      32.224 -15.728  11.564  0.00  0.00     0.005 C 
ENDBRANCH  21  22
ENDBRANCH  20  21
ENDBRANCH  19  20
ENDBRANCH  16  19
ENDBRANCH  10  13
ENDBRANCH   8   9
ENDBRANCH   1   7
BRANCH   5  24
ATOM     24  O   UNL d   1      26.957 -17.061  -0.525  0.00  0.00    -0.353 OA
ATOM     25  C   UNL d   1      26.577 -18.082   0.374  0.00  0.00     0.210 C 
ENDBRANCH   5  24
BRANCH   4  26
ATOM     26  O   UNL d   1      26.087 -14.855  -2.095  0.00  0.00    -0.272 OA
BRANCH  26  27
ATOM     27  C   UNL d   1      24.728 -15.094  -2.346  0.00  0.00     0.298 C 
ATOM     28  O   UNL d   1      23.931 -14.482  -3.056  0.00  0.00    -0.259 OA
BRANCH  27  29
ATOM     29  C   UNL d   1      24.107 -16.191  -1.608  0.00  0.00     0.040 A 
ATOM     30  C   UNL d   1      24.466 -17.495  -1.997  0.00  0.00     0.020 A 
ATOM     31  C   UNL d   1      23.654 -18.576  -1.663  0.00  0.00     0.038 A 
ATOM     32  C   UNL d   1      22.520 -18.371  -0.878  0.00  0.00     0.068 A 
ATOM     33  C   UNL d   1      22.153 -17.066  -0.522  0.00  0.00     0.038 A 
ATOM     34  C   UNL d   1      22.936 -15.970  -0.894  0.00  0.00     0.020 A 
BRANCH  32  35
ATOM     35  O   UNL d   1      21.847 -19.510  -0.514  0.00  0.00    -0.351 OA
BRANCH  35  36
ATOM     36  C   UNL d   1      20.468 -19.326  -0.190  0.00  0.00     0.175 C 
BRANCH  36  37
ATOM     37  C   UNL d   1      20.262 -19.559   1.300  0.00  0.00     0.026 C 
BRANCH  37  38
ATOM     38  C   UNL d   1      18.852 -20.075   1.578  0.00  0.00    -0.002 C 
ATOM     39  C   UNL d   1      18.486 -21.200   0.626  0.00  0.00     0.005 C 
ENDBRANCH  37  38
ENDBRANCH  36  37
ENDBRANCH  35  36
ENDBRANCH  32  35
ENDBRANCH  27  29
ENDBRANCH  26  27
ENDBRANCH   4  26
TORSDOF 15
ENDMDL
MODEL 3
REMARK VINA RESULT:    -8.549      5.081     12.290
REMARK INTER + INTRA:         -14.942
REMARK INTER:                 -13.024
REMARK INTRA:                  -1.918
REMARK CONF_INDEPENDENT:        4.474
REMARK UNBOUND:                -1.918
REMARK  15 active torsions:
REMARK  status: ('A' for Active; 'I' for Inactive)
REMARK    1  A    between atoms: C_2  and  C_3 
REMARK    2  A    between atoms: C_3  and  C_4 
REMARK    3  A    between atoms: C_4  and  O_5 
REMARK    4  A    between atoms: O_5  and  C_6 
REMARK    5  A    between atoms: C_9  and  C_10 
REMARK       I    between atoms: C_10  and  N_12 
REMARK    6  A    between atoms: N_12  and  N_13 
REMARK    7  A    between atoms: C_14  and  C_15 
REMARK    8  A    between atoms: C_18  and  O_19 
REMARK    9  A    between atoms: O_19  and  C_20 
REMARK   10  A    between atoms: C_20  and  C_22 
REMARK   11  A    between atoms: C_25  and  O_26 
REMARK   12  A    between atoms: O_26  and  C_27 
REMARK   13  A    between atoms: C_27  and  C_28 
REMARK   14  A    between atoms: C_28  and  C_29 
REMARK   15  A    between atoms: C_33  and  O_34 
ROOT
ATOM      1  C   UNL d   1      27.269 -15.871  -0.021  0.00  0.00    -0.014 A 
ATOM      2  C   UNL d   1      27.944 -15.304  -1.109  0.00  0.00     0.016 A 
ATOM      3  C   UNL d   1      27.350 -15.313  -2.395  0.00  0.00     0.041 A 
ATOM      4  C   UNL d   1      26.087 -15.906  -2.585  0.00  0.00     0.112 A 
ATOM      5  C   UNL d   1      25.403 -16.405  -1.465  0.00  0.00     0.102 A 
ATOM      6  C   UNL d   1      26.013 -16.432  -0.213  0.00  0.00     0.052 A 
ENDROOT
BRANCH   1   7
ATOM      7  C   UNL d   1      27.763 -15.806   1.381  0.00  0.00     0.150 C 
ATOM      8  N   UNL d   1      27.658 -14.707   2.064  0.00  0.00    -0.183 NA
BRANCH   8   9
ATOM      9  N   UNL d   1      28.164 -14.684   3.343  0.00  0.00    -0.243 N 
ATOM     10  C   UNL d   1      27.948 -13.553   4.145  0.00  0.00     0.271 C 
ATOM     11  O   UNL d   1      27.318 -12.565   3.772  0.00  0.00    -0.266 OA
ATOM     12  H   UNL d   1      28.699 -15.480   3.659  0.00  0.00     0.192 HD
BRANCH  10  13
ATOM     13  C   UNL d   1      28.546 -13.533   5.532  0.00  0.00     0.033 A 
ATOM     14  C   UNL d   1      27.949 -12.722   6.518  0.00  0.00     0.020 A 
ATOM     15  C   UNL d   1      28.537 -12.566   7.786  0.00  0.00     0.038 A 
ATOM     16  C   UNL d   1      29.692 -13.269   8.121  0.00  0.00     0.068 A 
ATOM     17  C   UNL d   1      30.256 -14.119   7.171  0.00  0.00     0.038 A 
ATOM     18  C   UNL d   1      29.693 -14.248   5.888  0.00  0.00     0.020 A 
BRANCH  16  19
ATOM     19  O   UNL d   1      30.130 -13.150   9.414  0.00  0.00    -0.351 OA
BRANCH  19  20
ATOM     20  C   UNL d   1      30.079 -14.344  10.203  0.00  0.00     0.175 C 
BRANCH  20  21
ATOM     21  C   UNL d   1      28.621 -14.784  10.344  0.00  0.00     0.026 C 
BRANCH  21  22
ATOM     22  C   UNL d   1      27.777 -13.693  11.000  0.00  0.00    -0.002 C 
ATOM     23  C   UNL d   1      28.525 -13.026  12.142  0.00  0.00     0.005 C 
ENDBRANCH  21  22
ENDBRANCH  20  21
ENDBRANCH  19  20
ENDBRANCH  16  19
ENDBRANCH  10  13
ENDBRANCH   8   9
ENDBRANCH   1   7
BRANCH   5  24
ATOM     24  O   UNL d   1      24.096 -16.709  -1.611  0.00  0.00    -0.353 OA
ATOM     25  C   UNL d   1      23.441 -17.547  -0.682  0.00  0.00     0.210 C 
ENDBRANCH   5  24
BRANCH   4  26
ATOM     26  O   UNL d   1      25.554 -15.950  -3.932  0.00  0.00    -0.272 OA
BRANCH  26  27
ATOM     27  C   UNL d   1      26.022 -15.204  -5.023  0.00  0.00     0.298 C 
ATOM     28  O   UNL d   1      26.528 -15.574  -6.082  0.00  0.00    -0.259 OA
BRANCH  27  29
ATOM     29  C   UNL d   1      25.988 -13.750  -4.887  0.00  0.00     0.040 A 
ATOM     30  C   UNL d   1      27.086 -13.042  -5.411  0.00  0.00     0.020 A 
ATOM     31  C   UNL d   1      27.353 -11.743  -4.984  0.00  0.00     0.038 A 
ATOM     32  C   UNL d   1      26.486 -11.119  -4.088  0.00  0.00     0.068 A 
ATOM     33  C   UNL d   1      25.413 -11.842  -3.548  0.00  0.00     0.038 A 
ATOM     34  C   UNL d   1      25.165 -13.162  -3.934  0.00  0.00     0.020 A 
BRANCH  32  35
ATOM     35  O   UNL d   1      26.775  -9.808  -3.812  0.00  0.00    -0.351 OA
BRANCH  35  36
ATOM     36  C   UNL d   1      25.698  -8.891  -4.014  0.00  0.00     0.175 C 
BRANCH  36  37
ATOM     37  C   UNL d   1      25.142  -9.064  -5.420  0.00  0.00     0.026 C 
BRANCH  37  38
ATOM     38  C   UNL d   1      23.757  -8.431  -5.536  0.00  0.00    -0.002 C 
ATOM     39  C   UNL d   1      23.767  -7.000  -5.031  0.00  0.00     0.005 C 
ENDBRANCH  37  38
ENDBRANCH  36  37
ENDBRANCH  35  36
ENDBRANCH  32  35
ENDBRANCH  27  29
ENDBRANCH  26  27
ENDBRANCH   4  26
TORSDOF 15
ENDMDL
MODEL 4
REMARK VINA RESULT:    -8.523      6.105     11.716
REMARK INTER + INTRA:         -14.686
REMARK INTER:                 -12.998
REMARK INTRA:                  -1.688
REMARK CONF_INDEPENDENT:        4.474
REMARK UNBOUND:                -1.688
REMARK  15 active torsions:
REMARK  status: ('A' for Active; 'I' for Inactive)
REMARK    1  A    between atoms: C_2  and  C_3 
REMARK    2  A    between atoms: C_3  and  C_4 
REMARK    3  A    between atoms: C_4  and  O_5 
REMARK    4  A    between atoms: O_5  and  C_6 
REMARK    5  A    between atoms: C_9  and  C_10 
REMARK       I    between atoms: C_10  and  N_12 
REMARK    6  A    between atoms: N_12  and  N_13 
REMARK    7  A    between atoms: C_14  and  C_15 
REMARK    8  A    between atoms: C_18  and  O_19 
REMARK    9  A    between atoms: O_19  and  C_20 
REMARK   10  A    between atoms: C_20  and  C_22 
REMARK   11  A    between atoms: C_25  and  O_26 
REMARK   12  A    between atoms: O_26  and  C_27 
REMARK   13  A    between atoms: C_27  and  C_28 
REMARK   14  A    between atoms: C_28  and  C_29 
REMARK   15  A    between atoms: C_33  and  O_34 
ROOT
ATOM      1  C   UNL d   1      27.824 -14.584   1.989  0.00  0.00    -0.014 A 
ATOM      2  C   UNL d   1      27.780 -15.810   1.315  0.00  0.00     0.016 A 
ATOM      3  C   UNL d   1      27.315 -15.868  -0.022  0.00  0.00     0.041 A 
ATOM      4  C   UNL d   1      26.881 -14.696  -0.669  0.00  0.00     0.112 A 
ATOM      5  C   UNL d   1      27.001 -13.471   0.006  0.00  0.00     0.102 A 
ATOM      6  C   UNL d   1      27.418 -13.429   1.335  0.00  0.00     0.052 A 
ENDROOT
BRANCH   1   7
ATOM      7  C   UNL d   1      28.403 -14.411   3.349  0.00  0.00     0.150 C 
ATOM      8  N   UNL d   1      27.811 -14.924   4.385  0.00  0.00    -0.183 NA
BRANCH   8   9
ATOM      9  N   UNL d   1      28.364 -14.705   5.625  0.00  0.00    -0.243 N 
ATOM     10  C   UNL d   1      28.742 -13.403   5.986  0.00  0.00     0.271 C 
ATOM     11  O   UNL d   1      28.603 -12.426   5.252  0.00  0.00    -0.266 OA
ATOM     12  H   UNL d   1      28.503 -15.499   6.233  0.00  0.00     0.192 HD
BRANCH  10  13
ATOM     13  C   UNL d   1      29.383 -13.191   7.338  0.00  0.00     0.033 A 
ATOM     14  C   UNL d   1      30.495 -13.980   7.694  0.00  0.00     0.020 A 
ATOM     15  C   UNL d   1      31.050 -13.916   8.984  0.00  0.00     0.038 A 
ATOM     16  C   UNL d   1      30.553 -13.015   9.924  0.00  0.00     0.068 A 
ATOM     17  C   UNL d   1      29.491 -12.189   9.560  0.00  0.00     0.038 A 
ATOM     18  C   UNL d   1      28.907 -12.278   8.283  0.00  0.00     0.020 A 
BRANCH  16  19
ATOM     19  O   UNL d   1      31.226 -12.934  11.114  0.00  0.00    -0.351 OA
BRANCH  19  20
ATOM     20  C   UNL d   1      30.602 -13.578  12.230  0.00  0.00     0.175 C 
BRANCH  20  21
ATOM     21  C   UNL d   1      29.658 -14.665  11.713  0.00  0.00     0.026 C 
BRANCH  21  22
ATOM     22  C   UNL d   1      28.201 -14.317  12.010  0.00  0.00    -0.002 C 
ATOM     23  C   UNL d   1      27.407 -14.121  10.730  0.00  0.00     0.005 C 
ENDBRANCH  21  22
ENDBRANCH  20  21
ENDBRANCH  19  20
ENDBRANCH  16  19
ENDBRANCH  10  13
ENDBRANCH   8   9
ENDBRANCH   1   7
BRANCH   5  24
ATOM     24  O   UNL d   1      26.850 -12.338  -0.714  0.00  0.00    -0.353 OA
ATOM     25  C   UNL d   1      27.440 -11.128  -0.289  0.00  0.00     0.210 C 
ENDBRANCH   5  24
BRANCH   4  26
ATOM     26  O   UNL d   1      26.350 -14.819  -2.012  0.00  0.00    -0.272 OA
BRANCH  26  27
ATOM     27  C   UNL d   1      25.499 -15.837  -2.466  0.00  0.00     0.298 C 
ATOM     28  O   UNL d   1      25.312 -16.269  -3.603  0.00  0.00    -0.259 OA
BRANCH  27  29
ATOM     29  C   UNL d   1      24.627 -16.456  -1.472  0.00  0.00     0.040 A 
ATOM     30  C   UNL d   1      24.937 -17.778  -1.097  0.00  0.00     0.020 A 
ATOM     31  C   UNL d   1      23.971 -18.582  -0.498  0.00  0.00     0.038 A 
ATOM     32  C   UNL d   1      22.715 -18.052  -0.204  0.00  0.00     0.068 A 
ATOM     33  C   UNL d   1      22.406 -16.745  -0.608  0.00  0.00     0.038 A 
ATOM     34  C   UNL d   1      23.354 -15.946  -1.253  0.00  0.00     0.020 A 
BRANCH  32  35
ATOM     35  O   UNL d   1      21.873 -18.889   0.481  0.00  0.00    -0.351 OA
BRANCH  35  36
ATOM     36  C   UNL d   1      21.021 -19.696  -0.333  0.00  0.00     0.175 C 
BRANCH  36  37
ATOM     37  C   UNL d   1      19.571 -19.473   0.073  0.00  0.00     0.026 C 
BRANCH  37  38
ATOM     38  C   UNL d   1      18.985 -20.733   0.708  0.00  0.00    -0.002 C 
ATOM     39  C   UNL d   1      18.438 -20.441   2.094  0.00  0.00     0.005 C 
ENDBRANCH  37  38
ENDBRANCH  36  37
ENDBRANCH  35  36
ENDBRANCH  32  35
ENDBRANCH  27  29
ENDBRANCH  26  27
ENDBRANCH   4  26
TORSDOF 15
ENDMDL
MODEL 5
REMARK VINA RESULT:    -8.338      6.522     11.702
REMARK INTER + INTRA:         -14.844
REMARK INTER:                 -12.813
REMARK INTRA:                  -2.031
REMARK CONF_INDEPENDENT:        4.474
REMARK UNBOUND:                -2.031
REMARK  15 active torsions:
REMARK  status: ('A' for Active; 'I' for Inactive)
REMARK    1  A    between atoms: C_2  and  C_3 
REMARK    2  A    between atoms: C_3  and  C_4 
REMARK    3  A    between atoms: C_4  and  O_5 
REMARK    4  A    between atoms: O_5  and  C_6 
REMARK    5  A    between atoms: C_9  and  C_10 
REMARK       I    between atoms: C_10  and  N_12 
REMARK    6  A    between atoms: N_12  and  N_13 
REMARK    7  A    between atoms: C_14  and  C_15 
REMARK    8  A    between atoms: C_18  and  O_19 
REMARK    9  A    between atoms: O_19  and  C_20 
REMARK   10  A    between atoms: C_20  and  C_22 
REMARK   11  A    between atoms: C_25  and  O_26 
REMARK   12  A    between atoms: O_26  and  C_27 
REMARK   13  A    between atoms: C_27  and  C_28 
REMARK   14  A    between atoms: C_28  and  C_29 
REMARK   15  A    between atoms: C_33  and  O_34 
ROOT
ATOM      1  C   UNL d   1      27.625 -13.802   2.029  0.00  0.00    -0.014 A 
ATOM      2  C   UNL d   1      27.170 -12.992   0.982  0.00  0.00     0.016 A 
ATOM      3  C   UNL d   1      26.894 -13.560  -0.286  0.00  0.00     0.041 A 
ATOM      4  C   UNL d   1      27.092 -14.937  -0.500  0.00  0.00     0.112 A 
ATOM      5  C   UNL d   1      27.482 -15.737   0.585  0.00  0.00     0.102 A 
ATOM      6  C   UNL d   1      27.794 -15.164   1.816  0.00  0.00     0.052 A 
ENDROOT
BRANCH   1   7
ATOM      7  C   UNL d   1      27.830 -13.315   3.420  0.00  0.00     0.150 C 
ATOM      8  N   UNL d   1      27.510 -14.063   4.432  0.00  0.00    -0.183 NA
BRANCH   8   9
ATOM      9  N   UNL d   1      27.683 -13.554   5.698  0.00  0.00    -0.243 N 
ATOM     10  C   UNL d   1      28.790 -13.963   6.456  0.00  0.00     0.271 C 
ATOM     11  O   UNL d   1      29.636 -14.759   6.050  0.00  0.00    -0.266 OA
ATOM     12  H   UNL d   1      26.988 -12.914   6.054  0.00  0.00     0.192 HD
BRANCH  10  13
ATOM     13  C   UNL d   1      28.939 -13.423   7.859  0.00  0.00     0.033 A 
ATOM     14  C   UNL d   1      29.221 -12.053   8.033  0.00  0.00     0.020 A 
ATOM     15  C   UNL d   1      29.496 -11.523   9.306  0.00  0.00     0.038 A 
ATOM     16  C   UNL d   1      29.427 -12.332  10.439  0.00  0.00     0.068 A 
ATOM     17  C   UNL d   1      29.091 -13.675  10.281  0.00  0.00     0.038 A 
ATOM     18  C   UNL d   1      28.854 -14.218   9.005  0.00  0.00     0.020 A 
BRANCH  16  19
ATOM     19  O   UNL d   1      29.593 -11.710  11.648  0.00  0.00    -0.351 OA
BRANCH  19  20
ATOM     20  C   UNL d   1      30.787 -10.934  11.794  0.00  0.00     0.175 C 
BRANCH  20  21
ATOM     21  C   UNL d   1      30.406  -9.492  12.128  0.00  0.00     0.026 C 
BRANCH  21  22
ATOM     22  C   UNL d   1      30.969  -8.518  11.095  0.00  0.00    -0.002 C 
ATOM     23  C   UNL d   1      32.007  -9.189  10.211  0.00  0.00     0.005 C 
ENDBRANCH  21  22
ENDBRANCH  20  21
ENDBRANCH  19  20
ENDBRANCH  16  19
ENDBRANCH  10  13
ENDBRANCH   8   9
ENDBRANCH   1   7
BRANCH   5  24
ATOM     24  O   UNL d   1      27.396 -17.077   0.442  0.00  0.00    -0.353 OA
ATOM     25  C   UNL d   1      28.351 -17.786  -0.318  0.00  0.00     0.210 C 
ENDBRANCH   5  24
BRANCH   4  26
ATOM     26  O   UNL d   1      26.862 -15.456  -1.834  0.00  0.00    -0.272 OA
BRANCH  26  27
ATOM     27  C   UNL d   1      25.627 -15.879  -2.346  0.00  0.00     0.298 C 
ATOM     28  O   UNL d   1      25.155 -15.770  -3.477  0.00  0.00    -0.259 OA
BRANCH  27  29
ATOM     29  C   UNL d   1      24.696 -16.485  -1.398  0.00  0.00     0.040 A 
ATOM     30  C   UNL d   1      24.960 -17.814  -1.016  0.00  0.00     0.020 A 
ATOM     31  C   UNL d   1      23.950 -18.602  -0.468  0.00  0.00     0.038 A 
ATOM     32  C   UNL d   1      22.693 -18.047  -0.232  0.00  0.00     0.068 A 
ATOM     33  C   UNL d   1      22.430 -16.732  -0.643  0.00  0.00     0.038 A 
ATOM     34  C   UNL d   1      23.424 -15.950  -1.238  0.00  0.00     0.020 A 
BRANCH  32  35
ATOM     35  O   UNL d   1      21.801 -18.869   0.407  0.00  0.00    -0.351 OA
BRANCH  35  36
ATOM     36  C   UNL d   1      20.999 -19.682  -0.450  0.00  0.00     0.175 C 
BRANCH  36  37
ATOM     37  C   UNL d   1      19.531 -19.324  -0.260  0.00  0.00     0.026 C 
BRANCH  37  38
ATOM     38  C   UNL d   1      18.788 -20.448   0.459  0.00  0.00    -0.002 C 
ATOM     39  C   UNL d   1      19.069 -20.420   1.951  0.00  0.00     0.005 C 
ENDBRANCH  37  38
ENDBRANCH  36  37
ENDBRANCH  35  36
ENDBRANCH  32  35
ENDBRANCH  27  29
ENDBRANCH  26  27
ENDBRANCH   4  26
TORSDOF 15
ENDMDL
MODEL 6
REMARK VINA RESULT:    -8.123      4.952     12.211
REMARK INTER + INTRA:         -14.253
REMARK INTER:                 -12.598
REMARK INTRA:                  -1.656
REMARK CONF_INDEPENDENT:        4.474
REMARK UNBOUND:                -1.656
REMARK  15 active torsions:
REMARK  status: ('A' for Active; 'I' for Inactive)
REMARK    1  A    between atoms: C_2  and  C_3 
REMARK    2  A    between atoms: C_3  and  C_4 
REMARK    3  A    between atoms: C_4  and  O_5 
REMARK    4  A    between atoms: O_5  and  C_6 
REMARK    5  A    between atoms: C_9  and  C_10 
REMARK       I    between atoms: C_10  and  N_12 
REMARK    6  A    between atoms: N_12  and  N_13 
REMARK    7  A    between atoms: C_14  and  C_15 
REMARK    8  A    between atoms: C_18  and  O_19 
REMARK    9  A    between atoms: O_19  and  C_20 
REMARK   10  A    between atoms: C_20  and  C_22 
REMARK   11  A    between atoms: C_25  and  O_26 
REMARK   12  A    between atoms: O_26  and  C_27 
REMARK   13  A    between atoms: C_27  and  C_28 
REMARK   14  A    between atoms: C_28  and  C_29 
REMARK   15  A    between atoms: C_33  and  O_34 
ROOT
ATOM      1  C   UNL d   1      27.762 -15.322  -1.402  0.00  0.00    -0.014 A 
ATOM      2  C   UNL d   1      28.907 -15.264  -2.206  0.00  0.00     0.016 A 
ATOM      3  C   UNL d   1      28.783 -15.204  -3.616  0.00  0.00     0.041 A 
ATOM      4  C   UNL d   1      27.507 -15.218  -4.212  0.00  0.00     0.112 A 
ATOM      5  C   UNL d   1      26.376 -15.206  -3.381  0.00  0.00     0.102 A 
ATOM      6  C   UNL d   1      26.508 -15.311  -1.998  0.00  0.00     0.052 A 
ENDROOT
BRANCH   1   7
ATOM      7  C   UNL d   1      27.794 -15.273   0.084  0.00  0.00     0.150 C 
ATOM      8  N   UNL d   1      28.674 -14.542   0.699  0.00  0.00    -0.183 NA
BRANCH   8   9
ATOM      9  N   UNL d   1      28.689 -14.559   2.074  0.00  0.00    -0.243 N 
ATOM     10  C   UNL d   1      28.203 -13.446   2.778  0.00  0.00     0.271 C 
ATOM     11  O   UNL d   1      27.751 -12.441   2.232  0.00  0.00    -0.266 OA
ATOM     12  H   UNL d   1      29.074 -15.369   2.538  0.00  0.00     0.192 HD
BRANCH  10  13
ATOM     13  C   UNL d   1      28.266 -13.469   4.287  0.00  0.00     0.033 A 
ATOM     14  C   UNL d   1      27.785 -12.356   5.004  0.00  0.00     0.020 A 
ATOM     15  C   UNL d   1      27.936 -12.268   6.400  0.00  0.00     0.038 A 
ATOM     16  C   UNL d   1      28.505 -13.319   7.117  0.00  0.00     0.068 A 
ATOM     17  C   UNL d   1      28.929 -14.450   6.421  0.00  0.00     0.038 A 
ATOM     18  C   UNL d   1      28.816 -14.525   5.020  0.00  0.00     0.020 A 
BRANCH  16  19
ATOM     19  O   UNL d   1      28.505 -13.203   8.481  0.00  0.00    -0.351 OA
BRANCH  19  20
ATOM     20  C   UNL d   1      29.322 -14.142   9.189  0.00  0.00     0.175 C 
BRANCH  20  21
ATOM     21  C   UNL d   1      28.544 -14.666  10.397  0.00  0.00     0.026 C 
BRANCH  21  22
ATOM     22  C   UNL d   1      27.690 -13.565  11.023  0.00  0.00    -0.002 C 
ATOM     23  C   UNL d   1      28.536 -12.607  11.843  0.00  0.00     0.005 C 
ENDBRANCH  21  22
ENDBRANCH  20  21
ENDBRANCH  19  20
ENDBRANCH  16  19
ENDBRANCH  10  13
ENDBRANCH   8   9
ENDBRANCH   1   7
BRANCH   5  24
ATOM     24  O   UNL d   1      25.181 -14.938  -3.949  0.00  0.00    -0.353 OA
ATOM     25  C   UNL d   1      24.539 -13.699  -3.733  0.00  0.00     0.210 C 
ENDBRANCH   5  24
BRANCH   4  26
ATOM     26  O   UNL d   1      27.435 -15.224  -5.659  0.00  0.00    -0.272 OA
BRANCH  26  27
ATOM     27  C   UNL d   1      28.142 -14.370  -6.518  0.00  0.00     0.298 C 
ATOM     28  O   UNL d   1      29.094 -14.600  -7.263  0.00  0.00    -0.259 OA
BRANCH  27  29
ATOM     29  C   UNL d   1      27.764 -12.959  -6.498  0.00  0.00     0.040 A 
ATOM     30  C   UNL d   1      26.920 -12.547  -5.449  0.00  0.00     0.020 A 
ATOM     31  C   UNL d   1      26.185 -11.369  -5.561  0.00  0.00     0.038 A 
ATOM     32  C   UNL d   1      26.342 -10.561  -6.686  0.00  0.00     0.068 A 
ATOM     33  C   UNL d   1      27.161 -10.994  -7.739  0.00  0.00     0.038 A 
ATOM     34  C   UNL d   1      27.865 -12.198  -7.656  0.00  0.00     0.020 A 
BRANCH  32  35
ATOM     35  O   UNL d   1      25.658  -9.373  -6.653  0.00  0.00    -0.351 OA
BRANCH  35  36
ATOM     36  C   UNL d   1      24.980  -9.095  -5.427  0.00  0.00     0.175 C 
BRANCH  36  37
ATOM     37  C   UNL d   1      24.591  -7.623  -5.386  0.00  0.00     0.026 C 
BRANCH  37  38
ATOM     38  C   UNL d   1      23.107  -7.446  -5.700  0.00  0.00    -0.002 C 
ATOM     39  C   UNL d   1      22.550  -6.206  -5.024  0.00  0.00     0.005 C 
ENDBRANCH  37  38
ENDBRANCH  36  37
ENDBRANCH  35  36
ENDBRANCH  32  35
ENDBRANCH  27  29
ENDBRANCH  26  27
ENDBRANCH   4  26
TORSDOF 15
ENDMDL
MODEL 7
REMARK VINA RESULT:    -8.073      6.070     12.360
REMARK INTER + INTRA:         -14.446
REMARK INTER:                 -12.548
REMARK INTRA:                  -1.898
REMARK CONF_INDEPENDENT:        4.474
REMARK UNBOUND:                -1.898
REMARK  15 active torsions:
REMARK  status: ('A' for Active; 'I' for Inactive)
REMARK    1  A    between atoms: C_2  and  C_3 
REMARK    2  A    between atoms: C_3  and  C_4 
REMARK    3  A    between atoms: C_4  and  O_5 
REMARK    4  A    between atoms: O_5  and  C_6 
REMARK    5  A    between atoms: C_9  and  C_10 
REMARK       I    between atoms: C_10  and  N_12 
REMARK    6  A    between atoms: N_12  and  N_13 
REMARK    7  A    between atoms: C_14  and  C_15 
REMARK    8  A    between atoms: C_18  and  O_19 
REMARK    9  A    between atoms: O_19  and  C_20 
REMARK   10  A    between atoms: C_20  and  C_22 
REMARK   11  A    between atoms: C_25  and  O_26 
REMARK   12  A    between atoms: O_26  and  C_27 
REMARK   13  A    between atoms: C_27  and  C_28 
REMARK   14  A    between atoms: C_28  and  C_29 
REMARK   15  A    between atoms: C_33  and  O_34 
ROOT
ATOM      1  C   UNL d   1      26.617 -14.157   0.023  0.00  0.00    -0.014 A 
ATOM      2  C   UNL d   1      26.749 -13.094  -0.878  0.00  0.00     0.016 A 
ATOM      3  C   UNL d   1      26.276 -13.227  -2.207  0.00  0.00     0.041 A 
ATOM      4  C   UNL d   1      25.688 -14.434  -2.628  0.00  0.00     0.112 A 
ATOM      5  C   UNL d   1      25.506 -15.459  -1.686  0.00  0.00     0.102 A 
ATOM      6  C   UNL d   1      26.014 -15.336  -0.395  0.00  0.00     0.052 A 
ENDROOT
BRANCH   1   7
ATOM      7  C   UNL d   1      26.980 -14.068   1.463  0.00  0.00     0.150 C 
ATOM      8  N   UNL d   1      28.126 -14.512   1.881  0.00  0.00    -0.183 NA
BRANCH   8   9
ATOM      9  N   UNL d   1      28.400 -14.442   3.227  0.00  0.00    -0.243 N 
ATOM     10  C   UNL d   1      27.985 -13.316   3.953  0.00  0.00     0.271 C 
ATOM     11  O   UNL d   1      27.374 -12.373   3.454  0.00  0.00    -0.266 OA
ATOM     12  H   UNL d   1      28.918 -15.200   3.649  0.00  0.00     0.192 HD
BRANCH  10  13
ATOM     13  C   UNL d   1      28.331 -13.242   5.422  0.00  0.00     0.033 A 
ATOM     14  C   UNL d   1      28.091 -12.040   6.117  0.00  0.00     0.020 A 
ATOM     15  C   UNL d   1      28.511 -11.872   7.448  0.00  0.00     0.038 A 
ATOM     16  C   UNL d   1      29.117 -12.922   8.136  0.00  0.00     0.068 A 
ATOM     17  C   UNL d   1      29.306 -14.134   7.474  0.00  0.00     0.038 A 
ATOM     18  C   UNL d   1      28.922 -14.293   6.129  0.00  0.00     0.020 A 
BRANCH  16  19
ATOM     19  O   UNL d   1      29.387 -12.713   9.462  0.00  0.00    -0.351 OA
BRANCH  19  20
ATOM     20  C   UNL d   1      28.306 -12.966  10.367  0.00  0.00     0.175 C 
BRANCH  20  21
ATOM     21  C   UNL d   1      28.372 -14.424  10.824  0.00  0.00     0.026 C 
BRANCH  21  22
ATOM     22  C   UNL d   1      29.734 -15.040  10.509  0.00  0.00    -0.002 C 
ATOM     23  C   UNL d   1      30.403 -15.573  11.765  0.00  0.00     0.005 C 
ENDBRANCH  21  22
ENDBRANCH  20  21
ENDBRANCH  19  20
ENDBRANCH  16  19
ENDBRANCH  10  13
ENDBRANCH   8   9
ENDBRANCH   1   7
BRANCH   5  24
ATOM     24  O   UNL d   1      24.699 -16.488  -2.023  0.00  0.00    -0.353 OA
ATOM     25  C   UNL d   1      24.431 -17.527  -1.106  0.00  0.00     0.210 C 
ENDBRANCH   5  24
BRANCH   4  26
ATOM     26  O   UNL d   1      25.283 -14.544  -4.016  0.00  0.00    -0.272 OA
BRANCH  26  27
ATOM     27  C   UNL d   1      25.949 -15.278  -5.007  0.00  0.00     0.298 C 
ATOM     28  O   UNL d   1      25.529 -16.148  -5.770  0.00  0.00    -0.259 OA
BRANCH  27  29
ATOM     29  C   UNL d   1      27.386 -15.055  -5.136  0.00  0.00     0.040 A 
ATOM     30  C   UNL d   1      27.855 -14.683  -6.410  0.00  0.00     0.020 A 
ATOM     31  C   UNL d   1      29.198 -14.848  -6.740  0.00  0.00     0.038 A 
ATOM     32  C   UNL d   1      30.093 -15.315  -5.778  0.00  0.00     0.068 A 
ATOM     33  C   UNL d   1      29.612 -15.712  -4.522  0.00  0.00     0.038 A 
ATOM     34  C   UNL d   1      28.258 -15.595  -4.198  0.00  0.00     0.020 A 
BRANCH  32  35
ATOM     35  O   UNL d   1      31.408 -15.340  -6.166  0.00  0.00    -0.351 OA
BRANCH  35  36
ATOM     36  C   UNL d   1      31.661 -15.970  -7.422  0.00  0.00     0.175 C 
BRANCH  36  37
ATOM     37  C   UNL d   1      32.027 -17.431  -7.192  0.00  0.00     0.026 C 
BRANCH  37  38
ATOM     38  C   UNL d   1      30.782 -18.314  -7.241  0.00  0.00    -0.002 C 
ATOM     39  C   UNL d   1      30.531 -18.976  -5.897  0.00  0.00     0.005 C 
ENDBRANCH  37  38
ENDBRANCH  36  37
ENDBRANCH  35  36
ENDBRANCH  32  35
ENDBRANCH  27  29
ENDBRANCH  26  27
ENDBRANCH   4  26
TORSDOF 15
ENDMDL
MODEL 8
REMARK VINA RESULT:    -7.832      7.453     11.531
REMARK INTER + INTRA:         -14.341
REMARK INTER:                 -12.306
REMARK INTRA:                  -2.034
REMARK CONF_INDEPENDENT:        4.474
REMARK UNBOUND:                -2.034
REMARK  15 active torsions:
REMARK  status: ('A' for Active; 'I' for Inactive)
REMARK    1  A    between atoms: C_2  and  C_3 
REMARK    2  A    between atoms: C_3  and  C_4 
REMARK    3  A    between atoms: C_4  and  O_5 
REMARK    4  A    between atoms: O_5  and  C_6 
REMARK    5  A    between atoms: C_9  and  C_10 
REMARK       I    between atoms: C_10  and  N_12 
REMARK    6  A    between atoms: N_12  and  N_13 
REMARK    7  A    between atoms: C_14  and  C_15 
REMARK    8  A    between atoms: C_18  and  O_19 
REMARK    9  A    between atoms: O_19  and  C_20 
REMARK   10  A    between atoms: C_20  and  C_22 
REMARK   11  A    between atoms: C_25  and  O_26 
REMARK   12  A    between atoms: O_26  and  C_27 
REMARK   13  A    between atoms: C_27  and  C_28 
REMARK   14  A    between atoms: C_28  and  C_29 
REMARK   15  A    between atoms: C_33  and  O_34 
ROOT
ATOM      1  C   UNL d   1      30.384 -17.631  -0.889  0.00  0.00    -0.014 A 
ATOM      2  C   UNL d   1      31.169 -18.525  -1.627  0.00  0.00     0.016 A 
ATOM      3  C   UNL d   1      32.559 -18.627  -1.371  0.00  0.00     0.041 A 
ATOM      4  C   UNL d   1      33.155 -17.818  -0.385  0.00  0.00     0.112 A 
ATOM      5  C   UNL d   1      32.334 -16.982   0.387  0.00  0.00     0.102 A 
ATOM      6  C   UNL d   1      30.976 -16.855   0.098  0.00  0.00     0.052 A 
ENDROOT
BRANCH   1   7
ATOM      7  C   UNL d   1      28.904 -17.539  -1.011  0.00  0.00     0.150 C 
ATOM      8  N   UNL d   1      28.240 -16.669  -0.313  0.00  0.00    -0.183 NA
BRANCH   8   9
ATOM      9  N   UNL d   1      26.870 -16.647  -0.431  0.00  0.00    -0.243 N 
ATOM     10  C   UNL d   1      26.131 -17.774  -0.039  0.00  0.00     0.271 C 
ATOM     11  O   UNL d   1      26.640 -18.796   0.419  0.00  0.00    -0.266 OA
ATOM     12  H   UNL d   1      26.437 -15.823  -0.822  0.00  0.00     0.192 HD
BRANCH  10  13
ATOM     13  C   UNL d   1      24.631 -17.744  -0.214  0.00  0.00     0.033 A 
ATOM     14  C   UNL d   1      23.931 -18.964  -0.287  0.00  0.00     0.020 A 
ATOM     15  C   UNL d   1      22.555 -18.999  -0.578  0.00  0.00     0.038 A 
ATOM     16  C   UNL d   1      21.836 -17.815  -0.732  0.00  0.00     0.068 A 
ATOM     17  C   UNL d   1      22.510 -16.602  -0.603  0.00  0.00     0.038 A 
ATOM     18  C   UNL d   1      23.893 -16.564  -0.351  0.00  0.00     0.020 A 
BRANCH  16  19
ATOM     19  O   UNL d   1      20.481 -17.937  -0.895  0.00  0.00    -0.351 OA
BRANCH  19  20
ATOM     20  C   UNL d   1      19.994 -19.267  -1.108  0.00  0.00     0.175 C 
BRANCH  20  21
ATOM     21  C   UNL d   1      19.956 -20.002   0.232  0.00  0.00     0.026 C 
BRANCH  21  22
ATOM     22  C   UNL d   1      18.677 -20.825   0.374  0.00  0.00    -0.002 C 
ATOM     23  C   UNL d   1      18.028 -20.608   1.730  0.00  0.00     0.005 C 
ENDBRANCH  21  22
ENDBRANCH  20  21
ENDBRANCH  19  20
ENDBRANCH  16  19
ENDBRANCH  10  13
ENDBRANCH   8   9
ENDBRANCH   1   7
BRANCH   5  24
ATOM     24  O   UNL d   1      32.864 -16.431   1.500  0.00  0.00    -0.353 OA
ATOM     25  C   UNL d   1      33.963 -15.550   1.418  0.00  0.00     0.210 C 
ENDBRANCH   5  24
BRANCH   4  26
ATOM     26  O   UNL d   1      34.591 -17.911  -0.208  0.00  0.00    -0.272 OA
BRANCH  26  27
ATOM     27  C   UNL d   1      35.267 -18.922   0.489  0.00  0.00     0.298 C 
ATOM     28  O   UNL d   1      36.325 -19.496   0.232  0.00  0.00    -0.259 OA
BRANCH  27  29
ATOM     29  C   UNL d   1      34.605 -19.455   1.677  0.00  0.00     0.040 A 
ATOM     30  C   UNL d   1      33.415 -20.177   1.466  0.00  0.00     0.020 A 
ATOM     31  C   UNL d   1      32.512 -20.364   2.509  0.00  0.00     0.038 A 
ATOM     32  C   UNL d   1      32.824 -19.895   3.785  0.00  0.00     0.068 A 
ATOM     33  C   UNL d   1      33.996 -19.151   3.980  0.00  0.00     0.038 A 
ATOM     34  C   UNL d   1      34.886 -18.917   2.927  0.00  0.00     0.020 A 
BRANCH  32  35
ATOM     35  O   UNL d   1      31.922 -20.221   4.764  0.00  0.00    -0.351 OA
BRANCH  35  36
ATOM     36  C   UNL d   1      31.979 -21.574   5.219  0.00  0.00     0.175 C 
BRANCH  36  37
ATOM     37  C   UNL d   1      32.722 -21.632   6.546  0.00  0.00     0.026 C 
BRANCH  37  38
ATOM     38  C   UNL d   1      34.218 -21.842   6.321  0.00  0.00    -0.002 C 
ATOM     39  C   UNL d   1      35.032 -20.790   7.052  0.00  0.00     0.005 C 
ENDBRANCH  37  38
ENDBRANCH  36  37
ENDBRANCH  35  36
ENDBRANCH  32  35
ENDBRANCH  27  29
ENDBRANCH  26  27
ENDBRANCH   4  26
TORSDOF 15
ENDMDL
