MODEL 1
REMARK VINA RESULT:    -9.964      0.000      0.000
REMARK INTER + INTRA:         -13.199
REMARK INTER:                 -12.351
REMARK INTRA:                  -0.848
REMARK CONF_INDEPENDENT:        2.386
REMARK UNBOUND:                -0.848
REMARK  8 active torsions:
REMARK  status: ('A' for Active; 'I' for Inactive)
REMARK    1  A    between atoms: O_2  and  C_3 
REMARK    2  A    between atoms: C_3  and  C_5 
REMARK    3  A    between atoms: C_8  and  C_9 
REMARK    4  A    between atoms: C_9  and  N_10 
REMARK       I    between atoms: N_10  and  C_11 
REMARK       I    between atoms: C_11  and  N_13 
REMARK    5  A    between atoms: C_14  and  N_13 
REMARK    6  A    between atoms: C_14  and  C_16 
REMARK    7  A    between atoms: C_19  and  N_20 
REMARK       I    between atoms: N_20  and  C_21 
REMARK       I    between atoms: C_21  and  N_23 
REMARK    8  A    between atoms: N_23  and  C_24 
ROOT
ATOM      1  C   UNL d   1      26.756 -12.665  -0.711  0.00  0.00     0.115 C 
ATOM      2  C   UNL d   1      27.422 -11.336  -1.076  0.00  0.00     0.037 C 
ENDROOT
BRANCH   1   3
ATOM      3  C   UNL d   1      27.177 -13.094   0.687  0.00  0.00    -0.036 A 
ATOM      4  C   UNL d   1      26.427 -12.937   1.862  0.00  0.00     0.011 A 
ATOM      5  C   UNL d   1      26.941 -13.328   3.124  0.00  0.00     0.030 A 
ATOM      6  C   UNL d   1      28.179 -13.976   3.223  0.00  0.00     0.036 A 
ATOM      7  C   UNL d   1      28.908 -14.118   2.041  0.00  0.00     0.030 A 
ATOM      8  C   UNL d   1      28.428 -13.695   0.806  0.00  0.00     0.011 A 
BRANCH   6   9
ATOM      9  N   UNL d   1      28.649 -14.499   4.474  0.00  0.00    -0.309 N 
ATOM     10  C   UNL d   1      28.487 -13.838   5.688  0.00  0.00     0.325 C 
ATOM     11  O   UNL d   1      27.912 -12.759   5.810  0.00  0.00    -0.247 OA
ATOM     12  N   UNL d   1      29.046 -14.456   6.797  0.00  0.00    -0.309 N 
ATOM     13  H   UNL d   1      29.791 -15.122   6.672  0.00  0.00     0.170 HD
ATOM     14  H   UNL d   1      29.195 -15.348   4.442  0.00  0.00     0.170 HD
BRANCH  12  15
ATOM     15  C   UNL d   1      28.907 -13.849   8.086  0.00  0.00     0.036 A 
ATOM     16  C   UNL d   1      28.788 -12.462   8.216  0.00  0.00     0.029 A 
ATOM     17  C   UNL d   1      28.702 -11.878   9.491  0.00  0.00     0.002 A 
ATOM     18  C   UNL d   1      28.692 -12.671  10.639  0.00  0.00     0.000 A 
ATOM     19  C   UNL d   1      28.796 -14.052  10.518  0.00  0.00     0.002 A 
ATOM     20  C   UNL d   1      28.904 -14.632   9.251  0.00  0.00     0.029 A 
ENDBRANCH  12  15
ENDBRANCH   6   9
ENDBRANCH   1   3
BRANCH   1  21
ATOM     21  N   UNL d   1      26.974 -13.668  -1.743  0.00  0.00    -0.335 N 
ATOM     22  C   UNL d   1      26.928 -15.025  -1.616  0.00  0.00     0.316 C 
ATOM     23  N   UNL d   1      26.286 -15.484  -0.513  0.00  0.00    -0.339 N 
ATOM     24  O   UNL d   1      27.434 -15.745  -2.471  0.00  0.00    -0.247 OA
ATOM     25  H   UNL d   1      25.677 -14.820  -0.084  0.00  0.00     0.164 HD
ATOM     26  H   UNL d   1      27.341 -13.375  -2.636  0.00  0.00     0.165 HD
BRANCH  23  27
ATOM     27  C   UNL d   1      26.035 -16.890  -0.258  0.00  0.00     0.162 C 
BRANCH  27  28
ATOM     28  C   UNL d   1      24.573 -17.303  -0.399  0.00  0.00    -0.040 A 
ATOM     29  C   UNL d   1      24.237 -18.668  -0.362  0.00  0.00     0.010 A 
ATOM     30  C   UNL d   1      22.920 -19.097  -0.608  0.00  0.00     0.018 A 
ATOM     31  C   UNL d   1      21.898 -18.167  -0.835  0.00  0.00     0.039 A 
ATOM     32  C   UNL d   1      22.209 -16.810  -0.842  0.00  0.00     0.018 A 
ATOM     33  C   UNL d   1      23.527 -16.389  -0.621  0.00  0.00     0.010 A 
BRANCH  31  34
ATOM     34  C   UNL d   1      20.487 -18.616  -0.901  0.00  0.00     0.292 C 
ATOM     35  O   UNL d   1      19.546 -17.825  -0.895  0.00  0.00    -0.259 OA
BRANCH  34  36
ATOM     36  O   UNL d   1      20.390 -19.966  -0.974  0.00  0.00    -0.323 OA
ATOM     37  C   UNL d   1      19.690 -20.561   0.127  0.00  0.00     0.213 C 
ENDBRANCH  34  36
ENDBRANCH  31  34
ENDBRANCH  27  28
ENDBRANCH  23  27
ENDBRANCH   1  21
TORSDOF 8
ENDMDL
MODEL 2
REMARK VINA RESULT:    -9.691      3.328      9.603
REMARK INTER + INTRA:         -13.003
REMARK INTER:                 -12.077
REMARK INTRA:                  -0.925
REMARK CONF_INDEPENDENT:        2.386
REMARK UNBOUND:                -0.925
REMARK  8 active torsions:
REMARK  status: ('A' for Active; 'I' for Inactive)
REMARK    1  A    between atoms: O_2  and  C_3 
REMARK    2  A    between atoms: C_3  and  C_5 
REMARK    3  A    between atoms: C_8  and  C_9 
REMARK    4  A    between atoms: C_9  and  N_10 
REMARK       I    between atoms: N_10  and  C_11 
REMARK       I    between atoms: C_11  and  N_13 
REMARK    5  A    between atoms: C_14  and  N_13 
REMARK    6  A    between atoms: C_14  and  C_16 
REMARK    7  A    between atoms: C_19  and  N_20 
REMARK       I    between atoms: N_20  and  C_21 
REMARK       I    between atoms: C_21  and  N_23 
REMARK    8  A    between atoms: N_23  and  C_24 
ROOT
ATOM      1  C   UNL d   1      29.050 -16.569  -0.303  0.00  0.00     0.115 C 
ATOM      2  C   UNL d   1      29.830 -17.092  -1.512  0.00  0.00     0.037 C 
ENDROOT
BRANCH   1   3
ATOM      3  C   UNL d   1      27.555 -16.625  -0.582  0.00  0.00    -0.036 A 
ATOM      4  C   UNL d   1      26.852 -15.825  -1.495  0.00  0.00     0.011 A 
ATOM      5  C   UNL d   1      25.446 -15.928  -1.638  0.00  0.00     0.030 A 
ATOM      6  C   UNL d   1      24.725 -16.904  -0.940  0.00  0.00     0.036 A 
ATOM      7  C   UNL d   1      25.445 -17.686  -0.034  0.00  0.00     0.030 A 
ATOM      8  C   UNL d   1      26.818 -17.559   0.143  0.00  0.00     0.011 A 
BRANCH   6   9
ATOM      9  N   UNL d   1      23.324 -17.109  -1.176  0.00  0.00    -0.309 N 
ATOM     10  C   UNL d   1      22.558 -18.033  -0.471  0.00  0.00     0.325 C 
ATOM     11  O   UNL d   1      22.998 -18.743   0.430  0.00  0.00    -0.247 OA
ATOM     12  N   UNL d   1      21.231 -18.145  -0.858  0.00  0.00    -0.309 N 
ATOM     13  H   UNL d   1      20.955 -17.849  -1.780  0.00  0.00     0.170 HD
ATOM     14  H   UNL d   1      22.910 -16.612  -1.952  0.00  0.00     0.170 HD
BRANCH  12  15
ATOM     15  C   UNL d   1      20.371 -19.060  -0.170  0.00  0.00     0.036 A 
ATOM     16  C   UNL d   1      19.310 -19.683  -0.833  0.00  0.00     0.029 A 
ATOM     17  C   UNL d   1      18.446 -20.541  -0.132  0.00  0.00     0.002 A 
ATOM     18  C   UNL d   1      18.657 -20.814   1.220  0.00  0.00     0.000 A 
ATOM     19  C   UNL d   1      19.717 -20.210   1.884  0.00  0.00     0.002 A 
ATOM     20  C   UNL d   1      20.565 -19.340   1.193  0.00  0.00     0.029 A 
ENDBRANCH  12  15
ENDBRANCH   6   9
ENDBRANCH   1   3
BRANCH   1  21
ATOM     21  N   UNL d   1      29.538 -15.265   0.119  0.00  0.00    -0.335 N 
ATOM     22  C   UNL d   1      29.081 -14.490   1.144  0.00  0.00     0.316 C 
ATOM     23  N   UNL d   1      28.332 -15.136   2.072  0.00  0.00    -0.339 N 
ATOM     24  O   UNL d   1      29.363 -13.297   1.193  0.00  0.00    -0.247 OA
ATOM     25  H   UNL d   1      28.440 -16.128   2.071  0.00  0.00     0.164 HD
ATOM     26  H   UNL d   1      30.195 -14.777  -0.471  0.00  0.00     0.165 HD
BRANCH  23  27
ATOM     27  C   UNL d   1      27.850 -14.511   3.290  0.00  0.00     0.162 C 
BRANCH  27  28
ATOM     28  C   UNL d   1      27.400 -13.064   3.117  0.00  0.00    -0.040 A 
ATOM     29  C   UNL d   1      26.629 -12.712   1.996  0.00  0.00     0.010 A 
ATOM     30  C   UNL d   1      26.296 -11.370   1.736  0.00  0.00     0.018 A 
ATOM     31  C   UNL d   1      26.674 -10.358   2.627  0.00  0.00     0.039 A 
ATOM     32  C   UNL d   1      27.410 -10.694   3.760  0.00  0.00     0.018 A 
ATOM     33  C   UNL d   1      27.760 -12.029   4.000  0.00  0.00     0.010 A 
BRANCH  31  34
ATOM     34  C   UNL d   1      26.157  -8.980   2.448  0.00  0.00     0.292 C 
ATOM     35  O   UNL d   1      25.150  -8.737   1.786  0.00  0.00    -0.259 OA
BRANCH  34  36
ATOM     36  O   UNL d   1      26.919  -8.067   3.098  0.00  0.00    -0.323 OA
ATOM     37  C   UNL d   1      28.188  -7.819   2.478  0.00  0.00     0.213 C 
ENDBRANCH  34  36
ENDBRANCH  31  34
ENDBRANCH  27  28
ENDBRANCH  23  27
ENDBRANCH   1  21
TORSDOF 8
ENDMDL
MODEL 3
REMARK VINA RESULT:    -9.636      2.413     10.141
REMARK INTER + INTRA:         -12.952
REMARK INTER:                 -12.022
REMARK INTRA:                  -0.929
REMARK CONF_INDEPENDENT:        2.386
REMARK UNBOUND:                -0.929
REMARK  8 active torsions:
REMARK  status: ('A' for Active; 'I' for Inactive)
REMARK    1  A    between atoms: O_2  and  C_3 
REMARK    2  A    between atoms: C_3  and  C_5 
REMARK    3  A    between atoms: C_8  and  C_9 
REMARK    4  A    between atoms: C_9  and  N_10 
REMARK       I    between atoms: N_10  and  C_11 
REMARK       I    between atoms: C_11  and  N_13 
REMARK    5  A    between atoms: C_14  and  N_13 
REMARK    6  A    between atoms: C_14  and  C_16 
REMARK    7  A    between atoms: C_19  and  N_20 
REMARK       I    between atoms: N_20  and  C_21 
REMARK       I    between atoms: C_21  and  N_23 
REMARK    8  A    between atoms: N_23  and  C_24 
ROOT
ATOM      1  C   UNL d   1      28.975 -16.485  -0.039  0.00  0.00     0.115 C 
ATOM      2  C   UNL d   1      29.814 -17.159  -1.128  0.00  0.00     0.037 C 
ENDROOT
BRANCH   1   3
ATOM      3  C   UNL d   1      27.498 -16.776  -0.263  0.00  0.00    -0.036 A 
ATOM      4  C   UNL d   1      26.759 -17.811   0.330  0.00  0.00     0.011 A 
ATOM      5  C   UNL d   1      25.395 -18.021   0.009  0.00  0.00     0.030 A 
ATOM      6  C   UNL d   1      24.714 -17.140  -0.839  0.00  0.00     0.036 A 
ATOM      7  C   UNL d   1      25.472 -16.120  -1.420  0.00  0.00     0.030 A 
ATOM      8  C   UNL d   1      26.822 -15.936  -1.144  0.00  0.00     0.011 A 
BRANCH   6   9
ATOM      9  N   UNL d   1      23.302 -17.261  -1.065  0.00  0.00    -0.309 N 
ATOM     10  C   UNL d   1      22.497 -18.176  -0.393  0.00  0.00     0.325 C 
ATOM     11  O   UNL d   1      22.910 -18.950   0.467  0.00  0.00    -0.247 OA
ATOM     12  N   UNL d   1      21.162 -18.200  -0.766  0.00  0.00    -0.309 N 
ATOM     13  H   UNL d   1      20.891 -17.847  -1.669  0.00  0.00     0.170 HD
ATOM     14  H   UNL d   1      22.906 -16.706  -1.810  0.00  0.00     0.170 HD
BRANCH  12  15
ATOM     15  C   UNL d   1      20.263 -19.101  -0.109  0.00  0.00     0.036 A 
ATOM     16  C   UNL d   1      19.229 -19.723  -0.815  0.00  0.00     0.029 A 
ATOM     17  C   UNL d   1      18.327 -20.567  -0.147  0.00  0.00     0.002 A 
ATOM     18  C   UNL d   1      18.471 -20.827   1.217  0.00  0.00     0.000 A 
ATOM     19  C   UNL d   1      19.504 -20.224   1.924  0.00  0.00     0.002 A 
ATOM     20  C   UNL d   1      20.390 -19.368   1.264  0.00  0.00     0.029 A 
ENDBRANCH  12  15
ENDBRANCH   6   9
ENDBRANCH   1   3
BRANCH   1  21
ATOM     21  N   UNL d   1      29.302 -15.072   0.082  0.00  0.00    -0.335 N 
ATOM     22  C   UNL d   1      28.718 -14.144   0.893  0.00  0.00     0.316 C 
ATOM     23  N   UNL d   1      28.000 -14.646   1.929  0.00  0.00    -0.339 N 
ATOM     24  O   UNL d   1      28.869 -12.946   0.673  0.00  0.00    -0.247 OA
ATOM     25  H   UNL d   1      28.214 -15.593   2.158  0.00  0.00     0.164 HD
ATOM     26  H   UNL d   1      29.930 -14.658  -0.591  0.00  0.00     0.165 HD
BRANCH  23  27
ATOM     27  C   UNL d   1      27.400 -13.822   2.961  0.00  0.00     0.162 C 
BRANCH  27  28
ATOM     28  C   UNL d   1      28.082 -13.925   4.323  0.00  0.00    -0.040 A 
ATOM     29  C   UNL d   1      27.499 -13.291   5.434  0.00  0.00     0.010 A 
ATOM     30  C   UNL d   1      28.155 -13.260   6.677  0.00  0.00     0.018 A 
ATOM     31  C   UNL d   1      29.380 -13.915   6.853  0.00  0.00     0.039 A 
ATOM     32  C   UNL d   1      29.954 -14.576   5.770  0.00  0.00     0.018 A 
ATOM     33  C   UNL d   1      29.308 -14.583   4.527  0.00  0.00     0.010 A 
BRANCH  31  34
ATOM     34  C   UNL d   1      29.968 -14.040   8.208  0.00  0.00     0.292 C 
ATOM     35  O   UNL d   1      29.478 -13.487   9.190  0.00  0.00    -0.259 OA
BRANCH  34  36
ATOM     36  O   UNL d   1      31.072 -14.826   8.208  0.00  0.00    -0.323 OA
ATOM     37  C   UNL d   1      31.624 -15.057   9.512  0.00  0.00     0.213 C 
ENDBRANCH  34  36
ENDBRANCH  31  34
ENDBRANCH  27  28
ENDBRANCH  23  27
ENDBRANCH   1  21
TORSDOF 8
ENDMDL
MODEL 4
REMARK VINA RESULT:    -9.518      1.393      2.035
REMARK INTER + INTRA:         -12.903
REMARK INTER:                 -11.905
REMARK INTRA:                  -0.998
REMARK CONF_INDEPENDENT:        2.386
REMARK UNBOUND:                -0.998
REMARK  8 active torsions:
REMARK  status: ('A' for Active; 'I' for Inactive)
REMARK    1  A    between atoms: O_2  and  C_3 
REMARK    2  A    between atoms: C_3  and  C_5 
REMARK    3  A    between atoms: C_8  and  C_9 
REMARK    4  A    between atoms: C_9  and  N_10 
REMARK       I    between atoms: N_10  and  C_11 
REMARK       I    between atoms: C_11  and  N_13 
REMARK    5  A    between atoms: C_14  and  N_13 
REMARK    6  A    between atoms: C_14  and  C_16 
REMARK    7  A    between atoms: C_19  and  N_20 
REMARK       I    between atoms: N_20  and  C_21 
REMARK       I    between atoms: C_21  and  N_23 
REMARK    8  A    between atoms: N_23  and  C_24 
ROOT
ATOM      1  C   UNL d   1      28.440 -12.901   0.871  0.00  0.00     0.115 C 
ATOM      2  C   UNL d   1      29.655 -13.285   0.022  0.00  0.00     0.037 C 
ENDROOT
BRANCH   1   3
ATOM      3  C   UNL d   1      28.604 -13.434   2.287  0.00  0.00    -0.036 A 
ATOM      4  C   UNL d   1      29.807 -13.833   2.887  0.00  0.00     0.011 A 
ATOM      5  C   UNL d   1      29.836 -14.365   4.201  0.00  0.00     0.030 A 
ATOM      6  C   UNL d   1      28.673 -14.416   4.978  0.00  0.00     0.036 A 
ATOM      7  C   UNL d   1      27.487 -14.016   4.358  0.00  0.00     0.030 A 
ATOM      8  C   UNL d   1      27.446 -13.537   3.054  0.00  0.00     0.011 A 
BRANCH   6   9
ATOM      9  N   UNL d   1      28.711 -14.823   6.354  0.00  0.00    -0.309 N 
ATOM     10  C   UNL d   1      28.831 -13.927   7.412  0.00  0.00     0.325 C 
ATOM     11  O   UNL d   1      28.896 -12.708   7.275  0.00  0.00    -0.247 OA
ATOM     12  N   UNL d   1      28.906 -14.487   8.679  0.00  0.00    -0.309 N 
ATOM     13  H   UNL d   1      29.200 -15.445   8.782  0.00  0.00     0.170 HD
ATOM     14  H   UNL d   1      28.735 -15.815   6.540  0.00  0.00     0.170 HD
BRANCH  12  15
ATOM     15  C   UNL d   1      29.012 -13.633   9.822  0.00  0.00     0.036 A 
ATOM     16  C   UNL d   1      30.084 -12.745   9.956  0.00  0.00     0.029 A 
ATOM     17  C   UNL d   1      30.200 -11.948  11.107  0.00  0.00     0.002 A 
ATOM     18  C   UNL d   1      29.232 -12.000  12.110  0.00  0.00     0.000 A 
ATOM     19  C   UNL d   1      28.156 -12.869  11.979  0.00  0.00     0.002 A 
ATOM     20  C   UNL d   1      28.051 -13.678  10.844  0.00  0.00     0.029 A 
ENDBRANCH  12  15
ENDBRANCH   6   9
ENDBRANCH   1   3
BRANCH   1  21
ATOM     21  N   UNL d   1      27.197 -13.285   0.219  0.00  0.00    -0.335 N 
ATOM     22  C   UNL d   1      26.874 -14.494  -0.324  0.00  0.00     0.316 C 
ATOM     23  N   UNL d   1      27.642 -15.537   0.079  0.00  0.00    -0.339 N 
ATOM     24  O   UNL d   1      25.935 -14.589  -1.109  0.00  0.00    -0.247 OA
ATOM     25  H   UNL d   1      28.147 -15.374   0.924  0.00  0.00     0.164 HD
ATOM     26  H   UNL d   1      26.522 -12.568  -0.003  0.00  0.00     0.165 HD
BRANCH  23  27
ATOM     27  C   UNL d   1      27.386 -16.914  -0.299  0.00  0.00     0.162 C 
BRANCH  27  28
ATOM     28  C   UNL d   1      25.908 -17.253  -0.471  0.00  0.00    -0.040 A 
ATOM     29  C   UNL d   1      25.202 -17.821   0.605  0.00  0.00     0.010 A 
ATOM     30  C   UNL d   1      23.875 -18.259   0.450  0.00  0.00     0.018 A 
ATOM     31  C   UNL d   1      23.203 -18.081  -0.765  0.00  0.00     0.039 A 
ATOM     32  C   UNL d   1      23.877 -17.489  -1.830  0.00  0.00     0.018 A 
ATOM     33  C   UNL d   1      25.208 -17.078  -1.679  0.00  0.00     0.010 A 
BRANCH  31  34
ATOM     34  C   UNL d   1      21.751 -18.367  -0.861  0.00  0.00     0.292 C 
ATOM     35  O   UNL d   1      20.910 -17.475  -0.950  0.00  0.00    -0.259 OA
BRANCH  34  36
ATOM     36  O   UNL d   1      21.498 -19.699  -0.844  0.00  0.00    -0.323 OA
ATOM     37  C   UNL d   1      20.233 -20.045  -0.264  0.00  0.00     0.213 C 
ENDBRANCH  34  36
ENDBRANCH  31  34
ENDBRANCH  27  28
ENDBRANCH  23  27
ENDBRANCH   1  21
TORSDOF 8
ENDMDL
MODEL 5
REMARK VINA RESULT:    -9.338      5.520      9.989
REMARK INTER + INTRA:         -12.735
REMARK INTER:                 -11.724
REMARK INTRA:                  -1.011
REMARK CONF_INDEPENDENT:        2.386
REMARK UNBOUND:                -1.011
REMARK  8 active torsions:
REMARK  status: ('A' for Active; 'I' for Inactive)
REMARK    1  A    between atoms: O_2  and  C_3 
REMARK    2  A    between atoms: C_3  and  C_5 
REMARK    3  A    between atoms: C_8  and  C_9 
REMARK    4  A    between atoms: C_9  and  N_10 
REMARK       I    between atoms: N_10  and  C_11 
REMARK       I    between atoms: C_11  and  N_13 
REMARK    5  A    between atoms: C_14  and  N_13 
REMARK    6  A    between atoms: C_14  and  C_16 
REMARK    7  A    between atoms: C_19  and  N_20 
REMARK       I    between atoms: N_20  and  C_21 
REMARK       I    between atoms: C_21  and  N_23 
REMARK    8  A    between atoms: N_23  and  C_24 
ROOT
ATOM      1  C   UNL d   1      26.170 -13.332  -3.396  0.00  0.00     0.115 C 
ATOM      2  C   UNL d   1      24.796 -13.986  -3.571  0.00  0.00     0.037 C 
ENDROOT
BRANCH   1   3
ATOM      3  C   UNL d   1      27.199 -14.041  -4.264  0.00  0.00    -0.036 A 
ATOM      4  C   UNL d   1      27.936 -15.182  -3.911  0.00  0.00     0.011 A 
ATOM      5  C   UNL d   1      28.909 -15.730  -4.782  0.00  0.00     0.030 A 
ATOM      6  C   UNL d   1      29.098 -15.207  -6.067  0.00  0.00     0.036 A 
ATOM      7  C   UNL d   1      28.355 -14.070  -6.395  0.00  0.00     0.030 A 
ATOM      8  C   UNL d   1      27.431 -13.500  -5.526  0.00  0.00     0.011 A 
BRANCH   6   9
ATOM      9  N   UNL d   1      29.981 -15.835  -7.008  0.00  0.00    -0.309 N 
ATOM     10  C   UNL d   1      30.401 -17.157  -6.895  0.00  0.00     0.325 C 
ATOM     11  O   UNL d   1      30.045 -17.916  -5.997  0.00  0.00    -0.247 OA
ATOM     12  N   UNL d   1      31.297 -17.595  -7.859  0.00  0.00    -0.309 N 
ATOM     13  H   UNL d   1      31.849 -16.923  -8.367  0.00  0.00     0.170 HD
ATOM     14  H   UNL d   1      30.372 -15.251  -7.733  0.00  0.00     0.170 HD
BRANCH  12  15
ATOM     15  C   UNL d   1      31.764 -18.948  -7.824  0.00  0.00     0.036 A 
ATOM     16  C   UNL d   1      32.444 -19.442  -6.708  0.00  0.00     0.029 A 
ATOM     17  C   UNL d   1      32.939 -20.757  -6.708  0.00  0.00     0.002 A 
ATOM     18  C   UNL d   1      32.724 -21.599  -7.801  0.00  0.00     0.000 A 
ATOM     19  C   UNL d   1      32.036 -21.120  -8.909  0.00  0.00     0.002 A 
ATOM     20  C   UNL d   1      31.562 -19.805  -8.918  0.00  0.00     0.029 A 
ENDBRANCH  12  15
ENDBRANCH   6   9
ENDBRANCH   1   3
BRANCH   1  21
ATOM     21  N   UNL d   1      26.532 -13.229  -1.990  0.00  0.00    -0.335 N 
ATOM     22  C   UNL d   1      26.291 -14.129  -0.994  0.00  0.00     0.316 C 
ATOM     23  N   UNL d   1      25.993 -15.387  -1.406  0.00  0.00    -0.339 N 
ATOM     24  O   UNL d   1      26.363 -13.786   0.182  0.00  0.00    -0.247 OA
ATOM     25  H   UNL d   1      26.266 -15.588  -2.345  0.00  0.00     0.164 HD
ATOM     26  H   UNL d   1      26.876 -12.348  -1.640  0.00  0.00     0.165 HD
BRANCH  23  27
ATOM     27  C   UNL d   1      25.816 -16.506  -0.501  0.00  0.00     0.162 C 
BRANCH  27  28
ATOM     28  C   UNL d   1      24.475 -17.222  -0.641  0.00  0.00    -0.040 A 
ATOM     29  C   UNL d   1      23.313 -16.465  -0.876  0.00  0.00     0.010 A 
ATOM     30  C   UNL d   1      22.045 -17.072  -0.892  0.00  0.00     0.018 A 
ATOM     31  C   UNL d   1      21.916 -18.458  -0.736  0.00  0.00     0.039 A 
ATOM     32  C   UNL d   1      23.060 -19.225  -0.536  0.00  0.00     0.018 A 
ATOM     33  C   UNL d   1      24.319 -18.612  -0.496  0.00  0.00     0.010 A 
BRANCH  31  34
ATOM     34  C   UNL d   1      20.601 -19.110  -0.945  0.00  0.00     0.292 C 
ATOM     35  O   UNL d   1      20.320 -19.704  -1.984  0.00  0.00    -0.259 OA
BRANCH  34  36
ATOM     36  O   UNL d   1      19.790 -18.967   0.132  0.00  0.00    -0.323 OA
ATOM     37  C   UNL d   1      19.277 -20.205   0.644  0.00  0.00     0.213 C 
ENDBRANCH  34  36
ENDBRANCH  31  34
ENDBRANCH  27  28
ENDBRANCH  23  27
ENDBRANCH   1  21
TORSDOF 8
ENDMDL
MODEL 6
REMARK VINA RESULT:    -9.251      2.361     10.618
REMARK INTER + INTRA:         -12.315
REMARK INTER:                 -11.637
REMARK INTRA:                  -0.678
REMARK CONF_INDEPENDENT:        2.386
REMARK UNBOUND:                -0.678
REMARK  8 active torsions:
REMARK  status: ('A' for Active; 'I' for Inactive)
REMARK    1  A    between atoms: O_2  and  C_3 
REMARK    2  A    between atoms: C_3  and  C_5 
REMARK    3  A    between atoms: C_8  and  C_9 
REMARK    4  A    between atoms: C_9  and  N_10 
REMARK       I    between atoms: N_10  and  C_11 
REMARK       I    between atoms: C_11  and  N_13 
REMARK    5  A    between atoms: C_14  and  N_13 
REMARK    6  A    between atoms: C_14  and  C_16 
REMARK    7  A    between atoms: C_19  and  N_20 
REMARK       I    between atoms: N_20  and  C_21 
REMARK       I    between atoms: C_21  and  N_23 
REMARK    8  A    between atoms: N_23  and  C_24 
ROOT
ATOM      1  C   UNL d   1      28.667 -15.073   0.896  0.00  0.00     0.115 C 
ATOM      2  C   UNL d   1      29.673 -14.733  -0.207  0.00  0.00     0.037 C 
ENDROOT
BRANCH   1   3
ATOM      3  C   UNL d   1      27.509 -15.874   0.317  0.00  0.00    -0.036 A 
ATOM      4  C   UNL d   1      27.269 -17.242   0.512  0.00  0.00     0.011 A 
ATOM      5  C   UNL d   1      26.183 -17.898  -0.119  0.00  0.00     0.030 A 
ATOM      6  C   UNL d   1      25.256 -17.178  -0.882  0.00  0.00     0.036 A 
ATOM      7  C   UNL d   1      25.517 -15.817  -1.064  0.00  0.00     0.030 A 
ATOM      8  C   UNL d   1      26.606 -15.178  -0.483  0.00  0.00     0.011 A 
BRANCH   6   9
ATOM      9  N   UNL d   1      24.078 -17.803  -1.413  0.00  0.00    -0.309 N 
ATOM     10  C   UNL d   1      23.029 -18.254  -0.618  0.00  0.00     0.325 C 
ATOM     11  O   UNL d   1      22.998 -18.143   0.605  0.00  0.00    -0.247 OA
ATOM     12  N   UNL d   1      21.987 -18.883  -1.284  0.00  0.00    -0.309 N 
ATOM     13  H   UNL d   1      22.149 -19.282  -2.194  0.00  0.00     0.170 HD
ATOM     14  H   UNL d   1      24.065 -17.993  -2.405  0.00  0.00     0.170 HD
BRANCH  12  15
ATOM     15  C   UNL d   1      20.860 -19.359  -0.540  0.00  0.00     0.036 A 
ATOM     16  C   UNL d   1      19.653 -19.655  -1.179  0.00  0.00     0.029 A 
ATOM     17  C   UNL d   1      18.542 -20.076  -0.430  0.00  0.00     0.002 A 
ATOM     18  C   UNL d   1      18.637 -20.242   0.953  0.00  0.00     0.000 A 
ATOM     19  C   UNL d   1      19.837 -19.962   1.595  0.00  0.00     0.002 A 
ATOM     20  C   UNL d   1      20.937 -19.524   0.852  0.00  0.00     0.029 A 
ENDBRANCH  12  15
ENDBRANCH   6   9
ENDBRANCH   1   3
BRANCH   1  21
ATOM     21  N   UNL d   1      28.271 -13.885   1.637  0.00  0.00    -0.335 N 
ATOM     22  C   UNL d   1      27.815 -13.811   2.920  0.00  0.00     0.316 C 
ATOM     23  N   UNL d   1      28.077 -14.894   3.694  0.00  0.00    -0.339 N 
ATOM     24  O   UNL d   1      27.226 -12.808   3.312  0.00  0.00    -0.247 OA
ATOM     25  H   UNL d   1      28.807 -15.480   3.349  0.00  0.00     0.164 HD
ATOM     26  H   UNL d   1      28.173 -13.012   1.140  0.00  0.00     0.165 HD
BRANCH  23  27
ATOM     27  C   UNL d   1      27.773 -14.959   5.111  0.00  0.00     0.162 C 
BRANCH  27  28
ATOM     28  C   UNL d   1      28.385 -13.831   5.937  0.00  0.00    -0.040 A 
ATOM     29  C   UNL d   1      29.597 -14.054   6.613  0.00  0.00     0.010 A 
ATOM     30  C   UNL d   1      30.132 -13.084   7.480  0.00  0.00     0.018 A 
ATOM     31  C   UNL d   1      29.499 -11.845   7.640  0.00  0.00     0.039 A 
ATOM     32  C   UNL d   1      28.315 -11.596   6.951  0.00  0.00     0.018 A 
ATOM     33  C   UNL d   1      27.774 -12.576   6.108  0.00  0.00     0.010 A 
BRANCH  31  34
ATOM     34  C   UNL d   1      30.167 -10.762   8.401  0.00  0.00     0.292 C 
ATOM     35  O   UNL d   1      31.065 -10.075   7.916  0.00  0.00    -0.259 OA
BRANCH  34  36
ATOM     36  O   UNL d   1      29.662 -10.640   9.653  0.00  0.00    -0.323 OA
ATOM     37  C   UNL d   1      30.212 -11.568  10.597  0.00  0.00     0.213 C 
ENDBRANCH  34  36
ENDBRANCH  31  34
ENDBRANCH  27  28
ENDBRANCH  23  27
ENDBRANCH   1  21
TORSDOF 8
ENDMDL
MODEL 7
REMARK VINA RESULT:    -8.723      5.725      9.174
REMARK INTER + INTRA:         -12.316
REMARK INTER:                 -11.110
REMARK INTRA:                  -1.207
REMARK CONF_INDEPENDENT:        2.386
REMARK UNBOUND:                -1.207
REMARK  8 active torsions:
REMARK  status: ('A' for Active; 'I' for Inactive)
REMARK    1  A    between atoms: O_2  and  C_3 
REMARK    2  A    between atoms: C_3  and  C_5 
REMARK    3  A    between atoms: C_8  and  C_9 
REMARK    4  A    between atoms: C_9  and  N_10 
REMARK       I    between atoms: N_10  and  C_11 
REMARK       I    between atoms: C_11  and  N_13 
REMARK    5  A    between atoms: C_14  and  N_13 
REMARK    6  A    between atoms: C_14  and  C_16 
REMARK    7  A    between atoms: C_19  and  N_20 
REMARK       I    between atoms: N_20  and  C_21 
REMARK       I    between atoms: C_21  and  N_23 
REMARK    8  A    between atoms: N_23  and  C_24 
ROOT
ATOM      1  C   UNL d   1      27.834 -15.573  -4.224  0.00  0.00     0.115 C 
ATOM      2  C   UNL d   1      28.794 -15.531  -5.416  0.00  0.00     0.037 C 
ENDROOT
BRANCH   1   3
ATOM      3  C   UNL d   1      27.298 -14.179  -3.936  0.00  0.00    -0.036 A 
ATOM      4  C   UNL d   1      28.044 -13.082  -3.480  0.00  0.00     0.011 A 
ATOM      5  C   UNL d   1      27.430 -11.838  -3.195  0.00  0.00     0.030 A 
ATOM      6  C   UNL d   1      26.068 -11.635  -3.454  0.00  0.00     0.036 A 
ATOM      7  C   UNL d   1      25.345 -12.742  -3.905  0.00  0.00     0.030 A 
ATOM      8  C   UNL d   1      25.935 -13.978  -4.143  0.00  0.00     0.011 A 
BRANCH   6   9
ATOM      9  N   UNL d   1      25.463 -10.343  -3.300  0.00  0.00    -0.309 N 
ATOM     10  C   UNL d   1      25.156  -9.511  -4.372  0.00  0.00     0.325 C 
ATOM     11  O   UNL d   1      25.354  -9.806  -5.548  0.00  0.00    -0.247 OA
ATOM     12  N   UNL d   1      24.621  -8.273  -4.048  0.00  0.00    -0.309 N 
ATOM     13  H   UNL d   1      24.776  -7.889  -3.130  0.00  0.00     0.170 HD
ATOM     14  H   UNL d   1      25.337 -10.003  -2.357  0.00  0.00     0.170 HD
BRANCH  12  15
ATOM     15  C   UNL d   1      24.262  -7.364  -5.094  0.00  0.00     0.036 A 
ATOM     16  C   UNL d   1      23.540  -7.804  -6.208  0.00  0.00     0.029 A 
ATOM     17  C   UNL d   1      23.237  -6.911  -7.250  0.00  0.00     0.002 A 
ATOM     18  C   UNL d   1      23.613  -5.570  -7.170  0.00  0.00     0.000 A 
ATOM     19  C   UNL d   1      24.318  -5.121  -6.060  0.00  0.00     0.002 A 
ATOM     20  C   UNL d   1      24.639  -6.013  -5.033  0.00  0.00     0.029 A 
ENDBRANCH  12  15
ENDBRANCH   6   9
ENDBRANCH   1   3
BRANCH   1  21
ATOM     21  N   UNL d   1      28.440 -16.237  -3.079  0.00  0.00    -0.335 N 
ATOM     22  C   UNL d   1      27.941 -16.350  -1.815  0.00  0.00     0.316 C 
ATOM     23  N   UNL d   1      26.608 -16.125  -1.694  0.00  0.00    -0.339 N 
ATOM     24  O   UNL d   1      28.678 -16.651  -0.882  0.00  0.00    -0.247 OA
ATOM     25  H   UNL d   1      26.099 -16.195  -2.549  0.00  0.00     0.164 HD
ATOM     26  H   UNL d   1      29.400 -16.541  -3.145  0.00  0.00     0.165 HD
BRANCH  23  27
ATOM     27  C   UNL d   1      25.874 -16.307  -0.456  0.00  0.00     0.162 C 
BRANCH  27  28
ATOM     28  C   UNL d   1      24.582 -17.104  -0.604  0.00  0.00    -0.040 A 
ATOM     29  C   UNL d   1      23.376 -16.422  -0.842  0.00  0.00     0.010 A 
ATOM     30  C   UNL d   1      22.147 -17.107  -0.864  0.00  0.00     0.018 A 
ATOM     31  C   UNL d   1      22.105 -18.498  -0.711  0.00  0.00     0.039 A 
ATOM     32  C   UNL d   1      23.294 -19.192  -0.507  0.00  0.00     0.018 A 
ATOM     33  C   UNL d   1      24.513 -18.502  -0.461  0.00  0.00     0.010 A 
BRANCH  31  34
ATOM     34  C   UNL d   1      20.834 -19.230  -0.927  0.00  0.00     0.292 C 
ATOM     35  O   UNL d   1      20.524 -19.699  -2.020  0.00  0.00    -0.259 OA
BRANCH  34  36
ATOM     36  O   UNL d   1      20.100 -19.312   0.210  0.00  0.00    -0.323 OA
ATOM     37  C   UNL d   1      18.931 -20.135   0.092  0.00  0.00     0.213 C 
ENDBRANCH  34  36
ENDBRANCH  31  34
ENDBRANCH  27  28
ENDBRANCH  23  27
ENDBRANCH   1  21
TORSDOF 8
ENDMDL
MODEL 8
REMARK VINA RESULT:    -8.580      5.713      7.342
REMARK INTER + INTRA:         -12.232
REMARK INTER:                 -10.967
REMARK INTRA:                  -1.265
REMARK CONF_INDEPENDENT:        2.386
REMARK UNBOUND:                -1.265
REMARK  8 active torsions:
REMARK  status: ('A' for Active; 'I' for Inactive)
REMARK    1  A    between atoms: O_2  and  C_3 
REMARK    2  A    between atoms: C_3  and  C_5 
REMARK    3  A    between atoms: C_8  and  C_9 
REMARK    4  A    between atoms: C_9  and  N_10 
REMARK       I    between atoms: N_10  and  C_11 
REMARK       I    between atoms: C_11  and  N_13 
REMARK    5  A    between atoms: C_14  and  N_13 
REMARK    6  A    between atoms: C_14  and  C_16 
REMARK    7  A    between atoms: C_19  and  N_20 
REMARK       I    between atoms: N_20  and  C_21 
REMARK       I    between atoms: C_21  and  N_23 
REMARK    8  A    between atoms: N_23  and  C_24 
ROOT
ATOM      1  C   UNL d   1      27.758 -15.576  -4.349  0.00  0.00     0.115 C 
ATOM      2  C   UNL d   1      28.675 -15.575  -5.575  0.00  0.00     0.037 C 
ENDROOT
BRANCH   1   3
ATOM      3  C   UNL d   1      27.055 -14.232  -4.221  0.00  0.00    -0.036 A 
ATOM      4  C   UNL d   1      25.704 -14.032  -3.900  0.00  0.00     0.011 A 
ATOM      5  C   UNL d   1      25.140 -12.732  -3.858  0.00  0.00     0.030 A 
ATOM      6  C   UNL d   1      25.941 -11.598  -4.041  0.00  0.00     0.036 A 
ATOM      7  C   UNL d   1      27.281 -11.822  -4.363  0.00  0.00     0.030 A 
ATOM      8  C   UNL d   1      27.829 -13.097  -4.450  0.00  0.00     0.011 A 
BRANCH   6   9
ATOM      9  N   UNL d   1      25.412 -10.275  -3.867  0.00  0.00    -0.309 N 
ATOM     10  C   UNL d   1      25.855  -9.400  -2.879  0.00  0.00     0.325 C 
ATOM     11  O   UNL d   1      26.748  -9.665  -2.078  0.00  0.00    -0.247 OA
ATOM     12  N   UNL d   1      25.204  -8.177  -2.812  0.00  0.00    -0.309 N 
ATOM     13  H   UNL d   1      24.280  -8.084  -3.203  0.00  0.00     0.170 HD
ATOM     14  H   UNL d   1      24.625 -10.014  -4.443  0.00  0.00     0.170 HD
BRANCH  12  15
ATOM     15  C   UNL d   1      25.611  -7.214  -1.835  0.00  0.00     0.036 A 
ATOM     16  C   UNL d   1      25.154  -7.293  -0.517  0.00  0.00     0.029 A 
ATOM     17  C   UNL d   1      25.525  -6.312   0.419  0.00  0.00     0.002 A 
ATOM     18  C   UNL d   1      26.383  -5.273   0.058  0.00  0.00     0.000 A 
ATOM     19  C   UNL d   1      26.853  -5.194  -1.247  0.00  0.00     0.002 A 
ATOM     20  C   UNL d   1      26.468  -6.157  -2.183  0.00  0.00     0.029 A 
ENDBRANCH  12  15
ENDBRANCH   6   9
ENDBRANCH   1   3
BRANCH   1  21
ATOM     21  N   UNL d   1      28.472 -16.001  -3.154  0.00  0.00    -0.335 N 
ATOM     22  C   UNL d   1      28.006 -16.054  -1.874  0.00  0.00     0.316 C 
ATOM     23  N   UNL d   1      26.656 -16.038  -1.745  0.00  0.00    -0.339 N 
ATOM     24  O   UNL d   1      28.789 -16.125  -0.931  0.00  0.00    -0.247 OA
ATOM     25  H   UNL d   1      26.160 -16.284  -2.575  0.00  0.00     0.164 HD
ATOM     26  H   UNL d   1      29.469 -16.148  -3.210  0.00  0.00     0.165 HD
BRANCH  23  27
ATOM     27  C   UNL d   1      25.969 -16.199  -0.477  0.00  0.00     0.162 C 
BRANCH  27  28
ATOM     28  C   UNL d   1      24.706 -17.052  -0.551  0.00  0.00    -0.040 A 
ATOM     29  C   UNL d   1      23.492 -16.452  -0.930  0.00  0.00     0.010 A 
ATOM     30  C   UNL d   1      22.285 -17.173  -0.895  0.00  0.00     0.018 A 
ATOM     31  C   UNL d   1      22.274 -18.527  -0.540  0.00  0.00     0.039 A 
ATOM     32  C   UNL d   1      23.473 -19.145  -0.194  0.00  0.00     0.018 A 
ATOM     33  C   UNL d   1      24.669 -18.415  -0.207  0.00  0.00     0.010 A 
BRANCH  31  34
ATOM     34  C   UNL d   1      21.034 -19.325  -0.690  0.00  0.00     0.292 C 
ATOM     35  O   UNL d   1      20.496 -19.503  -1.781  0.00  0.00    -0.259 OA
BRANCH  34  36
ATOM     36  O   UNL d   1      20.602 -19.814   0.498  0.00  0.00    -0.323 OA
ATOM     37  C   UNL d   1      19.182 -19.731   0.681  0.00  0.00     0.213 C 
ENDBRANCH  34  36
ENDBRANCH  31  34
ENDBRANCH  27  28
ENDBRANCH  23  27
ENDBRANCH   1  21
TORSDOF 8
ENDMDL
MODEL 9
REMARK VINA RESULT:    -8.474      5.796      9.261
REMARK INTER + INTRA:         -12.171
REMARK INTER:                 -10.861
REMARK INTRA:                  -1.310
REMARK CONF_INDEPENDENT:        2.386
REMARK UNBOUND:                -1.310
REMARK  8 active torsions:
REMARK  status: ('A' for Active; 'I' for Inactive)
REMARK    1  A    between atoms: O_2  and  C_3 
REMARK    2  A    between atoms: C_3  and  C_5 
REMARK    3  A    between atoms: C_8  and  C_9 
REMARK    4  A    between atoms: C_9  and  N_10 
REMARK       I    between atoms: N_10  and  C_11 
REMARK       I    between atoms: C_11  and  N_13 
REMARK    5  A    between atoms: C_14  and  N_13 
REMARK    6  A    between atoms: C_14  and  C_16 
REMARK    7  A    between atoms: C_19  and  N_20 
REMARK       I    between atoms: N_20  and  C_21 
REMARK       I    between atoms: C_21  and  N_23 
REMARK    8  A    between atoms: N_23  and  C_24 
ROOT
ATOM      1  C   UNL d   1      26.468 -12.252  -2.725  0.00  0.00     0.115 C 
ATOM      2  C   UNL d   1      27.983 -12.076  -2.593  0.00  0.00     0.037 C 
ENDROOT
BRANCH   1   3
ATOM      3  C   UNL d   1      26.046 -13.597  -2.150  0.00  0.00    -0.036 A 
ATOM      4  C   UNL d   1      26.415 -14.115  -0.900  0.00  0.00     0.011 A 
ATOM      5  C   UNL d   1      26.004 -15.406  -0.485  0.00  0.00     0.030 A 
ATOM      6  C   UNL d   1      25.132 -16.167  -1.273  0.00  0.00     0.036 A 
ATOM      7  C   UNL d   1      24.780 -15.632  -2.514  0.00  0.00     0.030 A 
ATOM      8  C   UNL d   1      25.218 -14.385  -2.945  0.00  0.00     0.011 A 
BRANCH   6   9
ATOM      9  N   UNL d   1      24.599 -17.415  -0.805  0.00  0.00    -0.309 N 
ATOM     10  C   UNL d   1      23.238 -17.650  -0.640  0.00  0.00     0.325 C 
ATOM     11  O   UNL d   1      22.363 -16.826  -0.895  0.00  0.00    -0.247 OA
ATOM     12  N   UNL d   1      22.892 -18.893  -0.129  0.00  0.00    -0.309 N 
ATOM     13  H   UNL d   1      23.570 -19.421   0.396  0.00  0.00     0.170 HD
ATOM     14  H   UNL d   1      25.263 -18.116  -0.506  0.00  0.00     0.170 HD
BRANCH  12  15
ATOM     15  C   UNL d   1      21.510 -19.220   0.053  0.00  0.00     0.036 A 
ATOM     16  C   UNL d   1      20.671 -19.427  -1.045  0.00  0.00     0.029 A 
ATOM     17  C   UNL d   1      19.307 -19.700  -0.851  0.00  0.00     0.002 A 
ATOM     18  C   UNL d   1      18.779 -19.808   0.437  0.00  0.00     0.000 A 
ATOM     19  C   UNL d   1      19.609 -19.617   1.535  0.00  0.00     0.002 A 
ATOM     20  C   UNL d   1      20.962 -19.325   1.342  0.00  0.00     0.029 A 
ENDBRANCH  12  15
ENDBRANCH   6   9
ENDBRANCH   1   3
BRANCH   1  21
ATOM     21  N   UNL d   1      26.023 -12.011  -4.090  0.00  0.00    -0.335 N 
ATOM     22  C   UNL d   1      26.657 -12.347  -5.249  0.00  0.00     0.316 C 
ATOM     23  N   UNL d   1      27.621 -13.294  -5.131  0.00  0.00    -0.339 N 
ATOM     24  O   UNL d   1      26.337 -11.815  -6.308  0.00  0.00    -0.247 OA
ATOM     25  H   UNL d   1      27.562 -13.841  -4.299  0.00  0.00     0.164 HD
ATOM     26  H   UNL d   1      25.230 -11.406  -4.243  0.00  0.00     0.165 HD
BRANCH  23  27
ATOM     27  C   UNL d   1      28.328 -13.864  -6.263  0.00  0.00     0.162 C 
BRANCH  27  28
ATOM     28  C   UNL d   1      29.051 -15.173  -5.958  0.00  0.00    -0.040 A 
ATOM     29  C   UNL d   1      28.912 -15.755  -4.686  0.00  0.00     0.010 A 
ATOM     30  C   UNL d   1      29.654 -16.894  -4.325  0.00  0.00     0.018 A 
ATOM     31  C   UNL d   1      30.505 -17.512  -5.249  0.00  0.00     0.039 A 
ATOM     32  C   UNL d   1      30.628 -16.966  -6.524  0.00  0.00     0.018 A 
ATOM     33  C   UNL d   1      29.906 -15.817  -6.870  0.00  0.00     0.010 A 
BRANCH  31  34
ATOM     34  C   UNL d   1      31.133 -18.815  -4.925  0.00  0.00     0.292 C 
ATOM     35  O   UNL d   1      32.306 -18.908  -4.569  0.00  0.00    -0.259 OA
BRANCH  34  36
ATOM     36  O   UNL d   1      30.261 -19.843  -5.065  0.00  0.00    -0.323 OA
ATOM     37  C   UNL d   1      30.784 -21.113  -4.650  0.00  0.00     0.213 C 
ENDBRANCH  34  36
ENDBRANCH  31  34
ENDBRANCH  27  28
ENDBRANCH  23  27
ENDBRANCH   1  21
TORSDOF 8
ENDMDL
