MODEL 1
REMARK VINA RESULT:    -9.472      0.000      0.000
REMARK INTER + INTRA:         -11.926
REMARK INTER:                 -11.262
REMARK INTRA:                  -0.663
REMARK CONF_INDEPENDENT:        1.790
REMARK UNBOUND:                -0.663
REMARK  6 active torsions:
REMARK  status: ('A' for Active; 'I' for Inactive)
REMARK    1  A    between atoms: C_2  and  C_3 
REMARK       I    between atoms: C_2  and  N_14 
REMARK    2  A    between atoms: C_4  and  C_5 
REMARK    3  A    between atoms: C_8  and  N_9 
REMARK    4  A    between atoms: N_14  and  C_15 
REMARK    5  A    between atoms: C_19  and  N_20 
REMARK       I    between atoms: N_20  and  C_21 
REMARK    6  A    between atoms: C_21  and  C_23 
ROOT
ATOM      1  O   UNL d   1      29.448 -16.761   0.258  0.00  0.00    -0.268 OA
ATOM      2  C   UNL d   1      28.272 -16.422   0.144  0.00  0.00     0.245 C 
ATOM      3  N   UNL d   1      27.316 -17.340  -0.253  0.00  0.00    -0.324 N 
ATOM      4  H   UNL d   1      27.671 -18.280  -0.375  0.00  0.00     0.169 HD
ENDROOT
BRANCH   3   5
ATOM      5  C   UNL d   1      25.974 -17.108  -0.602  0.00  0.00     0.037 A 
ATOM      6  C   UNL d   1      25.577 -16.012  -1.350  0.00  0.00     0.029 A 
ATOM      7  C   UNL d   1      24.217 -15.849  -1.660  0.00  0.00     0.004 A 
ATOM      8  C   UNL d   1      23.264 -16.807  -1.261  0.00  0.00     0.029 A 
ATOM      9  C   UNL d   1      23.661 -17.886  -0.474  0.00  0.00     0.036 A 
ATOM     10  C   UNL d   1      25.001 -17.972  -0.128  0.00  0.00     0.059 A 
BRANCH   9  11
ATOM     11  N   UNL d   1      22.743 -18.852  -0.001  0.00  0.00    -0.327 N 
ATOM     12  C   UNL d   1      21.379 -18.847  -0.269  0.00  0.00     0.226 C 
ATOM     13  O   UNL d   1      20.740 -18.004  -0.895  0.00  0.00    -0.273 OA
ATOM     14  H   UNL d   1      23.122 -19.606   0.555  0.00  0.00     0.169 HD
BRANCH  12  15
ATOM     15  C   UNL d   1      20.579 -19.978   0.239  0.00  0.00     0.078 A 
ATOM     16  C   UNL d   1      19.472 -19.880   1.241  0.00  0.00     0.015 A 
ATOM     17  C   UNL d   1      19.140 -20.092  -0.211  0.00  0.00     0.015 A 
ENDBRANCH  12  15
ENDBRANCH   9  11
ENDBRANCH   3   5
BRANCH   2  18
ATOM     18  C   UNL d   1      27.822 -15.053   0.544  0.00  0.00     0.075 C 
ATOM     19  C   UNL d   1      28.114 -14.465   1.714  0.00  0.00     0.017 C 
BRANCH  19  20
ATOM     20  C   UNL d   1      27.603 -13.121   2.047  0.00  0.00    -0.036 A 
ATOM     21  C   UNL d   1      27.000 -12.323   1.065  0.00  0.00     0.014 A 
ATOM     22  C   UNL d   1      26.655 -10.990   1.339  0.00  0.00     0.037 A 
ATOM     23  C   UNL d   1      26.829 -10.481   2.633  0.00  0.00     0.102 A 
ATOM     24  C   UNL d   1      27.405 -11.270   3.630  0.00  0.00     0.037 A 
ATOM     25  C   UNL d   1      27.792 -12.578   3.330  0.00  0.00     0.014 A 
BRANCH  23  26
ATOM     26  N   UNL d   1      26.354  -9.132   2.964  0.00  0.00    -0.116 N 
ATOM     27  O   UNL d   1      26.957  -8.506   3.846  0.00  0.00    -0.532 OA
ATOM     28  O   UNL d   1      25.389  -8.688   2.323  0.00  0.00    -0.532 OA
ENDBRANCH  23  26
ENDBRANCH  19  20
ENDBRANCH   2  18
TORSDOF 6
ENDMDL
MODEL 2
REMARK VINA RESULT:    -8.871      1.992      2.764
REMARK INTER + INTRA:         -11.722
REMARK INTER:                 -10.661
REMARK INTRA:                  -1.061
REMARK CONF_INDEPENDENT:        1.790
REMARK UNBOUND:                -1.061
REMARK  6 active torsions:
REMARK  status: ('A' for Active; 'I' for Inactive)
REMARK    1  A    between atoms: C_2  and  C_3 
REMARK       I    between atoms: C_2  and  N_14 
REMARK    2  A    between atoms: C_4  and  C_5 
REMARK    3  A    between atoms: C_8  and  N_9 
REMARK    4  A    between atoms: N_14  and  C_15 
REMARK    5  A    between atoms: C_19  and  N_20 
REMARK       I    between atoms: N_20  and  C_21 
REMARK    6  A    between atoms: C_21  and  C_23 
ROOT
ATOM      1  O   UNL d   1      25.183 -14.451  -4.505  0.00  0.00    -0.268 OA
ATOM      2  C   UNL d   1      25.259 -14.870  -3.352  0.00  0.00     0.245 C 
ATOM      3  N   UNL d   1      25.205 -16.229  -3.097  0.00  0.00    -0.324 N 
ATOM      4  H   UNL d   1      25.155 -16.804  -3.929  0.00  0.00     0.169 HD
ENDROOT
BRANCH   3   5
ATOM      5  C   UNL d   1      25.103 -16.882  -1.856  0.00  0.00     0.037 A 
ATOM      6  C   UNL d   1      26.096 -16.810  -0.892  0.00  0.00     0.029 A 
ATOM      7  C   UNL d   1      25.920 -17.489   0.324  0.00  0.00     0.004 A 
ATOM      8  C   UNL d   1      24.734 -18.200   0.592  0.00  0.00     0.029 A 
ATOM      9  C   UNL d   1      23.756 -18.305  -0.396  0.00  0.00     0.036 A 
ATOM     10  C   UNL d   1      23.999 -17.680  -1.610  0.00  0.00     0.059 A 
BRANCH   9  11
ATOM     11  N   UNL d   1      22.567 -19.045  -0.205  0.00  0.00    -0.327 N 
ATOM     12  C   UNL d   1      21.313 -18.664  -0.667  0.00  0.00     0.226 C 
ATOM     13  O   UNL d   1      21.013 -17.628  -1.256  0.00  0.00    -0.273 OA
ATOM     14  H   UNL d   1      22.652 -19.922   0.290  0.00  0.00     0.169 HD
BRANCH  12  15
ATOM     15  C   UNL d   1      20.192 -19.596  -0.447  0.00  0.00     0.078 A 
ATOM     16  C   UNL d   1      20.137 -20.659   0.606  0.00  0.00     0.015 A 
ATOM     17  C   UNL d   1      19.332 -19.401   0.782  0.00  0.00     0.015 A 
ENDBRANCH  12  15
ENDBRANCH   9  11
ENDBRANCH   3   5
BRANCH   2  18
ATOM     18  C   UNL d   1      25.532 -13.942  -2.211  0.00  0.00     0.075 C 
ATOM     19  C   UNL d   1      26.756 -13.581  -1.798  0.00  0.00     0.017 C 
BRANCH  19  20
ATOM     20  C   UNL d   1      26.942 -12.685  -0.640  0.00  0.00    -0.036 A 
ATOM     21  C   UNL d   1      26.599 -13.107   0.652  0.00  0.00     0.014 A 
ATOM     22  C   UNL d   1      26.627 -12.208   1.729  0.00  0.00     0.037 A 
ATOM     23  C   UNL d   1      27.092 -10.901   1.530  0.00  0.00     0.102 A 
ATOM     24  C   UNL d   1      27.462 -10.471   0.254  0.00  0.00     0.037 A 
ATOM     25  C   UNL d   1      27.379 -11.360  -0.819  0.00  0.00     0.014 A 
BRANCH  23  26
ATOM     26  N   UNL d   1      27.248  -9.992   2.673  0.00  0.00    -0.116 N 
ATOM     27  O   UNL d   1      26.277  -9.293   2.992  0.00  0.00    -0.532 OA
ATOM     28  O   UNL d   1      28.337  -9.996   3.266  0.00  0.00    -0.532 OA
ENDBRANCH  23  26
ENDBRANCH  19  20
ENDBRANCH   2  18
TORSDOF 6
ENDMDL
MODEL 3
REMARK VINA RESULT:    -8.670      4.524      7.169
REMARK INTER + INTRA:         -11.160
REMARK INTER:                 -10.460
REMARK INTRA:                  -0.700
REMARK CONF_INDEPENDENT:        1.790
REMARK UNBOUND:                -0.700
REMARK  6 active torsions:
REMARK  status: ('A' for Active; 'I' for Inactive)
REMARK    1  A    between atoms: C_2  and  C_3 
REMARK       I    between atoms: C_2  and  N_14 
REMARK    2  A    between atoms: C_4  and  C_5 
REMARK    3  A    between atoms: C_8  and  N_9 
REMARK    4  A    between atoms: N_14  and  C_15 
REMARK    5  A    between atoms: C_19  and  N_20 
REMARK       I    between atoms: N_20  and  C_21 
REMARK    6  A    between atoms: C_21  and  C_23 
ROOT
ATOM      1  O   UNL d   1      24.689 -13.401  -3.923  0.00  0.00    -0.268 OA
ATOM      2  C   UNL d   1      25.074 -14.446  -3.402  0.00  0.00     0.245 C 
ATOM      3  N   UNL d   1      24.330 -15.043  -2.400  0.00  0.00    -0.324 N 
ATOM      4  H   UNL d   1      23.455 -14.575  -2.200  0.00  0.00     0.169 HD
ENDROOT
BRANCH   3   5
ATOM      5  C   UNL d   1      24.684 -16.126  -1.575  0.00  0.00     0.037 A 
ATOM      6  C   UNL d   1      25.965 -16.295  -1.076  0.00  0.00     0.029 A 
ATOM      7  C   UNL d   1      26.241 -17.403  -0.258  0.00  0.00     0.004 A 
ATOM      8  C   UNL d   1      25.224 -18.312   0.097  0.00  0.00     0.029 A 
ATOM      9  C   UNL d   1      23.948 -18.161  -0.440  0.00  0.00     0.036 A 
ATOM     10  C   UNL d   1      23.734 -17.096  -1.302  0.00  0.00     0.059 A 
BRANCH   9  11
ATOM     11  N   UNL d   1      22.900 -19.068  -0.161  0.00  0.00    -0.327 N 
ATOM     12  C   UNL d   1      21.557 -18.836  -0.435  0.00  0.00     0.226 C 
ATOM     13  O   UNL d   1      21.051 -17.818  -0.901  0.00  0.00    -0.273 OA
ATOM     14  H   UNL d   1      23.162 -19.953   0.250  0.00  0.00     0.169 HD
BRANCH  12  15
ATOM     15  C   UNL d   1      20.605 -19.926  -0.150  0.00  0.00     0.078 A 
ATOM     16  C   UNL d   1      19.568 -19.916   0.929  0.00  0.00     0.015 A 
ATOM     17  C   UNL d   1      19.150 -19.712  -0.501  0.00  0.00     0.015 A 
ENDBRANCH  12  15
ENDBRANCH   9  11
ENDBRANCH   3   5
BRANCH   2  18
ATOM     18  C   UNL d   1      26.285 -15.162  -3.912  0.00  0.00     0.075 C 
ATOM     19  C   UNL d   1      27.425 -14.561  -4.285  0.00  0.00     0.017 C 
BRANCH  19  20
ATOM     20  C   UNL d   1      28.565 -15.337  -4.811  0.00  0.00    -0.036 A 
ATOM     21  C   UNL d   1      28.986 -15.177  -6.138  0.00  0.00     0.014 A 
ATOM     22  C   UNL d   1      29.965 -16.022  -6.685  0.00  0.00     0.037 A 
ATOM     23  C   UNL d   1      30.592 -16.974  -5.871  0.00  0.00     0.102 A 
ATOM     24  C   UNL d   1      30.202 -17.130  -4.539  0.00  0.00     0.037 A 
ATOM     25  C   UNL d   1      29.191 -16.319  -4.022  0.00  0.00     0.014 A 
BRANCH  23  26
ATOM     26  N   UNL d   1      31.705 -17.775  -6.397  0.00  0.00    -0.116 N 
ATOM     27  O   UNL d   1      32.839 -17.553  -5.950  0.00  0.00    -0.532 OA
ATOM     28  O   UNL d   1      31.441 -18.643  -7.242  0.00  0.00    -0.532 OA
ENDBRANCH  23  26
ENDBRANCH  19  20
ENDBRANCH   2  18
TORSDOF 6
ENDMDL
MODEL 4
REMARK VINA RESULT:    -8.128      3.748      8.635
REMARK INTER + INTRA:         -10.878
REMARK INTER:                  -9.918
REMARK INTRA:                  -0.960
REMARK CONF_INDEPENDENT:        1.790
REMARK UNBOUND:                -0.960
REMARK  6 active torsions:
REMARK  status: ('A' for Active; 'I' for Inactive)
REMARK    1  A    between atoms: C_2  and  C_3 
REMARK       I    between atoms: C_2  and  N_14 
REMARK    2  A    between atoms: C_4  and  C_5 
REMARK    3  A    between atoms: C_8  and  N_9 
REMARK    4  A    between atoms: N_14  and  C_15 
REMARK    5  A    between atoms: C_19  and  N_20 
REMARK       I    between atoms: N_20  and  C_21 
REMARK    6  A    between atoms: C_21  and  C_23 
ROOT
ATOM      1  O   UNL d   1      27.914 -14.816   0.942  0.00  0.00    -0.268 OA
ATOM      2  C   UNL d   1      27.307 -14.854  -0.127  0.00  0.00     0.245 C 
ATOM      3  N   UNL d   1      27.913 -14.415  -1.291  0.00  0.00    -0.324 N 
ATOM      4  H   UNL d   1      28.877 -14.128  -1.173  0.00  0.00     0.169 HD
ENDROOT
BRANCH   3   5
ATOM      5  C   UNL d   1      27.334 -14.221  -2.558  0.00  0.00     0.037 A 
ATOM      6  C   UNL d   1      27.345 -15.198  -3.539  0.00  0.00     0.029 A 
ATOM      7  C   UNL d   1      26.745 -14.929  -4.780  0.00  0.00     0.004 A 
ATOM      8  C   UNL d   1      26.095 -13.703  -5.020  0.00  0.00     0.029 A 
ATOM      9  C   UNL d   1      26.122 -12.707  -4.045  0.00  0.00     0.036 A 
ATOM     10  C   UNL d   1      26.788 -12.985  -2.861  0.00  0.00     0.059 A 
BRANCH   9  11
ATOM     11  N   UNL d   1      25.531 -11.439  -4.246  0.00  0.00    -0.327 N 
ATOM     12  C   UNL d   1      25.912 -10.275  -3.589  0.00  0.00     0.226 C 
ATOM     13  O   UNL d   1      26.762 -10.152  -2.710  0.00  0.00    -0.273 OA
ATOM     14  H   UNL d   1      24.792 -11.385  -4.932  0.00  0.00     0.169 HD
BRANCH  12  15
ATOM     15  C   UNL d   1      25.240  -9.020  -3.978  0.00  0.00     0.078 A 
ATOM     16  C   UNL d   1      25.832  -7.946  -4.836  0.00  0.00     0.015 A 
ATOM     17  C   UNL d   1      24.792  -8.867  -5.414  0.00  0.00     0.015 A 
ENDBRANCH  12  15
ENDBRANCH   9  11
ENDBRANCH   3   5
BRANCH   2  18
ATOM     18  C   UNL d   1      25.954 -15.483  -0.222  0.00  0.00     0.075 C 
ATOM     19  C   UNL d   1      25.733 -16.799  -0.361  0.00  0.00     0.017 C 
BRANCH  19  20
ATOM     20  C   UNL d   1      24.364 -17.340  -0.482  0.00  0.00    -0.036 A 
ATOM     21  C   UNL d   1      24.142 -18.723  -0.499  0.00  0.00     0.014 A 
ATOM     22  C   UNL d   1      22.865 -19.239  -0.771  0.00  0.00     0.037 A 
ATOM     23  C   UNL d   1      21.784 -18.363  -0.934  0.00  0.00     0.102 A 
ATOM     24  C   UNL d   1      21.983 -16.981  -0.894  0.00  0.00     0.037 A 
ATOM     25  C   UNL d   1      23.268 -16.481  -0.676  0.00  0.00     0.014 A 
BRANCH  23  26
ATOM     26  N   UNL d   1      20.423 -18.893  -1.089  0.00  0.00    -0.116 N 
ATOM     27  O   UNL d   1      20.299 -20.074  -1.440  0.00  0.00    -0.532 OA
ATOM     28  O   UNL d   1      19.477 -18.132  -0.838  0.00  0.00    -0.532 OA
ENDBRANCH  23  26
ENDBRANCH  19  20
ENDBRANCH   2  18
TORSDOF 6
ENDMDL
MODEL 5
REMARK VINA RESULT:    -7.858      3.803      8.568
REMARK INTER + INTRA:         -10.572
REMARK INTER:                  -9.648
REMARK INTRA:                  -0.924
REMARK CONF_INDEPENDENT:        1.790
REMARK UNBOUND:                -0.924
REMARK  6 active torsions:
REMARK  status: ('A' for Active; 'I' for Inactive)
REMARK    1  A    between atoms: C_2  and  C_3 
REMARK       I    between atoms: C_2  and  N_14 
REMARK    2  A    between atoms: C_4  and  C_5 
REMARK    3  A    between atoms: C_8  and  N_9 
REMARK    4  A    between atoms: N_14  and  C_15 
REMARK    5  A    between atoms: C_19  and  N_20 
REMARK       I    between atoms: N_20  and  C_21 
REMARK    6  A    between atoms: C_21  and  C_23 
ROOT
ATOM      1  O   UNL d   1      27.982 -14.948   1.252  0.00  0.00    -0.268 OA
ATOM      2  C   UNL d   1      27.481 -15.169   0.152  0.00  0.00     0.245 C 
ATOM      3  N   UNL d   1      28.224 -14.995  -1.002  0.00  0.00    -0.324 N 
ATOM      4  H   UNL d   1      29.189 -14.735  -0.838  0.00  0.00     0.169 HD
ENDROOT
BRANCH   3   5
ATOM      5  C   UNL d   1      27.785 -15.029  -2.338  0.00  0.00     0.037 A 
ATOM      6  C   UNL d   1      26.519 -14.614  -2.717  0.00  0.00     0.029 A 
ATOM      7  C   UNL d   1      26.154 -14.677  -4.071  0.00  0.00     0.004 A 
ATOM      8  C   UNL d   1      27.072 -15.108  -5.049  0.00  0.00     0.029 A 
ATOM      9  C   UNL d   1      28.330 -15.563  -4.659  0.00  0.00     0.036 A 
ATOM     10  C   UNL d   1      28.626 -15.555  -3.305  0.00  0.00     0.059 A 
BRANCH   9  11
ATOM     11  N   UNL d   1      29.275 -16.056  -5.588  0.00  0.00    -0.327 N 
ATOM     12  C   UNL d   1      30.068 -17.180  -5.391  0.00  0.00     0.226 C 
ATOM     13  O   UNL d   1      30.127 -17.891  -4.391  0.00  0.00    -0.273 OA
ATOM     14  H   UNL d   1      29.358 -15.555  -6.462  0.00  0.00     0.169 HD
BRANCH  12  15
ATOM     15  C   UNL d   1      30.946 -17.599  -6.500  0.00  0.00     0.078 A 
ATOM     16  C   UNL d   1      32.074 -18.577  -6.396  0.00  0.00     0.015 A 
ATOM     17  C   UNL d   1      30.786 -18.999  -7.048  0.00  0.00     0.015 A 
ENDBRANCH  12  15
ENDBRANCH   9  11
ENDBRANCH   3   5
BRANCH   2  18
ATOM     18  C   UNL d   1      26.104 -15.743   0.032  0.00  0.00     0.075 C 
ATOM     19  C   UNL d   1      25.835 -17.019  -0.284  0.00  0.00     0.017 C 
BRANCH  19  20
ATOM     20  C   UNL d   1      24.446 -17.500  -0.415  0.00  0.00    -0.036 A 
ATOM     21  C   UNL d   1      24.160 -18.872  -0.384  0.00  0.00     0.014 A 
ATOM     22  C   UNL d   1      22.866 -19.339  -0.664  0.00  0.00     0.037 A 
ATOM     23  C   UNL d   1      21.831 -18.422  -0.886  0.00  0.00     0.102 A 
ATOM     24  C   UNL d   1      22.093 -17.051  -0.896  0.00  0.00     0.037 A 
ATOM     25  C   UNL d   1      23.395 -16.601  -0.668  0.00  0.00     0.014 A 
BRANCH  23  26
ATOM     26  N   UNL d   1      20.450 -18.895  -1.052  0.00  0.00    -0.116 N 
ATOM     27  O   UNL d   1      19.540 -18.203  -0.575  0.00  0.00    -0.532 OA
ATOM     28  O   UNL d   1      20.275 -19.950  -1.680  0.00  0.00    -0.532 OA
ENDBRANCH  23  26
ENDBRANCH  19  20
ENDBRANCH   2  18
TORSDOF 6
ENDMDL
MODEL 6
REMARK VINA RESULT:    -7.749      4.345      5.020
REMARK INTER + INTRA:         -10.133
REMARK INTER:                  -9.538
REMARK INTRA:                  -0.595
REMARK CONF_INDEPENDENT:        1.790
REMARK UNBOUND:                -0.595
REMARK  6 active torsions:
REMARK  status: ('A' for Active; 'I' for Inactive)
REMARK    1  A    between atoms: C_2  and  C_3 
REMARK       I    between atoms: C_2  and  N_14 
REMARK    2  A    between atoms: C_4  and  C_5 
REMARK    3  A    between atoms: C_8  and  N_9 
REMARK    4  A    between atoms: N_14  and  C_15 
REMARK    5  A    between atoms: C_19  and  N_20 
REMARK       I    between atoms: N_20  and  C_21 
REMARK    6  A    between atoms: C_21  and  C_23 
ROOT
ATOM      1  O   UNL d   1      28.750 -17.881  -0.492  0.00  0.00    -0.268 OA
ATOM      2  C   UNL d   1      27.649 -17.443  -0.818  0.00  0.00     0.245 C 
ATOM      3  N   UNL d   1      26.536 -17.698  -0.036  0.00  0.00    -0.324 N 
ATOM      4  H   UNL d   1      26.737 -18.209   0.815  0.00  0.00     0.169 HD
ENDROOT
BRANCH   3   5
ATOM      5  C   UNL d   1      25.186 -17.436  -0.326  0.00  0.00     0.037 A 
ATOM      6  C   UNL d   1      24.762 -16.241  -0.885  0.00  0.00     0.029 A 
ATOM      7  C   UNL d   1      23.395 -16.054  -1.147  0.00  0.00     0.004 A 
ATOM      8  C   UNL d   1      22.462 -17.078  -0.892  0.00  0.00     0.029 A 
ATOM      9  C   UNL d   1      22.886 -18.262  -0.291  0.00  0.00     0.036 A 
ATOM     10  C   UNL d   1      24.233 -18.379   0.018  0.00  0.00     0.059 A 
BRANCH   9  11
ATOM     11  N   UNL d   1      21.990 -19.305   0.034  0.00  0.00    -0.327 N 
ATOM     12  C   UNL d   1      20.647 -19.337  -0.324  0.00  0.00     0.226 C 
ATOM     13  O   UNL d   1      20.008 -18.472  -0.919  0.00  0.00    -0.273 OA
ATOM     14  H   UNL d   1      22.370 -20.087   0.549  0.00  0.00     0.169 HD
BRANCH  12  15
ATOM     15  C   UNL d   1      19.875 -20.543   0.031  0.00  0.00     0.078 A 
ATOM     16  C   UNL d   1      19.281 -20.832   1.374  0.00  0.00     0.015 A 
ATOM     17  C   UNL d   1      18.385 -20.397   0.247  0.00  0.00     0.015 A 
ENDBRANCH  12  15
ENDBRANCH   9  11
ENDBRANCH   3   5
BRANCH   2  18
ATOM     18  C   UNL d   1      27.499 -16.529  -1.993  0.00  0.00     0.075 C 
ATOM     19  C   UNL d   1      27.386 -15.195  -1.911  0.00  0.00     0.017 C 
BRANCH  19  20
ATOM     20  C   UNL d   1      27.207 -14.365  -3.118  0.00  0.00    -0.036 A 
ATOM     21  C   UNL d   1      27.848 -14.702  -4.319  0.00  0.00     0.014 A 
ATOM     22  C   UNL d   1      27.806 -13.832  -5.420  0.00  0.00     0.037 A 
ATOM     23  C   UNL d   1      27.041 -12.661  -5.350  0.00  0.00     0.102 A 
ATOM     24  C   UNL d   1      26.375 -12.322  -4.171  0.00  0.00     0.037 A 
ATOM     25  C   UNL d   1      26.468 -13.169  -3.065  0.00  0.00     0.014 A 
BRANCH  23  26
ATOM     26  N   UNL d   1      26.885 -11.811  -6.538  0.00  0.00    -0.116 N 
ATOM     27  O   UNL d   1      26.233 -10.765  -6.419  0.00  0.00    -0.532 OA
ATOM     28  O   UNL d   1      27.437 -12.179  -7.586  0.00  0.00    -0.532 OA
ENDBRANCH  23  26
ENDBRANCH  19  20
ENDBRANCH   2  18
TORSDOF 6
ENDMDL
MODEL 7
REMARK VINA RESULT:    -7.647      2.905      8.408
REMARK INTER + INTRA:         -10.493
REMARK INTER:                  -9.436
REMARK INTRA:                  -1.057
REMARK CONF_INDEPENDENT:        1.790
REMARK UNBOUND:                -1.057
REMARK  6 active torsions:
REMARK  status: ('A' for Active; 'I' for Inactive)
REMARK    1  A    between atoms: C_2  and  C_3 
REMARK       I    between atoms: C_2  and  N_14 
REMARK    2  A    between atoms: C_4  and  C_5 
REMARK    3  A    between atoms: C_8  and  N_9 
REMARK    4  A    between atoms: N_14  and  C_15 
REMARK    5  A    between atoms: C_19  and  N_20 
REMARK       I    between atoms: N_20  and  C_21 
REMARK    6  A    between atoms: C_21  and  C_23 
ROOT
ATOM      1  O   UNL d   1      29.751 -17.257  -0.979  0.00  0.00    -0.268 OA
ATOM      2  C   UNL d   1      28.896 -16.533  -0.472  0.00  0.00     0.245 C 
ATOM      3  N   UNL d   1      29.267 -15.398   0.226  0.00  0.00    -0.324 N 
ATOM      4  H   UNL d   1      30.263 -15.215   0.220  0.00  0.00     0.169 HD
ENDROOT
BRANCH   3   5
ATOM      5  C   UNL d   1      28.462 -14.553   1.011  0.00  0.00     0.037 A 
ATOM      6  C   UNL d   1      27.316 -13.948   0.521  0.00  0.00     0.029 A 
ATOM      7  C   UNL d   1      26.565 -13.117   1.367  0.00  0.00     0.004 A 
ATOM      8  C   UNL d   1      26.933 -12.931   2.714  0.00  0.00     0.029 A 
ATOM      9  C   UNL d   1      28.109 -13.507   3.191  0.00  0.00     0.036 A 
ATOM     10  C   UNL d   1      28.863 -14.261   2.304  0.00  0.00     0.059 A 
BRANCH   9  11
ATOM     11  N   UNL d   1      28.558 -13.316   4.518  0.00  0.00    -0.327 N 
ATOM     12  C   UNL d   1      28.380 -14.226   5.554  0.00  0.00     0.226 C 
ATOM     13  O   UNL d   1      27.777 -15.296   5.518  0.00  0.00    -0.273 OA
ATOM     14  H   UNL d   1      29.058 -12.459   4.710  0.00  0.00     0.169 HD
BRANCH  12  15
ATOM     15  C   UNL d   1      28.983 -13.900   6.860  0.00  0.00     0.078 A 
ATOM     16  C   UNL d   1      29.708 -12.633   7.192  0.00  0.00     0.015 A 
ATOM     17  C   UNL d   1      28.312 -12.846   7.712  0.00  0.00     0.015 A 
ENDBRANCH  12  15
ENDBRANCH   9  11
ENDBRANCH   3   5
BRANCH   2  18
ATOM     18  C   UNL d   1      27.439 -16.789  -0.693  0.00  0.00     0.075 C 
ATOM     19  C   UNL d   1      26.632 -17.405   0.183  0.00  0.00     0.017 C 
BRANCH  19  20
ATOM     20  C   UNL d   1      25.209 -17.650  -0.125  0.00  0.00    -0.036 A 
ATOM     21  C   UNL d   1      24.682 -18.948  -0.081  0.00  0.00     0.014 A 
ATOM     22  C   UNL d   1      23.374 -19.203  -0.523  0.00  0.00     0.037 A 
ATOM     23  C   UNL d   1      22.557 -18.139  -0.924  0.00  0.00     0.102 A 
ATOM     24  C   UNL d   1      23.057 -16.836  -0.949  0.00  0.00     0.037 A 
ATOM     25  C   UNL d   1      24.377 -16.602  -0.557  0.00  0.00     0.014 A 
BRANCH  23  26
ATOM     26  N   UNL d   1      21.149 -18.379  -1.265  0.00  0.00    -0.116 N 
ATOM     27  O   UNL d   1      20.804 -19.542  -1.516  0.00  0.00    -0.532 OA
ATOM     28  O   UNL d   1      20.381 -17.405  -1.259  0.00  0.00    -0.532 OA
ENDBRANCH  23  26
ENDBRANCH  19  20
ENDBRANCH   2  18
TORSDOF 6
ENDMDL
MODEL 8
REMARK VINA RESULT:    -7.524      4.308      8.834
REMARK INTER + INTRA:         -10.281
REMARK INTER:                  -9.314
REMARK INTRA:                  -0.967
REMARK CONF_INDEPENDENT:        1.790
REMARK UNBOUND:                -0.967
REMARK  6 active torsions:
REMARK  status: ('A' for Active; 'I' for Inactive)
REMARK    1  A    between atoms: C_2  and  C_3 
REMARK       I    between atoms: C_2  and  N_14 
REMARK    2  A    between atoms: C_4  and  C_5 
REMARK    3  A    between atoms: C_8  and  N_9 
REMARK    4  A    between atoms: N_14  and  C_15 
REMARK    5  A    between atoms: C_19  and  N_20 
REMARK       I    between atoms: N_20  and  C_21 
REMARK    6  A    between atoms: C_21  and  C_23 
ROOT
ATOM      1  O   UNL d   1      28.910 -17.270  -0.176  0.00  0.00    -0.268 OA
ATOM      2  C   UNL d   1      28.087 -16.681  -0.873  0.00  0.00     0.245 C 
ATOM      3  N   UNL d   1      28.475 -15.609  -1.658  0.00  0.00    -0.324 N 
ATOM      4  H   UNL d   1      29.469 -15.417  -1.633  0.00  0.00     0.169 HD
ENDROOT
BRANCH   3   5
ATOM      5  C   UNL d   1      27.664 -14.713  -2.377  0.00  0.00     0.037 A 
ATOM      6  C   UNL d   1      26.458 -14.241  -1.885  0.00  0.00     0.029 A 
ATOM      7  C   UNL d   1      25.704 -13.347  -2.663  0.00  0.00     0.004 A 
ATOM      8  C   UNL d   1      26.181 -12.890  -3.907  0.00  0.00     0.029 A 
ATOM      9  C   UNL d   1      27.374 -13.399  -4.416  0.00  0.00     0.036 A 
ATOM     10  C   UNL d   1      28.052 -14.335  -3.651  0.00  0.00     0.059 A 
BRANCH   9  11
ATOM     11  N   UNL d   1      27.878 -13.017  -5.681  0.00  0.00    -0.327 N 
ATOM     12  C   UNL d   1      28.216 -13.901  -6.699  0.00  0.00     0.226 C 
ATOM     13  O   UNL d   1      28.189 -15.130  -6.666  0.00  0.00    -0.273 OA
ATOM     14  H   UNL d   1      27.978 -12.026  -5.850  0.00  0.00     0.169 HD
BRANCH  12  15
ATOM     15  C   UNL d   1      28.653 -13.326  -7.985  0.00  0.00     0.078 A 
ATOM     16  C   UNL d   1      28.642 -11.872  -8.337  0.00  0.00     0.015 A 
ATOM     17  C   UNL d   1      29.947 -12.545  -8.014  0.00  0.00     0.015 A 
ENDBRANCH  12  15
ENDBRANCH   9  11
ENDBRANCH   3   5
BRANCH   2  18
ATOM     18  C   UNL d   1      26.679 -17.173  -0.987  0.00  0.00     0.075 C 
ATOM     19  C   UNL d   1      25.686 -16.845  -0.147  0.00  0.00     0.017 C 
BRANCH  19  20
ATOM     20  C   UNL d   1      24.328 -17.401  -0.308  0.00  0.00    -0.036 A 
ATOM     21  C   UNL d   1      24.108 -18.783  -0.226  0.00  0.00     0.014 A 
ATOM     22  C   UNL d   1      22.850 -19.325  -0.533  0.00  0.00     0.037 A 
ATOM     23  C   UNL d   1      21.781 -18.472  -0.834  0.00  0.00     0.102 A 
ATOM     24  C   UNL d   1      21.977 -17.091  -0.895  0.00  0.00     0.037 A 
ATOM     25  C   UNL d   1      23.245 -16.567  -0.639  0.00  0.00     0.014 A 
BRANCH  23  26
ATOM     26  N   UNL d   1      20.433 -19.020  -1.030  0.00  0.00    -0.116 N 
ATOM     27  O   UNL d   1      19.552 -18.690  -0.225  0.00  0.00    -0.532 OA
ATOM     28  O   UNL d   1      20.251 -19.765  -2.004  0.00  0.00    -0.532 OA
ENDBRANCH  23  26
ENDBRANCH  19  20
ENDBRANCH   2  18
TORSDOF 6
ENDMDL
MODEL 9
REMARK VINA RESULT:    -7.433      2.960      4.574
REMARK INTER + INTRA:         -10.405
REMARK INTER:                  -9.223
REMARK INTRA:                  -1.182
REMARK CONF_INDEPENDENT:        1.790
REMARK UNBOUND:                -1.182
REMARK  6 active torsions:
REMARK  status: ('A' for Active; 'I' for Inactive)
REMARK    1  A    between atoms: C_2  and  C_3 
REMARK       I    between atoms: C_2  and  N_14 
REMARK    2  A    between atoms: C_4  and  C_5 
REMARK    3  A    between atoms: C_8  and  N_9 
REMARK    4  A    between atoms: N_14  and  C_15 
REMARK    5  A    between atoms: C_19  and  N_20 
REMARK       I    between atoms: N_20  and  C_21 
REMARK    6  A    between atoms: C_21  and  C_23 
ROOT
ATOM      1  O   UNL d   1      31.056 -16.148   0.754  0.00  0.00    -0.268 OA
ATOM      2  C   UNL d   1      29.862 -15.905   0.591  0.00  0.00     0.245 C 
ATOM      3  N   UNL d   1      28.986 -16.913   0.229  0.00  0.00    -0.324 N 
ATOM      4  H   UNL d   1      29.412 -17.830   0.173  0.00  0.00     0.169 HD
ENDROOT
BRANCH   3   5
ATOM      5  C   UNL d   1      27.641 -16.803  -0.166  0.00  0.00     0.037 A 
ATOM      6  C   UNL d   1      26.676 -17.724   0.209  0.00  0.00     0.029 A 
ATOM      7  C   UNL d   1      25.353 -17.545  -0.225  0.00  0.00     0.004 A 
ATOM      8  C   UNL d   1      24.988 -16.422  -0.993  0.00  0.00     0.029 A 
ATOM      9  C   UNL d   1      25.969 -15.521  -1.403  0.00  0.00     0.036 A 
ATOM     10  C   UNL d   1      27.276 -15.771  -1.015  0.00  0.00     0.059 A 
BRANCH   9  11
ATOM     11  N   UNL d   1      25.673 -14.403  -2.217  0.00  0.00    -0.327 N 
ATOM     12  C   UNL d   1      25.454 -14.457  -3.588  0.00  0.00     0.226 C 
ATOM     13  O   UNL d   1      25.528 -15.440  -4.322  0.00  0.00    -0.273 OA
ATOM     14  H   UNL d   1      25.600 -13.509  -1.752  0.00  0.00     0.169 HD
BRANCH  12  15
ATOM     15  C   UNL d   1      25.078 -13.203  -4.269  0.00  0.00     0.078 A 
ATOM     16  C   UNL d   1      25.534 -11.832  -3.882  0.00  0.00     0.015 A 
ATOM     17  C   UNL d   1      26.130 -12.496  -5.093  0.00  0.00     0.015 A 
ENDBRANCH  12  15
ENDBRANCH   9  11
ENDBRANCH   3   5
BRANCH   2  18
ATOM     18  C   UNL d   1      29.302 -14.551   0.894  0.00  0.00     0.075 C 
ATOM     19  C   UNL d   1      28.498 -14.273   1.932  0.00  0.00     0.017 C 
BRANCH  19  20
ATOM     20  C   UNL d   1      27.959 -12.915   2.143  0.00  0.00    -0.036 A 
ATOM     21  C   UNL d   1      28.050 -12.298   3.398  0.00  0.00     0.014 A 
ATOM     22  C   UNL d   1      27.403 -11.077   3.643  0.00  0.00     0.037 A 
ATOM     23  C   UNL d   1      26.738 -10.423   2.598  0.00  0.00     0.102 A 
ATOM     24  C   UNL d   1      26.659 -11.011   1.335  0.00  0.00     0.037 A 
ATOM     25  C   UNL d   1      27.262 -12.251   1.118  0.00  0.00     0.014 A 
BRANCH  23  26
ATOM     26  N   UNL d   1      26.169  -9.086   2.810  0.00  0.00    -0.116 N 
ATOM     27  O   UNL d   1      26.745  -8.331   3.606  0.00  0.00    -0.532 OA
ATOM     28  O   UNL d   1      25.156  -8.782   2.161  0.00  0.00    -0.532 OA
ENDBRANCH  23  26
ENDBRANCH  19  20
ENDBRANCH   2  18
TORSDOF 6
ENDMDL
