MODEL 1
REMARK VINA RESULT:    -7.381      0.000      0.000
REMARK INTER + INTRA:          -9.040
REMARK INTER:                  -8.276
REMARK INTRA:                  -0.764
REMARK CONF_INDEPENDENT:        0.895
REMARK UNBOUND:                -0.764
REMARK  3 active torsions:
REMARK  status: ('A' for Active; 'I' for Inactive)
REMARK       I    between atoms: C_2  and  N_3 
REMARK    1  A    between atoms: C_2  and  C_11 
REMARK    2  A    between atoms: N_3  and  N_4 
REMARK    3  A    between atoms: N_4  and  C_5 
ROOT
ATOM      1  O   UNL d   1      20.399 -19.700  -1.714  0.00  0.00    -0.266 OA
ATOM      2  C   UNL d   1      20.481 -19.447  -0.507  0.00  0.00     0.272 C 
ATOM      3  N   UNL d   1      21.436 -18.576   0.012  0.00  0.00    -0.265 N 
ATOM      4  H   UNL d   1      21.423 -18.291   0.984  0.00  0.00     0.190 HD
ENDROOT
BRANCH   3   5
ATOM      5  N   UNL d   1      22.057 -17.688  -0.889  0.00  0.00    -0.298 N 
ATOM      6  H   UNL d   1      21.763 -17.825  -1.865  0.00  0.00     0.187 HD
BRANCH   5   7
ATOM      7  C   UNL d   1      23.438 -17.426  -0.743  0.00  0.00     0.048 A 
ATOM      8  C   UNL d   1      24.194 -18.357  -0.009  0.00  0.00     0.031 A 
ATOM      9  C   UNL d   1      25.572 -18.199   0.184  0.00  0.00     0.002 A 
ATOM     10  C   UNL d   1      26.233 -17.122  -0.394  0.00  0.00     0.000 A 
ATOM     11  C   UNL d   1      25.503 -16.180  -1.117  0.00  0.00     0.002 A 
ATOM     12  C   UNL d   1      24.113 -16.325  -1.282  0.00  0.00     0.031 A 
ENDBRANCH   5   7
ENDBRANCH   3   5
BRANCH   2  13
ATOM     13  C   UNL d   1      19.608 -20.097   0.460  0.00  0.00     0.057 A 
ATOM     14  C   UNL d   1      18.406 -20.825   0.194  0.00  0.00     0.043 A 
ATOM     15  C   UNL d   1      17.898 -21.220   1.409  0.00  0.00     0.142 A 
ATOM     16  O   UNL d   1      18.684 -20.759   2.415  0.00  0.00    -0.334 OA
ATOM     17  C   UNL d   1      19.709 -20.073   1.838  0.00  0.00     0.158 A 
ENDBRANCH   2  13
TORSDOF 3
ENDMDL
MODEL 2
REMARK VINA RESULT:    -7.322      0.142      1.242
REMARK INTER + INTRA:          -8.968
REMARK INTER:                  -8.217
REMARK INTRA:                  -0.751
REMARK CONF_INDEPENDENT:        0.895
REMARK UNBOUND:                -0.751
REMARK  3 active torsions:
REMARK  status: ('A' for Active; 'I' for Inactive)
REMARK       I    between atoms: C_2  and  N_3 
REMARK    1  A    between atoms: C_2  and  C_11 
REMARK    2  A    between atoms: N_3  and  N_4 
REMARK    3  A    between atoms: N_4  and  C_5 
ROOT
ATOM      1  O   UNL d   1      20.344 -19.700  -1.731  0.00  0.00    -0.266 OA
ATOM      2  C   UNL d   1      20.441 -19.465  -0.523  0.00  0.00     0.272 C 
ATOM      3  N   UNL d   1      21.428 -18.634   0.002  0.00  0.00    -0.265 N 
ATOM      4  H   UNL d   1      21.430 -18.361   0.978  0.00  0.00     0.190 HD
ENDROOT
BRANCH   3   5
ATOM      5  N   UNL d   1      22.074 -17.756  -0.891  0.00  0.00    -0.298 N 
ATOM      6  H   UNL d   1      21.763 -17.863  -1.865  0.00  0.00     0.187 HD
BRANCH   5   7
ATOM      7  C   UNL d   1      23.466 -17.553  -0.758  0.00  0.00     0.048 A 
ATOM      8  C   UNL d   1      23.991 -16.353  -1.270  0.00  0.00     0.031 A 
ATOM      9  C   UNL d   1      25.355 -16.047  -1.177  0.00  0.00     0.002 A 
ATOM     10  C   UNL d   1      26.218 -16.921  -0.529  0.00  0.00     0.000 A 
ATOM     11  C   UNL d   1      25.723 -18.122  -0.023  0.00  0.00     0.002 A 
ATOM     12  C   UNL d   1      24.358 -18.441  -0.145  0.00  0.00     0.031 A 
ENDBRANCH   5   7
ENDBRANCH   3   5
BRANCH   2  13
ATOM     13  C   UNL d   1      19.552 -20.097   0.441  0.00  0.00     0.057 A 
ATOM     14  C   UNL d   1      18.350 -20.823   0.169  0.00  0.00     0.043 A 
ATOM     15  C   UNL d   1      17.824 -21.199   1.383  0.00  0.00     0.142 A 
ATOM     16  O   UNL d   1      18.598 -20.728   2.393  0.00  0.00    -0.334 OA
ATOM     17  C   UNL d   1      19.634 -20.055   1.820  0.00  0.00     0.158 A 
ENDBRANCH   2  13
TORSDOF 3
ENDMDL
MODEL 3
REMARK VINA RESULT:    -6.949      1.190      1.960
REMARK INTER + INTRA:          -8.434
REMARK INTER:                  -7.844
REMARK INTRA:                  -0.591
REMARK CONF_INDEPENDENT:        0.895
REMARK UNBOUND:                -0.591
REMARK  3 active torsions:
REMARK  status: ('A' for Active; 'I' for Inactive)
REMARK       I    between atoms: C_2  and  N_3 
REMARK    1  A    between atoms: C_2  and  C_11 
REMARK    2  A    between atoms: N_3  and  N_4 
REMARK    3  A    between atoms: N_4  and  C_5 
ROOT
ATOM      1  O   UNL d   1      21.973 -19.226  -1.860  0.00  0.00    -0.266 OA
ATOM      2  C   UNL d   1      21.553 -18.878  -0.752  0.00  0.00     0.272 C 
ATOM      3  N   UNL d   1      22.194 -17.913   0.022  0.00  0.00    -0.265 N 
ATOM      4  H   UNL d   1      21.780 -17.556   0.876  0.00  0.00     0.190 HD
ENDROOT
BRANCH   3   5
ATOM      5  N   UNL d   1      23.103 -17.060  -0.634  0.00  0.00    -0.298 N 
ATOM      6  H   UNL d   1      22.852 -16.869  -1.612  0.00  0.00     0.187 HD
BRANCH   5   7
ATOM      7  C   UNL d   1      24.488 -17.258  -0.431  0.00  0.00     0.048 A 
ATOM      8  C   UNL d   1      25.367 -16.427  -1.149  0.00  0.00     0.031 A 
ATOM      9  C   UNL d   1      26.756 -16.530  -1.010  0.00  0.00     0.002 A 
ATOM     10  C   UNL d   1      27.297 -17.444  -0.114  0.00  0.00     0.000 A 
ATOM     11  C   UNL d   1      26.446 -18.286   0.600  0.00  0.00     0.002 A 
ATOM     12  C   UNL d   1      25.052 -18.201   0.435  0.00  0.00     0.031 A 
ENDBRANCH   5   7
ENDBRANCH   3   5
BRANCH   2  13
ATOM     13  C   UNL d   1      20.379 -19.504  -0.161  0.00  0.00     0.057 A 
ATOM     14  C   UNL d   1      20.282 -20.131   1.121  0.00  0.00     0.043 A 
ATOM     15  C   UNL d   1      19.000 -20.615   1.235  0.00  0.00     0.142 A 
ATOM     16  O   UNL d   1      18.303 -20.361   0.099  0.00  0.00    -0.334 OA
ATOM     17  C   UNL d   1      19.142 -19.700  -0.745  0.00  0.00     0.158 A 
ENDBRANCH   2  13
TORSDOF 3
ENDMDL
MODEL 4
REMARK VINA RESULT:    -6.627      2.207      6.524
REMARK INTER + INTRA:          -8.264
REMARK INTER:                  -7.522
REMARK INTRA:                  -0.742
REMARK CONF_INDEPENDENT:        0.895
REMARK UNBOUND:                -0.742
REMARK  3 active torsions:
REMARK  status: ('A' for Active; 'I' for Inactive)
REMARK       I    between atoms: C_2  and  N_3 
REMARK    1  A    between atoms: C_2  and  C_11 
REMARK    2  A    between atoms: N_3  and  N_4 
REMARK    3  A    between atoms: N_4  and  C_5 
ROOT
ATOM      1  O   UNL d   1      22.612 -16.403  -0.888  0.00  0.00    -0.266 OA
ATOM      2  C   UNL d   1      23.169 -17.441  -0.517  0.00  0.00     0.272 C 
ATOM      3  N   UNL d   1      22.459 -18.583  -0.153  0.00  0.00    -0.265 N 
ATOM      4  H   UNL d   1      22.927 -19.460   0.041  0.00  0.00     0.190 HD
ENDROOT
BRANCH   3   5
ATOM      5  N   UNL d   1      21.119 -18.672  -0.580  0.00  0.00    -0.298 N 
ATOM      6  H   UNL d   1      20.735 -17.777  -0.910  0.00  0.00     0.187 HD
BRANCH   5   7
ATOM      7  C   UNL d   1      20.209 -19.432   0.189  0.00  0.00     0.048 A 
ATOM      8  C   UNL d   1      19.141 -20.039  -0.495  0.00  0.00     0.031 A 
ATOM      9  C   UNL d   1      18.192 -20.825   0.170  0.00  0.00     0.002 A 
ATOM     10  C   UNL d   1      18.317 -21.055   1.534  0.00  0.00     0.000 A 
ATOM     11  C   UNL d   1      19.361 -20.455   2.236  0.00  0.00     0.002 A 
ATOM     12  C   UNL d   1      20.295 -19.641   1.570  0.00  0.00     0.031 A 
ENDBRANCH   5   7
ENDBRANCH   3   5
BRANCH   2  13
ATOM     13  C   UNL d   1      24.617 -17.513  -0.385  0.00  0.00     0.057 A 
ATOM     14  C   UNL d   1      25.365 -18.204   0.619  0.00  0.00     0.043 A 
ATOM     15  C   UNL d   1      26.695 -17.960   0.369  0.00  0.00     0.142 A 
ATOM     16  O   UNL d   1      26.825 -17.138  -0.702  0.00  0.00    -0.334 OA
ATOM     17  C   UNL d   1      25.569 -16.862  -1.148  0.00  0.00     0.158 A 
ENDBRANCH   2  13
TORSDOF 3
ENDMDL
MODEL 5
REMARK VINA RESULT:    -6.611      1.683      2.492
REMARK INTER + INTRA:          -7.895
REMARK INTER:                  -7.506
REMARK INTRA:                  -0.389
REMARK CONF_INDEPENDENT:        0.895
REMARK UNBOUND:                -0.389
REMARK  3 active torsions:
REMARK  status: ('A' for Active; 'I' for Inactive)
REMARK       I    between atoms: C_2  and  N_3 
REMARK    1  A    between atoms: C_2  and  C_11 
REMARK    2  A    between atoms: N_3  and  N_4 
REMARK    3  A    between atoms: N_4  and  C_5 
ROOT
ATOM      1  O   UNL d   1      22.230 -16.991  -0.113  0.00  0.00    -0.266 OA
ATOM      2  C   UNL d   1      22.240 -18.224  -0.046  0.00  0.00     0.272 C 
ATOM      3  N   UNL d   1      23.420 -18.957   0.064  0.00  0.00    -0.265 N 
ATOM      4  H   UNL d   1      23.410 -19.957   0.230  0.00  0.00     0.190 HD
ENDROOT
BRANCH   3   5
ATOM      5  N   UNL d   1      24.572 -18.266   0.488  0.00  0.00    -0.298 N 
ATOM      6  H   UNL d   1      24.467 -17.823   1.409  0.00  0.00     0.187 HD
BRANCH   5   7
ATOM      7  C   UNL d   1      25.270 -17.470  -0.449  0.00  0.00     0.048 A 
ATOM      8  C   UNL d   1      26.615 -17.176  -0.164  0.00  0.00     0.031 A 
ATOM      9  C   UNL d   1      27.401 -16.408  -1.032  0.00  0.00     0.002 A 
ATOM     10  C   UNL d   1      26.865 -15.951  -2.230  0.00  0.00     0.000 A 
ATOM     11  C   UNL d   1      25.531 -16.221  -2.529  0.00  0.00     0.002 A 
ATOM     12  C   UNL d   1      24.735 -16.966  -1.640  0.00  0.00     0.031 A 
ENDBRANCH   5   7
ENDBRANCH   3   5
BRANCH   2  13
ATOM     13  C   UNL d   1      21.008 -18.995  -0.134  0.00  0.00     0.057 A 
ATOM     14  C   UNL d   1      20.335 -19.683   0.923  0.00  0.00     0.043 A 
ATOM     15  C   UNL d   1      19.241 -20.303   0.367  0.00  0.00     0.142 A 
ATOM     16  O   UNL d   1      19.206 -20.075  -0.970  0.00  0.00    -0.334 OA
ATOM     17  C   UNL d   1      20.279 -19.294  -1.270  0.00  0.00     0.158 A 
ENDBRANCH   2  13
TORSDOF 3
ENDMDL
MODEL 6
REMARK VINA RESULT:    -6.005      2.483      6.722
REMARK INTER + INTRA:          -7.642
REMARK INTER:                  -6.900
REMARK INTRA:                  -0.741
REMARK CONF_INDEPENDENT:        0.895
REMARK UNBOUND:                -0.741
REMARK  3 active torsions:
REMARK  status: ('A' for Active; 'I' for Inactive)
REMARK       I    between atoms: C_2  and  N_3 
REMARK    1  A    between atoms: C_2  and  C_11 
REMARK    2  A    between atoms: N_3  and  N_4 
REMARK    3  A    between atoms: N_4  and  C_5 
ROOT
ATOM      1  O   UNL d   1      25.102 -18.562   0.084  0.00  0.00    -0.266 OA
ATOM      2  C   UNL d   1      24.415 -17.744  -0.536  0.00  0.00     0.272 C 
ATOM      3  N   UNL d   1      23.022 -17.768  -0.514  0.00  0.00    -0.265 N 
ATOM      4  H   UNL d   1      22.471 -17.027  -0.934  0.00  0.00     0.190 HD
ENDROOT
BRANCH   3   5
ATOM      5  N   UNL d   1      22.406 -18.490   0.527  0.00  0.00    -0.298 N 
ATOM      6  H   UNL d   1      23.058 -19.085   1.053  0.00  0.00     0.187 HD
BRANCH   5   7
ATOM      7  C   UNL d   1      21.153 -19.098   0.284  0.00  0.00     0.048 A 
ATOM      8  C   UNL d   1      20.530 -19.741   1.368  0.00  0.00     0.031 A 
ATOM      9  C   UNL d   1      19.282 -20.361   1.239  0.00  0.00     0.002 A 
ATOM     10  C   UNL d   1      18.607 -20.314   0.025  0.00  0.00     0.000 A 
ATOM     11  C   UNL d   1      19.209 -19.691  -1.067  0.00  0.00     0.002 A 
ATOM     12  C   UNL d   1      20.477 -19.096  -0.942  0.00  0.00     0.031 A 
ENDBRANCH   5   7
ENDBRANCH   3   5
BRANCH   2  13
ATOM     13  C   UNL d   1      25.029 -16.729  -1.379  0.00  0.00     0.057 A 
ATOM     14  C   UNL d   1      26.423 -16.538  -1.635  0.00  0.00     0.043 A 
ATOM     15  C   UNL d   1      26.535 -15.438  -2.453  0.00  0.00     0.142 A 
ATOM     16  O   UNL d   1      25.308 -14.911  -2.696  0.00  0.00    -0.334 OA
ATOM     17  C   UNL d   1      24.403 -15.686  -2.038  0.00  0.00     0.158 A 
ENDBRANCH   2  13
TORSDOF 3
ENDMDL
MODEL 7
REMARK VINA RESULT:    -5.738      4.101      7.611
REMARK INTER + INTRA:          -7.027
REMARK INTER:                  -6.633
REMARK INTRA:                  -0.395
REMARK CONF_INDEPENDENT:        0.895
REMARK UNBOUND:                -0.395
REMARK  3 active torsions:
REMARK  status: ('A' for Active; 'I' for Inactive)
REMARK       I    between atoms: C_2  and  N_3 
REMARK    1  A    between atoms: C_2  and  C_11 
REMARK    2  A    between atoms: N_3  and  N_4 
REMARK    3  A    between atoms: N_4  and  C_5 
ROOT
ATOM      1  O   UNL d   1      24.318 -14.631  -2.607  0.00  0.00    -0.266 OA
ATOM      2  C   UNL d   1      25.425 -15.178  -2.554  0.00  0.00     0.272 C 
ATOM      3  N   UNL d   1      25.948 -15.694  -1.371  0.00  0.00    -0.265 N 
ATOM      4  H   UNL d   1      26.804 -16.237  -1.361  0.00  0.00     0.190 HD
ENDROOT
BRANCH   3   5
ATOM      5  N   UNL d   1      25.045 -15.936  -0.317  0.00  0.00    -0.298 N 
ATOM      6  H   UNL d   1      25.478 -15.884   0.613  0.00  0.00     0.187 HD
BRANCH   5   7
ATOM      7  C   UNL d   1      24.111 -16.988  -0.451  0.00  0.00     0.048 A 
ATOM      8  C   UNL d   1      22.779 -16.633  -0.730  0.00  0.00     0.031 A 
ATOM      9  C   UNL d   1      21.778 -17.598  -0.895  0.00  0.00     0.002 A 
ATOM     10  C   UNL d   1      22.100 -18.948  -0.825  0.00  0.00     0.000 A 
ATOM     11  C   UNL d   1      23.411 -19.325  -0.539  0.00  0.00     0.002 A 
ATOM     12  C   UNL d   1      24.408 -18.352  -0.343  0.00  0.00     0.031 A 
ENDBRANCH   5   7
ENDBRANCH   3   5
BRANCH   2  13
ATOM     13  C   UNL d   1      26.280 -15.264  -3.729  0.00  0.00     0.057 A 
ATOM     14  C   UNL d   1      27.674 -14.959  -3.814  0.00  0.00     0.043 A 
ATOM     15  C   UNL d   1      28.047 -15.146  -5.124  0.00  0.00     0.142 A 
ATOM     16  O   UNL d   1      26.973 -15.515  -5.867  0.00  0.00    -0.334 OA
ATOM     17  C   UNL d   1      25.907 -15.575  -5.024  0.00  0.00     0.158 A 
ENDBRANCH   2  13
TORSDOF 3
ENDMDL
MODEL 8
REMARK VINA RESULT:    -5.568      1.921      2.968
REMARK INTER + INTRA:          -7.149
REMARK INTER:                  -6.463
REMARK INTRA:                  -0.686
REMARK CONF_INDEPENDENT:        0.895
REMARK UNBOUND:                -0.686
REMARK  3 active torsions:
REMARK  status: ('A' for Active; 'I' for Inactive)
REMARK       I    between atoms: C_2  and  N_3 
REMARK    1  A    between atoms: C_2  and  C_11 
REMARK    2  A    between atoms: N_3  and  N_4 
REMARK    3  A    between atoms: N_4  and  C_5 
ROOT
ATOM      1  O   UNL d   1      23.524 -18.575   0.929  0.00  0.00    -0.266 OA
ATOM      2  C   UNL d   1      22.857 -18.496  -0.108  0.00  0.00     0.272 C 
ATOM      3  N   UNL d   1      23.350 -17.911  -1.272  0.00  0.00    -0.265 N 
ATOM      4  H   UNL d   1      22.837 -17.952  -2.146  0.00  0.00     0.190 HD
ENDROOT
BRANCH   3   5
ATOM      5  N   UNL d   1      24.747 -17.760  -1.376  0.00  0.00    -0.298 N 
ATOM      6  H   UNL d   1      25.270 -18.315  -0.687  0.00  0.00     0.187 HD
BRANCH   5   7
ATOM      7  C   UNL d   1      25.278 -16.467  -1.584  0.00  0.00     0.048 A 
ATOM      8  C   UNL d   1      25.989 -15.886  -0.519  0.00  0.00     0.031 A 
ATOM      9  C   UNL d   1      26.567 -14.615  -0.626  0.00  0.00     0.002 A 
ATOM     10  C   UNL d   1      26.480 -13.913  -1.822  0.00  0.00     0.000 A 
ATOM     11  C   UNL d   1      25.771 -14.464  -2.888  0.00  0.00     0.002 A 
ATOM     12  C   UNL d   1      25.165 -15.727  -2.767  0.00  0.00     0.031 A 
ENDBRANCH   5   7
ENDBRANCH   3   5
BRANCH   2  13
ATOM     13  C   UNL d   1      21.480 -18.966  -0.156  0.00  0.00     0.057 A 
ATOM     14  C   UNL d   1      20.644 -19.325   0.948  0.00  0.00     0.043 A 
ATOM     15  C   UNL d   1      19.446 -19.747   0.425  0.00  0.00     0.142 A 
ATOM     16  O   UNL d   1      19.489 -19.707  -0.931  0.00  0.00    -0.334 OA
ATOM     17  C   UNL d   1      20.721 -19.245  -1.277  0.00  0.00     0.158 A 
ENDBRANCH   2  13
TORSDOF 3
ENDMDL
MODEL 9
REMARK VINA RESULT:    -5.311      2.600      3.930
REMARK INTER + INTRA:          -6.835
REMARK INTER:                  -6.206
REMARK INTRA:                  -0.629
REMARK CONF_INDEPENDENT:        0.895
REMARK UNBOUND:                -0.629
REMARK  3 active torsions:
REMARK  status: ('A' for Active; 'I' for Inactive)
REMARK       I    between atoms: C_2  and  N_3 
REMARK    1  A    between atoms: C_2  and  C_11 
REMARK    2  A    between atoms: N_3  and  N_4 
REMARK    3  A    between atoms: N_4  and  C_5 
ROOT
ATOM      1  O   UNL d   1      24.231 -18.135   0.624  0.00  0.00    -0.266 OA
ATOM      2  C   UNL d   1      23.498 -17.931  -0.349  0.00  0.00     0.272 C 
ATOM      3  N   UNL d   1      23.833 -17.039  -1.365  0.00  0.00    -0.265 N 
ATOM      4  H   UNL d   1      23.278 -16.964  -2.210  0.00  0.00     0.190 HD
ENDROOT
BRANCH   3   5
ATOM      5  N   UNL d   1      25.186 -16.663  -1.472  0.00  0.00    -0.298 N 
ATOM      6  H   UNL d   1      25.670 -16.616  -0.567  0.00  0.00     0.187 HD
BRANCH   5   7
ATOM      7  C   UNL d   1      25.533 -15.615  -2.356  0.00  0.00     0.048 A 
ATOM      8  C   UNL d   1      26.846 -15.607  -2.857  0.00  0.00     0.031 A 
ATOM      9  C   UNL d   1      27.288 -14.623  -3.750  0.00  0.00     0.002 A 
ATOM     10  C   UNL d   1      26.406 -13.645  -4.194  0.00  0.00     0.000 A 
ATOM     11  C   UNL d   1      25.102 -13.626  -3.702  0.00  0.00     0.002 A 
ATOM     12  C   UNL d   1      24.671 -14.598  -2.781  0.00  0.00     0.031 A 
ENDBRANCH   5   7
ENDBRANCH   3   5
BRANCH   2  13
ATOM     13  C   UNL d   1      22.199 -18.579  -0.462  0.00  0.00     0.057 A 
ATOM     14  C   UNL d   1      21.366 -19.049   0.601  0.00  0.00     0.043 A 
ATOM     15  C   UNL d   1      20.260 -19.625   0.021  0.00  0.00     0.142 A 
ATOM     16  O   UNL d   1      20.364 -19.576  -1.331  0.00  0.00    -0.334 OA
ATOM     17  C   UNL d   1      21.540 -18.954  -1.618  0.00  0.00     0.158 A 
ENDBRANCH   2  13
TORSDOF 3
ENDMDL
