MODEL 1
REMARK VINA RESULT:    -8.866      0.000      0.000
REMARK INTER + INTRA:         -12.671
REMARK INTER:                 -10.655
REMARK INTRA:                  -2.015
REMARK CONF_INDEPENDENT:        1.790
REMARK UNBOUND:                -2.015
REMARK  6 active torsions:
REMARK  status: ('A' for Active; 'I' for Inactive)
REMARK    1  A    between atoms: C_2  and  C_3 
REMARK       I    between atoms: C_2  and  N_10 
REMARK    2  A    between atoms: C_3  and  C_4 
REMARK    3  A    between atoms: N_10  and  N_11 
REMARK    4  A    between atoms: N_11  and  C_12 
REMARK    5  A    between atoms: N_15  and  S_16 
REMARK    6  A    between atoms: S_16  and  C_19 
ROOT
ATOM      1  C   UNL d   1      27.859 -17.446  -0.748  0.00  0.00     0.101 A 
ATOM      2  C   UNL d   1      27.537 -16.618  -1.738  0.00  0.00     0.068 A 
ATOM      3  C   UNL d   1      26.179 -16.158  -2.090  0.00  0.00     0.079 A 
ATOM      4  N   UNL d   1      25.917 -15.313  -3.040  0.00  0.00    -0.160 NA
ATOM      5  C   UNL d   1      25.097 -16.733  -1.226  0.00  0.00    -0.015 A 
ATOM      6  C   UNL d   1      25.390 -17.600  -0.233  0.00  0.00     0.007 A 
ATOM      7  C   UNL d   1      24.341 -18.213   0.652  0.00  0.00     0.070 C 
ATOM      8  C   UNL d   1      22.955 -18.089   0.095  0.00  0.00    -0.026 C 
ATOM      9  C   UNL d   1      22.650 -17.235  -0.893  0.00  0.00    -0.026 C 
ATOM     10  C   UNL d   1      23.673 -16.327  -1.528  0.00  0.00     0.068 C 
ATOM     11  C   UNL d   1      26.777 -18.045   0.065  0.00  0.00     0.207 A 
ATOM     12  O   UNL d   1      27.029 -18.854   0.959  0.00  0.00    -0.285 OA
ENDROOT
BRANCH   1  13
ATOM     13  N   UNL d   1      29.176 -17.700  -0.436  0.00  0.00    -0.294 N 
ATOM     14  H   UNL d   1      29.376 -18.532   0.120  0.00  0.00     0.187 HD
BRANCH  13  15
ATOM     15  N   UNL d   1      30.169 -16.825  -0.850  0.00  0.00    -0.269 N 
ATOM     16  C   UNL d   1      31.048 -17.044  -1.869  0.00  0.00     0.240 C 
ATOM     17  O   UNL d   1      31.987 -16.257  -1.990  0.00  0.00    -0.272 OA
ATOM     18  H   UNL d   1      30.429 -16.066  -0.220  0.00  0.00     0.190 HD
BRANCH  16  19
ATOM     19  C   UNL d   1      30.778 -18.224  -2.787  0.00  0.00     0.143 C 
BRANCH  19  20
ATOM     20  C   UNL d   1      30.572 -17.812  -4.224  0.00  0.00    -0.049 A 
ATOM     21  C   UNL d   1      30.724 -18.741  -5.259  0.00  0.00     0.007 A 
ATOM     22  C   UNL d   1      30.693 -18.315  -6.586  0.00  0.00     0.001 A 
ATOM     23  C   UNL d   1      30.423 -16.981  -6.890  0.00  0.00     0.000 A 
ATOM     24  C   UNL d   1      30.221 -16.059  -5.866  0.00  0.00     0.001 A 
ATOM     25  C   UNL d   1      30.288 -16.475  -4.540  0.00  0.00     0.007 A 
ENDBRANCH  19  20
ENDBRANCH  16  19
ENDBRANCH  13  15
ENDBRANCH   1  13
BRANCH   4  26
ATOM     26  S   UNL d   1      27.160 -14.726  -3.930  0.00  0.00     0.283 S 
ATOM     27  O   UNL d   1      28.297 -14.508  -3.063  0.00  0.00    -0.198 OA
ATOM     28  O   UNL d   1      27.295 -15.575  -5.106  0.00  0.00    -0.198 OA
BRANCH  26  29
ATOM     29  C   UNL d   1      26.636 -13.147  -4.508  0.00  0.00     0.081 A 
ATOM     30  C   UNL d   1      27.024 -12.709  -5.774  0.00  0.00     0.025 A 
ATOM     31  C   UNL d   1      26.748 -11.394  -6.140  0.00  0.00     0.002 A 
ATOM     32  C   UNL d   1      26.013 -10.567  -5.285  0.00  0.00     0.000 A 
ATOM     33  C   UNL d   1      25.572 -11.039  -4.050  0.00  0.00     0.002 A 
ATOM     34  C   UNL d   1      25.885 -12.333  -3.656  0.00  0.00     0.025 A 
ENDBRANCH  26  29
ENDBRANCH   4  26
TORSDOF 6
ENDMDL
MODEL 2
REMARK VINA RESULT:    -8.862      3.267      6.089
REMARK INTER + INTRA:         -12.524
REMARK INTER:                 -10.651
REMARK INTRA:                  -1.872
REMARK CONF_INDEPENDENT:        1.790
REMARK UNBOUND:                -1.872
REMARK  6 active torsions:
REMARK  status: ('A' for Active; 'I' for Inactive)
REMARK    1  A    between atoms: C_2  and  C_3 
REMARK       I    between atoms: C_2  and  N_10 
REMARK    2  A    between atoms: C_3  and  C_4 
REMARK    3  A    between atoms: N_10  and  N_11 
REMARK    4  A    between atoms: N_11  and  C_12 
REMARK    5  A    between atoms: N_15  and  S_16 
REMARK    6  A    between atoms: S_16  and  C_19 
ROOT
ATOM      1  C   UNL d   1      27.177 -13.306  -1.110  0.00  0.00     0.101 A 
ATOM      2  C   UNL d   1      27.164 -14.582  -0.732  0.00  0.00     0.068 A 
ATOM      3  C   UNL d   1      27.338 -15.089   0.644  0.00  0.00     0.079 A 
ATOM      4  N   UNL d   1      27.274 -16.344   0.973  0.00  0.00    -0.160 NA
ATOM      5  C   UNL d   1      27.573 -14.017   1.665  0.00  0.00    -0.015 A 
ATOM      6  C   UNL d   1      27.621 -12.716   1.305  0.00  0.00     0.007 A 
ATOM      7  C   UNL d   1      27.867 -11.606   2.288  0.00  0.00     0.070 C 
ATOM      8  C   UNL d   1      28.428 -12.088   3.592  0.00  0.00    -0.026 C 
ATOM      9  C   UNL d   1      28.389 -13.376   3.961  0.00  0.00    -0.026 C 
ATOM     10  C   UNL d   1      27.778 -14.451   3.098  0.00  0.00     0.068 C 
ATOM     11  C   UNL d   1      27.458 -12.262  -0.101  0.00  0.00     0.207 A 
ATOM     12  O   UNL d   1      27.529 -11.075  -0.419  0.00  0.00    -0.285 OA
ENDROOT
BRANCH   1  13
ATOM     13  N   UNL d   1      26.873 -12.948  -2.405  0.00  0.00    -0.294 N 
ATOM     14  H   UNL d   1      27.621 -12.548  -2.971  0.00  0.00     0.187 HD
BRANCH  13  15
ATOM     15  N   UNL d   1      25.581 -13.110  -2.885  0.00  0.00    -0.269 N 
ATOM     16  C   UNL d   1      25.131 -14.169  -3.615  0.00  0.00     0.240 C 
ATOM     17  O   UNL d   1      24.015 -14.075  -4.127  0.00  0.00    -0.272 OA
ATOM     18  H   UNL d   1      24.974 -12.291  -2.906  0.00  0.00     0.190 HD
BRANCH  16  19
ATOM     19  C   UNL d   1      26.033 -15.388  -3.714  0.00  0.00     0.143 C 
BRANCH  19  20
ATOM     20  C   UNL d   1      27.284 -15.127  -4.515  0.00  0.00    -0.049 A 
ATOM     21  C   UNL d   1      27.251 -14.285  -5.632  0.00  0.00     0.007 A 
ATOM     22  C   UNL d   1      28.369 -14.181  -6.458  0.00  0.00     0.001 A 
ATOM     23  C   UNL d   1      29.551 -14.842  -6.128  0.00  0.00     0.000 A 
ATOM     24  C   UNL d   1      29.608 -15.643  -4.990  0.00  0.00     0.001 A 
ATOM     25  C   UNL d   1      28.482 -15.779  -4.184  0.00  0.00     0.007 A 
ENDBRANCH  19  20
ENDBRANCH  16  19
ENDBRANCH  13  15
ENDBRANCH   1  13
BRANCH   4  26
ATOM     26  S   UNL d   1      27.005 -17.450  -0.204  0.00  0.00     0.283 S 
ATOM     27  O   UNL d   1      27.600 -16.979  -1.436  0.00  0.00    -0.198 OA
ATOM     28  O   UNL d   1      27.373 -18.754   0.329  0.00  0.00    -0.198 OA
BRANCH  26  29
ATOM     29  C   UNL d   1      25.261 -17.480  -0.448  0.00  0.00     0.081 A 
ATOM     30  C   UNL d   1      24.602 -16.329  -0.878  0.00  0.00     0.025 A 
ATOM     31  C   UNL d   1      23.209 -16.324  -0.895  0.00  0.00     0.002 A 
ATOM     32  C   UNL d   1      22.498 -17.485  -0.575  0.00  0.00     0.000 A 
ATOM     33  C   UNL d   1      23.172 -18.650  -0.212  0.00  0.00     0.002 A 
ATOM     34  C   UNL d   1      24.559 -18.650  -0.145  0.00  0.00     0.025 A 
ENDBRANCH  26  29
ENDBRANCH   4  26
TORSDOF 6
ENDMDL
MODEL 3
REMARK VINA RESULT:    -8.508      1.605      1.975
REMARK INTER + INTRA:         -12.581
REMARK INTER:                 -10.297
REMARK INTRA:                  -2.284
REMARK CONF_INDEPENDENT:        1.790
REMARK UNBOUND:                -2.284
REMARK  6 active torsions:
REMARK  status: ('A' for Active; 'I' for Inactive)
REMARK    1  A    between atoms: C_2  and  C_3 
REMARK       I    between atoms: C_2  and  N_10 
REMARK    2  A    between atoms: C_3  and  C_4 
REMARK    3  A    between atoms: N_10  and  N_11 
REMARK    4  A    between atoms: N_11  and  C_12 
REMARK    5  A    between atoms: N_15  and  S_16 
REMARK    6  A    between atoms: S_16  and  C_19 
ROOT
ATOM      1  C   UNL d   1      27.702 -16.934  -1.222  0.00  0.00     0.101 A 
ATOM      2  C   UNL d   1      27.092 -16.214  -2.161  0.00  0.00     0.068 A 
ATOM      3  C   UNL d   1      25.636 -15.998  -2.291  0.00  0.00     0.079 A 
ATOM      4  N   UNL d   1      25.088 -15.251  -3.201  0.00  0.00    -0.160 NA
ATOM      5  C   UNL d   1      24.819 -16.702  -1.251  0.00  0.00    -0.015 A 
ATOM      6  C   UNL d   1      25.409 -17.464  -0.304  0.00  0.00     0.007 A 
ATOM      7  C   UNL d   1      24.633 -18.200   0.752  0.00  0.00     0.070 C 
ATOM      8  C   UNL d   1      23.175 -18.328   0.429  0.00  0.00    -0.026 C 
ATOM      9  C   UNL d   1      22.576 -17.581  -0.509  0.00  0.00    -0.026 C 
ATOM     10  C   UNL d   1      23.317 -16.548  -1.320  0.00  0.00     0.068 C 
ATOM     11  C   UNL d   1      26.880 -17.663  -0.231  0.00  0.00     0.207 A 
ATOM     12  O   UNL d   1      27.404 -18.380   0.623  0.00  0.00    -0.285 OA
ENDROOT
BRANCH   1  13
ATOM     13  N   UNL d   1      29.075 -16.955  -1.128  0.00  0.00    -0.294 N 
ATOM     14  H   UNL d   1      29.576 -16.094  -1.346  0.00  0.00     0.187 HD
BRANCH  13  15
ATOM     15  N   UNL d   1      29.729 -18.127  -0.775  0.00  0.00    -0.269 N 
ATOM     16  C   UNL d   1      30.780 -18.684  -1.443  0.00  0.00     0.240 C 
ATOM     17  O   UNL d   1      31.125 -19.819  -1.115  0.00  0.00    -0.272 OA
ATOM     18  H   UNL d   1      29.267 -18.751  -0.115  0.00  0.00     0.190 HD
BRANCH  16  19
ATOM     19  C   UNL d   1      31.453 -17.845  -2.516  0.00  0.00     0.143 C 
BRANCH  19  20
ATOM     20  C   UNL d   1      31.011 -18.214  -3.910  0.00  0.00    -0.049 A 
ATOM     21  C   UNL d   1      30.976 -19.553  -4.314  0.00  0.00     0.007 A 
ATOM     22  C   UNL d   1      30.725 -19.872  -5.648  0.00  0.00     0.001 A 
ATOM     23  C   UNL d   1      30.421 -18.867  -6.565  0.00  0.00     0.000 A 
ATOM     24  C   UNL d   1      30.405 -17.535  -6.161  0.00  0.00     0.001 A 
ATOM     25  C   UNL d   1      30.691 -17.211  -4.838  0.00  0.00     0.007 A 
ENDBRANCH  19  20
ENDBRANCH  16  19
ENDBRANCH  13  15
ENDBRANCH   1  13
BRANCH   4  26
ATOM     26  S   UNL d   1      26.056 -14.510  -4.294  0.00  0.00     0.283 S 
ATOM     27  O   UNL d   1      26.801 -15.516  -5.019  0.00  0.00    -0.198 OA
ATOM     28  O   UNL d   1      25.238 -13.548  -5.020  0.00  0.00    -0.198 OA
BRANCH  26  29
ATOM     29  C   UNL d   1      27.218 -13.576  -3.356  0.00  0.00     0.081 A 
ATOM     30  C   UNL d   1      28.578 -13.672  -3.646  0.00  0.00     0.025 A 
ATOM     31  C   UNL d   1      29.489 -13.066  -2.784  0.00  0.00     0.002 A 
ATOM     32  C   UNL d   1      29.034 -12.300  -1.706  0.00  0.00     0.000 A 
ATOM     33  C   UNL d   1      27.667 -12.157  -1.467  0.00  0.00     0.002 A 
ATOM     34  C   UNL d   1      26.753 -12.798  -2.292  0.00  0.00     0.025 A 
ENDBRANCH  26  29
ENDBRANCH   4  26
TORSDOF 6
ENDMDL
MODEL 4
REMARK VINA RESULT:    -8.298      2.223      3.375
REMARK INTER + INTRA:         -13.187
REMARK INTER:                 -10.087
REMARK INTRA:                  -3.100
REMARK CONF_INDEPENDENT:        1.790
REMARK UNBOUND:                -3.100
REMARK  6 active torsions:
REMARK  status: ('A' for Active; 'I' for Inactive)
REMARK    1  A    between atoms: C_2  and  C_3 
REMARK       I    between atoms: C_2  and  N_10 
REMARK    2  A    between atoms: C_3  and  C_4 
REMARK    3  A    between atoms: N_10  and  N_11 
REMARK    4  A    between atoms: N_11  and  C_12 
REMARK    5  A    between atoms: N_15  and  S_16 
REMARK    6  A    between atoms: S_16  and  C_19 
ROOT
ATOM      1  C   UNL d   1      27.844 -17.450  -0.819  0.00  0.00     0.101 A 
ATOM      2  C   UNL d   1      27.514 -16.618  -1.804  0.00  0.00     0.068 A 
ATOM      3  C   UNL d   1      26.154 -16.149  -2.136  0.00  0.00     0.079 A 
ATOM      4  N   UNL d   1      25.884 -15.301  -3.082  0.00  0.00    -0.160 NA
ATOM      5  C   UNL d   1      25.080 -16.720  -1.259  0.00  0.00    -0.015 A 
ATOM      6  C   UNL d   1      25.383 -17.590  -0.271  0.00  0.00     0.007 A 
ATOM      7  C   UNL d   1      24.342 -18.200   0.626  0.00  0.00     0.070 C 
ATOM      8  C   UNL d   1      22.949 -18.067   0.088  0.00  0.00    -0.026 C 
ATOM      9  C   UNL d   1      22.635 -17.209  -0.894  0.00  0.00    -0.026 C 
ATOM     10  C   UNL d   1      23.655 -16.305  -1.541  0.00  0.00     0.068 C 
ATOM     11  C   UNL d   1      26.771 -18.044   0.007  0.00  0.00     0.207 A 
ATOM     12  O   UNL d   1      27.030 -18.857   0.895  0.00  0.00    -0.285 OA
ENDROOT
BRANCH   1  13
ATOM     13  N   UNL d   1      29.164 -17.712  -0.526  0.00  0.00    -0.294 N 
ATOM     14  H   UNL d   1      29.357 -18.379   0.221  0.00  0.00     0.187 HD
BRANCH  13  15
ATOM     15  N   UNL d   1      30.173 -17.057  -1.217  0.00  0.00    -0.269 N 
ATOM     16  C   UNL d   1      30.684 -15.832  -0.905  0.00  0.00     0.240 C 
ATOM     17  O   UNL d   1      31.440 -15.305  -1.723  0.00  0.00    -0.272 OA
ATOM     18  H   UNL d   1      30.401 -17.387  -2.154  0.00  0.00     0.190 HD
BRANCH  16  19
ATOM     19  C   UNL d   1      30.300 -15.231   0.437  0.00  0.00     0.143 C 
BRANCH  19  20
ATOM     20  C   UNL d   1      29.045 -14.397   0.367  0.00  0.00    -0.049 A 
ATOM     21  C   UNL d   1      27.912 -14.754   1.105  0.00  0.00     0.007 A 
ATOM     22  C   UNL d   1      26.711 -14.074   0.907  0.00  0.00     0.001 A 
ATOM     23  C   UNL d   1      26.655 -12.982   0.042  0.00  0.00     0.000 A 
ATOM     24  C   UNL d   1      27.791 -12.589  -0.659  0.00  0.00     0.001 A 
ATOM     25  C   UNL d   1      28.982 -13.289  -0.493  0.00  0.00     0.007 A 
ENDBRANCH  19  20
ENDBRANCH  16  19
ENDBRANCH  13  15
ENDBRANCH   1  13
BRANCH   4  26
ATOM     26  S   UNL d   1      27.118 -14.719  -3.987  0.00  0.00     0.283 S 
ATOM     27  O   UNL d   1      28.277 -14.537  -3.140  0.00  0.00    -0.198 OA
ATOM     28  O   UNL d   1      27.213 -15.549  -5.181  0.00  0.00    -0.198 OA
BRANCH  26  29
ATOM     29  C   UNL d   1      26.610 -13.121  -4.525  0.00  0.00     0.081 A 
ATOM     30  C   UNL d   1      27.035 -12.640  -5.764  0.00  0.00     0.025 A 
ATOM     31  C   UNL d   1      26.768 -11.313  -6.092  0.00  0.00     0.002 A 
ATOM     32  C   UNL d   1      26.007 -10.516  -5.231  0.00  0.00     0.000 A 
ATOM     33  C   UNL d   1      25.531 -11.030  -4.025  0.00  0.00     0.002 A 
ATOM     34  C   UNL d   1      25.834 -12.337  -3.668  0.00  0.00     0.025 A 
ENDBRANCH  26  29
ENDBRANCH   4  26
TORSDOF 6
ENDMDL
MODEL 5
REMARK VINA RESULT:    -8.104      1.780      2.197
REMARK INTER + INTRA:         -12.265
REMARK INTER:                  -9.893
REMARK INTRA:                  -2.371
REMARK CONF_INDEPENDENT:        1.790
REMARK UNBOUND:                -2.371
REMARK  6 active torsions:
REMARK  status: ('A' for Active; 'I' for Inactive)
REMARK    1  A    between atoms: C_2  and  C_3 
REMARK       I    between atoms: C_2  and  N_10 
REMARK    2  A    between atoms: C_3  and  C_4 
REMARK    3  A    between atoms: N_10  and  N_11 
REMARK    4  A    between atoms: N_11  and  C_12 
REMARK    5  A    between atoms: N_15  and  S_16 
REMARK    6  A    between atoms: S_16  and  C_19 
ROOT
ATOM      1  C   UNL d   1      27.829 -16.403  -0.878  0.00  0.00     0.101 A 
ATOM      2  C   UNL d   1      27.199 -15.388  -1.465  0.00  0.00     0.068 A 
ATOM      3  C   UNL d   1      25.737 -15.225  -1.600  0.00  0.00     0.079 A 
ATOM      4  N   UNL d   1      25.166 -14.194  -2.145  0.00  0.00    -0.160 NA
ATOM      5  C   UNL d   1      24.940 -16.355  -1.022  0.00  0.00    -0.015 A 
ATOM      6  C   UNL d   1      25.554 -17.412  -0.447  0.00  0.00     0.007 A 
ATOM      7  C   UNL d   1      24.800 -18.576   0.134  0.00  0.00     0.070 C 
ATOM      8  C   UNL d   1      23.374 -18.640  -0.321  0.00  0.00    -0.026 C 
ATOM      9  C   UNL d   1      22.753 -17.600  -0.896  0.00  0.00    -0.026 C 
ATOM     10  C   UNL d   1      23.435 -16.276  -1.133  0.00  0.00     0.068 C 
ATOM     11  C   UNL d   1      27.032 -17.535  -0.355  0.00  0.00     0.207 A 
ATOM     12  O   UNL d   1      27.580 -18.516   0.150  0.00  0.00    -0.285 OA
ENDROOT
BRANCH   1  13
ATOM     13  N   UNL d   1      29.194 -16.380  -0.698  0.00  0.00    -0.294 N 
ATOM     14  H   UNL d   1      29.631 -15.476  -0.522  0.00  0.00     0.187 HD
BRANCH  13  15
ATOM     15  N   UNL d   1      29.926 -17.555  -0.787  0.00  0.00    -0.269 N 
ATOM     16  C   UNL d   1      30.630 -17.973  -1.878  0.00  0.00     0.240 C 
ATOM     17  O   UNL d   1      31.069 -19.123  -1.866  0.00  0.00    -0.272 OA
ATOM     18  H   UNL d   1      29.753 -18.279  -0.091  0.00  0.00     0.190 HD
BRANCH  16  19
ATOM     19  C   UNL d   1      30.837 -16.973  -3.004  0.00  0.00     0.143 C 
BRANCH  19  20
ATOM     20  C   UNL d   1      30.742 -17.605  -4.371  0.00  0.00    -0.049 A 
ATOM     21  C   UNL d   1      30.405 -18.955  -4.509  0.00  0.00     0.007 A 
ATOM     22  C   UNL d   1      30.481 -19.567  -5.759  0.00  0.00     0.001 A 
ATOM     23  C   UNL d   1      30.806 -18.819  -6.889  0.00  0.00     0.000 A 
ATOM     24  C   UNL d   1      31.095 -17.462  -6.768  0.00  0.00     0.001 A 
ATOM     25  C   UNL d   1      31.057 -16.857  -5.516  0.00  0.00     0.007 A 
ENDBRANCH  19  20
ENDBRANCH  16  19
ENDBRANCH  13  15
ENDBRANCH   1  13
BRANCH   4  26
ATOM     26  S   UNL d   1      26.111 -12.998  -2.743  0.00  0.00     0.283 S 
ATOM     27  O   UNL d   1      25.276 -12.041  -3.434  0.00  0.00    -0.198 OA
ATOM     28  O   UNL d   1      26.988 -12.555  -1.668  0.00  0.00    -0.198 OA
BRANCH  26  29
ATOM     29  C   UNL d   1      27.142 -13.758  -3.952  0.00  0.00     0.081 A 
ATOM     30  C   UNL d   1      28.481 -13.383  -4.054  0.00  0.00     0.025 A 
ATOM     31  C   UNL d   1      29.230 -13.865  -5.125  0.00  0.00     0.002 A 
ATOM     32  C   UNL d   1      28.667 -14.780  -6.020  0.00  0.00     0.000 A 
ATOM     33  C   UNL d   1      27.346 -15.200  -5.867  0.00  0.00     0.002 A 
ATOM     34  C   UNL d   1      26.578 -14.687  -4.831  0.00  0.00     0.025 A 
ENDBRANCH  26  29
ENDBRANCH   4  26
TORSDOF 6
ENDMDL
MODEL 6
REMARK VINA RESULT:    -7.920      1.760      5.963
REMARK INTER + INTRA:         -12.158
REMARK INTER:                  -9.710
REMARK INTRA:                  -2.448
REMARK CONF_INDEPENDENT:        1.790
REMARK UNBOUND:                -2.448
REMARK  6 active torsions:
REMARK  status: ('A' for Active; 'I' for Inactive)
REMARK    1  A    between atoms: C_2  and  C_3 
REMARK       I    between atoms: C_2  and  N_10 
REMARK    2  A    between atoms: C_3  and  C_4 
REMARK    3  A    between atoms: N_10  and  N_11 
REMARK    4  A    between atoms: N_11  and  C_12 
REMARK    5  A    between atoms: N_15  and  S_16 
REMARK    6  A    between atoms: S_16  and  C_19 
ROOT
ATOM      1  C   UNL d   1      29.421 -16.766  -2.255  0.00  0.00     0.101 A 
ATOM      2  C   UNL d   1      28.419 -16.201  -2.926  0.00  0.00     0.068 A 
ATOM      3  C   UNL d   1      28.389 -15.908  -4.373  0.00  0.00     0.079 A 
ATOM      4  N   UNL d   1      27.369 -15.395  -4.992  0.00  0.00    -0.160 NA
ATOM      5  C   UNL d   1      29.646 -16.283  -5.099  0.00  0.00    -0.015 A 
ATOM      6  C   UNL d   1      30.690 -16.830  -4.439  0.00  0.00     0.007 A 
ATOM      7  C   UNL d   1      31.976 -17.210  -5.118  0.00  0.00     0.070 C 
ATOM      8  C   UNL d   1      32.135 -16.585  -6.471  0.00  0.00    -0.026 C 
ATOM      9  C   UNL d   1      31.108 -16.036  -7.136  0.00  0.00    -0.026 C 
ATOM     10  C   UNL d   1      29.706 -16.002  -6.582  0.00  0.00     0.068 C 
ATOM     11  C   UNL d   1      30.674 -17.085  -2.974  0.00  0.00     0.207 A 
ATOM     12  O   UNL d   1      31.642 -17.562  -2.380  0.00  0.00    -0.285 OA
ENDROOT
BRANCH   1  13
ATOM     13  N   UNL d   1      29.281 -17.108  -0.929  0.00  0.00    -0.294 N 
ATOM     14  H   UNL d   1      29.599 -18.035  -0.646  0.00  0.00     0.187 HD
BRANCH  13  15
ATOM     15  N   UNL d   1      28.700 -16.216  -0.039  0.00  0.00    -0.269 N 
ATOM     16  C   UNL d   1      27.491 -16.375   0.570  0.00  0.00     0.240 C 
ATOM     17  O   UNL d   1      27.031 -15.411   1.183  0.00  0.00    -0.272 OA
ATOM     18  H   UNL d   1      29.074 -15.269  -0.000  0.00  0.00     0.190 HD
BRANCH  16  19
ATOM     19  C   UNL d   1      26.825 -17.737   0.464  0.00  0.00     0.143 C 
BRANCH  19  20
ATOM     20  C   UNL d   1      25.391 -17.652   0.001  0.00  0.00    -0.049 A 
ATOM     21  C   UNL d   1      24.621 -18.811  -0.145  0.00  0.00     0.007 A 
ATOM     22  C   UNL d   1      23.357 -18.737  -0.727  0.00  0.00     0.001 A 
ATOM     23  C   UNL d   1      22.819 -17.502  -1.085  0.00  0.00     0.000 A 
ATOM     24  C   UNL d   1      23.559 -16.338  -0.897  0.00  0.00     0.001 A 
ATOM     25  C   UNL d   1      24.836 -16.412  -0.350  0.00  0.00     0.007 A 
ENDBRANCH  19  20
ENDBRANCH  16  19
ENDBRANCH  13  15
ENDBRANCH   1  13
BRANCH   4  26
ATOM     26  S   UNL d   1      26.031 -15.023  -4.125  0.00  0.00     0.283 S 
ATOM     27  O   UNL d   1      25.039 -14.457  -5.012  0.00  0.00    -0.198 OA
ATOM     28  O   UNL d   1      25.701 -16.186  -3.312  0.00  0.00    -0.198 OA
BRANCH  26  29
ATOM     29  C   UNL d   1      26.518 -13.751  -3.009  0.00  0.00     0.081 A 
ATOM     30  C   UNL d   1      27.179 -12.621  -3.492  0.00  0.00     0.025 A 
ATOM     31  C   UNL d   1      27.708 -11.714  -2.577  0.00  0.00     0.002 A 
ATOM     32  C   UNL d   1      27.493 -11.893  -1.207  0.00  0.00     0.000 A 
ATOM     33  C   UNL d   1      26.772 -12.992  -0.740  0.00  0.00     0.002 A 
ATOM     34  C   UNL d   1      26.283 -13.927  -1.643  0.00  0.00     0.025 A 
ENDBRANCH  26  29
ENDBRANCH   4  26
TORSDOF 6
ENDMDL
MODEL 7
REMARK VINA RESULT:    -7.695      2.605      4.581
REMARK INTER + INTRA:         -12.483
REMARK INTER:                  -9.485
REMARK INTRA:                  -2.998
REMARK CONF_INDEPENDENT:        1.790
REMARK UNBOUND:                -2.998
REMARK  6 active torsions:
REMARK  status: ('A' for Active; 'I' for Inactive)
REMARK    1  A    between atoms: C_2  and  C_3 
REMARK       I    between atoms: C_2  and  N_10 
REMARK    2  A    between atoms: C_3  and  C_4 
REMARK    3  A    between atoms: N_10  and  N_11 
REMARK    4  A    between atoms: N_11  and  C_12 
REMARK    5  A    between atoms: N_15  and  S_16 
REMARK    6  A    between atoms: S_16  and  C_19 
ROOT
ATOM      1  C   UNL d   1      27.704 -16.937  -0.466  0.00  0.00     0.101 A 
ATOM      2  C   UNL d   1      27.290 -15.857  -1.125  0.00  0.00     0.068 A 
ATOM      3  C   UNL d   1      25.888 -15.472  -1.383  0.00  0.00     0.079 A 
ATOM      4  N   UNL d   1      25.531 -14.384  -1.995  0.00  0.00    -0.160 NA
ATOM      5  C   UNL d   1      24.880 -16.444  -0.848  0.00  0.00    -0.015 A 
ATOM      6  C   UNL d   1      25.271 -17.563  -0.202  0.00  0.00     0.007 A 
ATOM      7  C   UNL d   1      24.300 -18.574   0.341  0.00  0.00     0.070 C 
ATOM      8  C   UNL d   1      22.921 -18.431  -0.228  0.00  0.00    -0.026 C 
ATOM      9  C   UNL d   1      22.519 -17.326  -0.874  0.00  0.00    -0.026 C 
ATOM     10  C   UNL d   1      23.419 -16.135  -1.083  0.00  0.00     0.068 C 
ATOM     11  C   UNL d   1      26.700 -17.912   0.014  0.00  0.00     0.207 A 
ATOM     12  O   UNL d   1      27.044 -18.948   0.584  0.00  0.00    -0.285 OA
ENDROOT
BRANCH   1  13
ATOM     13  N   UNL d   1      29.037 -17.122  -0.175  0.00  0.00    -0.294 N 
ATOM     14  H   UNL d   1      29.288 -17.935   0.387  0.00  0.00     0.187 HD
BRANCH  13  15
ATOM     15  N   UNL d   1      29.979 -16.204  -0.619  0.00  0.00    -0.269 N 
ATOM     16  C   UNL d   1      30.306 -15.037   0.004  0.00  0.00     0.240 C 
ATOM     17  O   UNL d   1      31.020 -14.244  -0.611  0.00  0.00    -0.272 OA
ATOM     18  H   UNL d   1      30.292 -16.272  -1.587  0.00  0.00     0.190 HD
BRANCH  16  19
ATOM     19  C   UNL d   1      29.785 -14.824   1.416  0.00  0.00     0.143 C 
BRANCH  19  20
ATOM     20  C   UNL d   1      28.709 -13.769   1.489  0.00  0.00    -0.049 A 
ATOM     21  C   UNL d   1      27.398 -14.112   1.836  0.00  0.00     0.007 A 
ATOM     22  C   UNL d   1      26.381 -13.163   1.740  0.00  0.00     0.001 A 
ATOM     23  C   UNL d   1      26.679 -11.848   1.386  0.00  0.00     0.000 A 
ATOM     24  C   UNL d   1      27.989 -11.485   1.087  0.00  0.00     0.001 A 
ATOM     25  C   UNL d   1      29.000 -12.440   1.145  0.00  0.00     0.007 A 
ENDBRANCH  19  20
ENDBRANCH  16  19
ENDBRANCH  13  15
ENDBRANCH   1  13
BRANCH   4  26
ATOM     26  S   UNL d   1      26.697 -13.373  -2.540  0.00  0.00     0.283 S 
ATOM     27  O   UNL d   1      26.072 -12.219  -3.149  0.00  0.00    -0.198 OA
ATOM     28  O   UNL d   1      27.659 -13.193  -1.461  0.00  0.00    -0.198 OA
BRANCH  26  29
ATOM     29  C   UNL d   1      27.535 -14.247  -3.820  0.00  0.00     0.081 A 
ATOM     30  C   UNL d   1      28.754 -14.868  -3.550  0.00  0.00     0.025 A 
ATOM     31  C   UNL d   1      29.481 -15.401  -4.612  0.00  0.00     0.002 A 
ATOM     32  C   UNL d   1      28.947 -15.391  -5.904  0.00  0.00     0.000 A 
ATOM     33  C   UNL d   1      27.695 -14.827  -6.149  0.00  0.00     0.002 A 
ATOM     34  C   UNL d   1      26.985 -14.250  -5.104  0.00  0.00     0.025 A 
ENDBRANCH  26  29
ENDBRANCH   4  26
TORSDOF 6
ENDMDL
MODEL 8
REMARK VINA RESULT:    -7.616      2.628      4.244
REMARK INTER + INTRA:         -12.691
REMARK INTER:                  -9.406
REMARK INTRA:                  -3.286
REMARK CONF_INDEPENDENT:        1.790
REMARK UNBOUND:                -3.286
REMARK  6 active torsions:
REMARK  status: ('A' for Active; 'I' for Inactive)
REMARK    1  A    between atoms: C_2  and  C_3 
REMARK       I    between atoms: C_2  and  N_10 
REMARK    2  A    between atoms: C_3  and  C_4 
REMARK    3  A    between atoms: N_10  and  N_11 
REMARK    4  A    between atoms: N_11  and  C_12 
REMARK    5  A    between atoms: N_15  and  S_16 
REMARK    6  A    between atoms: S_16  and  C_19 
ROOT
ATOM      1  C   UNL d   1      27.547 -17.131  -0.955  0.00  0.00     0.101 A 
ATOM      2  C   UNL d   1      27.039 -16.358  -1.911  0.00  0.00     0.068 A 
ATOM      3  C   UNL d   1      25.612 -16.037  -2.112  0.00  0.00     0.079 A 
ATOM      4  N   UNL d   1      25.166 -15.240  -3.036  0.00  0.00    -0.160 NA
ATOM      5  C   UNL d   1      24.693 -16.694  -1.127  0.00  0.00    -0.015 A 
ATOM      6  C   UNL d   1      25.178 -17.508  -0.164  0.00  0.00     0.007 A 
ATOM      7  C   UNL d   1      24.298 -18.201   0.838  0.00  0.00     0.070 C 
ATOM      8  C   UNL d   1      22.853 -18.220   0.439  0.00  0.00    -0.026 C 
ATOM      9  C   UNL d   1      22.359 -17.420  -0.517  0.00  0.00    -0.026 C 
ATOM     10  C   UNL d   1      23.212 -16.432  -1.271  0.00  0.00     0.068 C 
ATOM     11  C   UNL d   1      26.626 -17.813  -0.020  0.00  0.00     0.207 A 
ATOM     12  O   UNL d   1      27.052 -18.576   0.848  0.00  0.00    -0.285 OA
ENDROOT
BRANCH   1  13
ATOM     13  N   UNL d   1      28.909 -17.252  -0.790  0.00  0.00    -0.294 N 
ATOM     14  H   UNL d   1      29.244 -17.965  -0.142  0.00  0.00     0.187 HD
BRANCH  13  15
ATOM     15  N   UNL d   1      29.769 -16.403  -1.471  0.00  0.00    -0.269 N 
ATOM     16  C   UNL d   1      30.461 -15.364  -0.922  0.00  0.00     0.240 C 
ATOM     17  O   UNL d   1      31.033 -14.591  -1.691  0.00  0.00    -0.272 OA
ATOM     18  H   UNL d   1      29.719 -16.389  -2.489  0.00  0.00     0.190 HD
BRANCH  16  19
ATOM     19  C   UNL d   1      30.492 -15.265   0.594  0.00  0.00     0.143 C 
BRANCH  19  20
ATOM     20  C   UNL d   1      29.309 -14.514   1.154  0.00  0.00    -0.049 A 
ATOM     21  C   UNL d   1      29.306 -14.081   2.484  0.00  0.00     0.007 A 
ATOM     22  C   UNL d   1      28.148 -13.537   3.037  0.00  0.00     0.001 A 
ATOM     23  C   UNL d   1      27.018 -13.339   2.245  0.00  0.00     0.000 A 
ATOM     24  C   UNL d   1      27.028 -13.722   0.906  0.00  0.00     0.001 A 
ATOM     25  C   UNL d   1      28.171 -14.300   0.362  0.00  0.00     0.007 A 
ENDBRANCH  19  20
ENDBRANCH  16  19
ENDBRANCH  13  15
ENDBRANCH   1  13
BRANCH   4  26
ATOM     26  S   UNL d   1      26.240 -14.556  -4.066  0.00  0.00     0.283 S 
ATOM     27  O   UNL d   1      27.151 -15.575  -4.539  0.00  0.00    -0.198 OA
ATOM     28  O   UNL d   1      25.482 -13.758  -5.020  0.00  0.00    -0.198 OA
BRANCH  26  29
ATOM     29  C   UNL d   1      27.181 -13.424  -3.099  0.00  0.00     0.081 A 
ATOM     30  C   UNL d   1      26.529 -12.514  -2.268  0.00  0.00     0.025 A 
ATOM     31  C   UNL d   1      27.279 -11.517  -1.650  0.00  0.00     0.002 A 
ATOM     32  C   UNL d   1      28.670 -11.495  -1.791  0.00  0.00     0.000 A 
ATOM     33  C   UNL d   1      29.318 -12.453  -2.571  0.00  0.00     0.002 A 
ATOM     34  C   UNL d   1      28.572 -13.421  -3.231  0.00  0.00     0.025 A 
ENDBRANCH  26  29
ENDBRANCH   4  26
TORSDOF 6
ENDMDL
MODEL 9
REMARK VINA RESULT:    -7.549      2.591      7.299
REMARK INTER + INTRA:         -12.348
REMARK INTER:                  -9.339
REMARK INTRA:                  -3.009
REMARK CONF_INDEPENDENT:        1.790
REMARK UNBOUND:                -3.009
REMARK  6 active torsions:
REMARK  status: ('A' for Active; 'I' for Inactive)
REMARK    1  A    between atoms: C_2  and  C_3 
REMARK       I    between atoms: C_2  and  N_10 
REMARK    2  A    between atoms: C_3  and  C_4 
REMARK    3  A    between atoms: N_10  and  N_11 
REMARK    4  A    between atoms: N_11  and  C_12 
REMARK    5  A    between atoms: N_15  and  S_16 
REMARK    6  A    between atoms: S_16  and  C_19 
ROOT
ATOM      1  C   UNL d   1      27.264 -12.849  -5.872  0.00  0.00     0.101 A 
ATOM      2  C   UNL d   1      26.802 -13.556  -4.843  0.00  0.00     0.068 A 
ATOM      3  C   UNL d   1      27.394 -14.793  -4.294  0.00  0.00     0.079 A 
ATOM      4  N   UNL d   1      26.932 -15.426  -3.259  0.00  0.00    -0.160 NA
ATOM      5  C   UNL d   1      28.618 -15.260  -5.023  0.00  0.00    -0.015 A 
ATOM      6  C   UNL d   1      29.092 -14.579  -6.089  0.00  0.00     0.007 A 
ATOM      7  C   UNL d   1      30.306 -15.014  -6.861  0.00  0.00     0.070 C 
ATOM      8  C   UNL d   1      30.695 -16.437  -6.595  0.00  0.00    -0.026 C 
ATOM      9  C   UNL d   1      30.231 -17.126  -5.542  0.00  0.00    -0.026 C 
ATOM     10  C   UNL d   1      29.279 -16.529  -4.536  0.00  0.00     0.068 C 
ATOM     11  C   UNL d   1      28.443 -13.348  -6.613  0.00  0.00     0.207 A 
ATOM     12  O   UNL d   1      28.872 -12.750  -7.601  0.00  0.00    -0.285 OA
ENDROOT
BRANCH   1  13
ATOM     13  N   UNL d   1      26.699 -11.640  -6.210  0.00  0.00    -0.294 N 
ATOM     14  H   UNL d   1      26.989 -11.215  -7.091  0.00  0.00     0.187 HD
BRANCH  13  15
ATOM     15  N   UNL d   1      25.795 -11.031  -5.353  0.00  0.00    -0.269 N 
ATOM     16  C   UNL d   1      26.108 -10.392  -4.190  0.00  0.00     0.240 C 
ATOM     17  O   UNL d   1      25.179 -10.070  -3.449  0.00  0.00    -0.272 OA
ATOM     18  H   UNL d   1      24.808 -11.263  -5.457  0.00  0.00     0.190 HD
BRANCH  16  19
ATOM     19  C   UNL d   1      27.576 -10.105  -3.920  0.00  0.00     0.143 C 
BRANCH  19  20
ATOM     20  C   UNL d   1      28.183 -11.058  -2.920  0.00  0.00    -0.049 A 
ATOM     21  C   UNL d   1      29.214 -11.925  -3.299  0.00  0.00     0.007 A 
ATOM     22  C   UNL d   1      29.653 -12.911  -2.418  0.00  0.00     0.001 A 
ATOM     23  C   UNL d   1      29.132 -12.982  -1.127  0.00  0.00     0.000 A 
ATOM     24  C   UNL d   1      28.141 -12.092  -0.724  0.00  0.00     0.001 A 
ATOM     25  C   UNL d   1      27.673 -11.130  -1.615  0.00  0.00     0.007 A 
ENDBRANCH  19  20
ENDBRANCH  16  19
ENDBRANCH  13  15
ENDBRANCH   1  13
BRANCH   4  26
ATOM     26  S   UNL d   1      25.595 -14.842  -2.516  0.00  0.00     0.283 S 
ATOM     27  O   UNL d   1      25.963 -13.680  -1.735  0.00  0.00    -0.198 OA
ATOM     28  O   UNL d   1      24.546 -14.739  -3.520  0.00  0.00    -0.198 OA
BRANCH  26  29
ATOM     29  C   UNL d   1      25.088 -16.091  -1.383  0.00  0.00     0.081 A 
ATOM     30  C   UNL d   1      26.046 -16.803  -0.662  0.00  0.00     0.025 A 
ATOM     31  C   UNL d   1      25.636 -17.900   0.092  0.00  0.00     0.002 A 
ATOM     32  C   UNL d   1      24.277 -18.215   0.192  0.00  0.00     0.000 A 
ATOM     33  C   UNL d   1      23.322 -17.453  -0.480  0.00  0.00     0.002 A 
ATOM     34  C   UNL d   1      23.726 -16.388  -1.274  0.00  0.00     0.025 A 
ENDBRANCH  26  29
ENDBRANCH   4  26
TORSDOF 6
ENDMDL
